*SIMULATION OVERVIEW FILE

*DSSAT Cropping System Model Ver. 4.0.2.000               Jul 19, 2016; 16:06:32
                                                                                
*RUN   1        : UYMZ                                                          
 MODEL          : MZCER040 - MAIZE                                              
 EXPERIMENT     : UYMZ0025 SN late to create DSS                                
 TREATMENT  1   : UYMZ                                                          
                                                                                
 CROP           : MAIZE          CULTIVAR : CMEDIO UY        ECOTYPE :IB0001    
 STARTING DATE  : JUL 10 1990                                                   
 PLANTING DATE  : JUL 13 1990    PLANTS/m2 :  7.0     ROW SPACING :  15.cm      
 WEATHER        : UYTA   1990                                                   
 SOIL           : UYSS0N2002     TEXTURE :       -  N20-02    SNIA CLAY RISS    
 SOIL INITIAL C : DEPTH:125cm EXTR. H2O:186.3mm  NO3: 74.8kg/ha  NH4: 23.9kg/ha 
 WATER BALANCE  : RAINFED                                                       
 IRRIGATION     : NOT IRRIGATED                                                 
 NITROGEN BAL.  : SOIL-N & N-UPTAKE SIMULATION; NO N-FIXATION                   
 N-FERTILIZER   :        2 kg/ha IN     2 APPLICATIONS                          
 RESIDUE/MANURE : INITIAL :     0 kg/ha ;       0 kg/ha IN     0 APPLICATIONS   
 ENVIRONM. OPT. : DAYL=    0.00  SRAD=    0.00  TMAX=    0.00  TMIN=    0.00    
                  RAIN=    0.00  CO2 = R330.00  DEW =    0.00  WIND=    0.00    
 SIMULATION OPT : WATER   :Y  NITROGEN:Y  N-FIX:N  PHOSPH :N  PESTS  :N         
                  PHOTO   :C  ET      :R  INFIL:S  HYDROL :R  SOM    :G         
 MANAGEMENT OPT : PLANTING:R  IRRIG   :N  FERT :D  RESIDUE:N  HARVEST:M  WTH:M  
                                                                                
*SUMMARY OF SOIL AND GENETIC INPUT PARAMETERS                                   
                                                                                
   SOIL LOWER UPPER   SAT  EXTR  INIT   ROOT   BULK     pH    NO3    NH4    ORG 
  DEPTH LIMIT LIMIT    SW    SW    SW   DIST   DENS                          C  
   cm   cm3/cm3    cm3/cm3    cm3/cm3         g/cm3         ugN/g  ugN/g     %  
------------------------------------------------------------------------------- 
  0-  5 0.331 0.542 0.585 0.211 0.394   1.00   1.11   6.50  15.00   1.50   2.74 
  5- 15 0.331 0.542 0.585 0.211 0.394   1.00   1.11   6.50  15.00   1.50   2.74 
 15- 30 0.331 0.542 0.585 0.211 0.394   1.00   1.11   6.50  15.00   1.50   2.74 
 30- 45 0.290 0.438 0.491 0.148 0.334   0.43   1.26   6.50   8.50   1.50   1.07 
 45- 60 0.292 0.431 0.480 0.138 0.375   0.39   1.29   6.27   4.53   1.50   0.90 
 60- 90 0.293 0.419 0.466 0.126 0.419   0.32   1.34   6.00   0.00   1.50   0.64 
 90-108 0.286 0.408 0.460 0.122 0.408   0.23   1.36   6.00   0.00   1.50   0.35 
108-125 0.276 0.395 0.456 0.119 0.395   0.12   1.38   6.00   0.00   1.50   0.14 
                                                                                
TOT-125  37.3  55.9  62.1  18.6  49.1  <--cm   -  kg/ha-->   74.8   23.9 166127 
SOIL ALBEDO    : 0.09      EVAPORATION LIMIT : 6.00         MIN. FACTOR  : 1.00 
RUNOFF CURVE # :10.00      DRAINAGE RATE     : 0.40         FERT. FACTOR : 1.00 
                                                                                
 MAIZE      CULTIVAR :UY0370-CMEDIO UY          ECOTYPE :IB0001                 
 P1     : 280.00  P2     : 0.0000  P5     : 750.00                              
 G2     : 800.00  G3     :  7.500  PHINT  : 38.900                              
                                                                                
                                                                                
                                                                                
*SIMULATED CROP AND SOIL STATUS AT MAIN DEVELOPMENT STAGES

 RUN NO.     1     UYMZ                    

        CROP GROWTH   BIOMASS         LEAF   CROP N     STRESS  
   DATE  AGE STAGE      kg/ha    LAI   NUM  kg/ha  %   H2O    N 
 ------  --- ---------- -----  -----  ----  ---  ---  ----  ----
 10 JUL    0 Start Sim      0   0.00   0.0    0  0.0  0.00  0.00
 13 JUL    0 Sowing         0   0.00   0.0    0  0.0  0.00  0.00
 16 JUL    3 Germinate      0   0.00   0.0    0  0.0  0.00  0.00
  7 AUG   25 Emergence     28   0.00   2.0    1  4.4  0.00  0.00
 19 SEP   68 End Juveni   312   0.30   9.6   12  3.9  0.09  0.00
 23 SEP   72 Floral Ini   390   0.42  10.2   15  3.7  0.00  0.01
 13 NOV  123 75% Silkin  8061   3.74  21.5  119  1.5  0.00  0.03
 25 NOV  135 Beg Gr Fil 10495   3.50  21.5  127  1.2  0.00  0.04
  7 JAN  178 End Gr Fil 19549   1.43  21.5  149  0.8  0.00  0.23
  9 JAN  180 Maturity   19549   1.43  21.5  149  0.8  0.00  0.56
  9 JAN  180 Harvest    19549   1.43  21.5  149  0.8  0.00  0.00


*MAIN GROWTH AND DEVELOPMENT VARIABLES

@     VARIABLE                          SIMULATED     MEASURED
      --------                          ---------     --------
      Anthesis day (dap)                      123          -99
      Physiological maturity day (dap)        180          -99
      Yield at harvest maturity (kg [dm]/    9617          -99
      Number at maturity (no/m2)             3710          -99
      Unit wt at maturity (g [dm]/unit)    0.2592          -99
      Number at maturity (no/unit)          530.0          -99
      Tops weight at maturity (kg [dm]/ha   19549          -99
      By-product produced (stalk) at matu   10008          -99
      Leaf area index, maximum               3.78          -99
      Harvest index at maturity             0.492          -99
      Grain N at maturity (kg/ha)             110          -99
      Tops N at maturity (kg/ha)              149          -99
      Stem N at maturity (kg/ha)               39          -99
      Grain N at maturity (%)                 1.1          -99
      Tops weight at anthesis (kg [dm]/ha    7780          -99
      Tops N at anthesis (kg/ha)              119          -99
      Leaf number per stem at maturity      21.51          -99


*ENVIRONMENTAL AND STRESS FACTORS

 |-----Development Phase------|-------------Environment--------------|---------Stress----------|
                              |--------Average-------|---Cumulative--|  (0=Min, 1=Max Stress)  |
                         Time  Temp  Temp Solar Photop         Evapo |----Water---|--Nitrogen--|
                         Span   Max   Min   Rad  [day]   Rain  Trans  Photo         Photo
                         days    øC    øC MJ/m2     hr     mm     mm  synth Growth  synth Growth
------------------------------------------------------------------------------------------------
 Emergence-End Juvenile    43  19.4   8.0  13.7  11.21  128.0   68.2  0.051  0.087  0.002  0.001
 End Juvenil-Floral Init    4  18.5  12.5   9.0  11.96   32.0    9.8  0.000  0.000  0.000  0.000
 Floral Init-End Lf Grow   51  23.0  12.6  19.4  12.83  183.4  181.9  0.000  0.000  0.083  0.033
 End Lf Grth-Beg Grn Fil   12  28.3  16.7  22.1  13.70   56.5   63.7  0.000  0.000  0.120  0.048
 Grain Filling Phase       43  26.4  14.6  24.4  14.01  284.2  224.3  0.000  0.000  0.411  0.215

                     Maize YIELD :     9617 kg/ha    [Dry weight] 

************************************************************************************************
