*GROWTH ASPECTS OUTPUT FILE

*DSSAT Cropping System Model Ver. 4.0.2.000               Aug 15, 2016; 16:05:16

*RUN   1        : UYMZ                    
 MODEL          : MZCER040 - Maize           
 EXPERIMENT     : UYMZ0209 MZ    late to create DSS                             
 TREATMENT  1   : UYMZ                    

@YEAR DOY   DAS   DAP   L#SD   GSTD   LAID   LWAD   SWAD   GWAD   RWAD   CWAD   G#AD   GWGD   HIAD   PWAD   P#AD   WSPD   WSGD   NSTD   EWSD   LN%D   SH%D   HIPD   PWDD   PWTD     SLAD   CHTD   CWID   RDPD   RL1D   RL2D   RL3D   RL4D   RL5D   RL6D   RL7D   RL8D   RL9D   RL10   CDAD   LDAD   SDAD   SNW0C   SNW1C
 1990 227     3     0    0.0      0   0.00      0      0      0      0      0      0    0.0  0.000      0      0  0.000  0.000  0.000  0.000   0.00   0.00   0.00      0      0      0.0   0.00   0.00   0.03   0.00   0.00   0.00   0.00   0.00   0.00   0.00   0.00   0.00   0.00      0      0      0       0       0
 1990 228     4     1    0.0      0   0.00      0      0      0      0      0      0    0.0  0.000      0      0  0.000  0.000  0.000  0.000   0.00   0.00   0.00      0      0      0.0   0.00   0.00   0.03   0.00   0.00   0.00   0.00   0.00   0.00   0.00   0.00   0.00   0.00      0      0      0       0       0
 1990 229     5     2    0.0      0   0.00      0      0      0      0      0      0    0.0  0.000      0      0  0.000  0.000  0.000  0.000   0.00   0.00   0.00      0      0      0.0   0.00   0.00   0.05   0.00   0.00   0.00   0.00   0.00   0.00   0.00   0.00   0.00   0.00      0      0      0       0       0
 1990 230     6     3    0.0      0   0.00      0      0      0      0      0      0    0.0  0.000      0      0  0.000  0.000  0.000  0.000   0.00   0.00   0.00      0      0      0.0   0.00   0.00   0.06   0.00   0.00   0.00   0.00   0.00   0.00   0.00   0.00   0.00   0.00      0      0      0       0       0
 1990 231     7     4    0.0      0   0.00      0      0      0      0      0      0    0.0  0.000      0      0  0.000  0.000  0.000  0.000   0.00   0.00   0.00      0      0      0.0   0.00   0.00   0.07   0.00   0.00   0.00   0.00   0.00   0.00   0.00   0.00   0.00   0.00      0      0      0       0       0
 1990 232     8     5    0.0      0   0.00      0      0      0      0      0      0    0.0  0.000      0      0  0.000  0.000  0.000  0.000   0.00   0.00   0.00      0      0      0.0   0.00   0.00   0.08   0.00   0.00   0.00   0.00   0.00   0.00   0.00   0.00   0.00   0.00      0      0      0       0       0
 1990 233     9     6    0.0      0   0.00      0      0      0      0      0      0    0.0  0.000      0      0  0.000  0.000  0.000  0.000   0.00   0.00   0.00      0      0      0.0   0.00   0.00   0.09   0.00   0.00   0.00   0.00   0.00   0.00   0.00   0.00   0.00   0.00      0      0      0       0       0
 1990 234    10     7    0.0      0   0.00      0      0      0      0      0      0    0.0  0.000      0      0  0.000  0.000  0.000  0.000   0.00   0.00   0.00      0      0      0.0   0.00   0.00   0.10   0.00   0.00   0.00   0.00   0.00   0.00   0.00   0.00   0.00   0.00      0      0      0       0       0
 1990 235    11     8    0.0      0   0.00      0      0      0      0      0      0    0.0  0.000      0      0  0.000  0.000  0.000  0.000   0.00   0.00   0.00      0      0      0.0   0.00   0.00   0.10   0.00   0.00   0.00   0.00   0.00   0.00   0.00   0.00   0.00   0.00      0      0      0       0       0
 1990 236    12     9    0.0      0   0.00      0      0      0      0      0      0    0.0  0.000      0      0  0.000  0.000  0.000  0.000   0.00   0.00   0.00      0      0      0.0   0.00   0.00   0.11   0.00   0.00   0.00   0.00   0.00   0.00   0.00   0.00   0.00   0.00      0      0      0       0       0
 1990 237    13    10    0.0      0   0.00      0      0      0      0      0      0    0.0  0.000      0      0  0.000  0.000  0.000  0.000   0.00   0.00   0.00      0      0      0.0   0.00   0.00   0.12   0.00   0.00   0.00   0.00   0.00   0.00   0.00   0.00   0.00   0.00      0      0      0       0       0
 1990 238    14    11    1.0      1   0.00     14     14      0     14     28      0    0.0  0.000      0      0  0.000  0.000  0.012  0.000   4.40   0.00   0.00      0      0     21.4   0.00   0.00   0.13   0.28   0.10   0.00   0.00   0.00   0.00   0.00   0.00   0.00   0.00      0      0      0       0       0
 1990 239    15    12    2.0      1   0.00     14     14      0     14     28      0    0.0  0.000      0      0  0.000  0.000  0.017  0.000   4.54   0.00   0.00      0      0     26.8   0.00   0.00   0.14   0.26   0.10   0.00   0.00   0.00   0.00   0.00   0.00   0.00   0.00      0      0      0       0       0
 1990 240    16    13    2.0      1   0.00     14     14      0     14     28      0    0.0  0.000      0      0  0.000  0.000  0.000  0.000   4.54   0.00   0.00      0      0     22.6   0.00   0.00   0.14   0.25   0.09   0.00   0.00   0.00   0.00   0.00   0.00   0.00   0.00      0      0      0       0       0
 1990 241    17    14    2.0      1   0.00     14     14      0     14     28      0    0.0  0.000      0      0  0.000  0.000  0.000  0.036   4.54   0.00   0.00      0      0     11.9   0.00   0.00   0.14   0.24   0.09   0.00   0.00   0.00   0.00   0.00   0.00   0.00   0.00      0      0      0       0       0
 1990 242    18    15    2.0      1   0.00     14     14      0     14     28      0    0.0  0.000      0      0  0.000  0.000  0.000  0.000   4.54   0.00   0.00      0      0     19.0   0.00   0.00   0.14   0.25   0.10   0.00   0.00   0.00   0.00   0.00   0.00   0.00   0.00      0      0      0       0       0
 1990 243    19    16    2.0      1   0.00     14     14      0     14     28      0    0.0  0.000      0      0  0.000  0.000  0.000  0.000   4.54   0.00   0.00      0      0     20.2   0.00   0.00   0.15   0.24   0.10   0.00   0.00   0.00   0.00   0.00   0.00   0.00   0.00      0      0      0       0       0
 1990 244    20    17    2.0      1   0.00     14     14      0     14     28      0    0.0  0.000      0      0  0.000  0.000  0.000  0.000   4.54   0.00   0.00      0      0     14.8   0.00   0.00   0.15   0.24   0.10   0.00   0.00   0.00   0.00   0.00   0.00   0.00   0.00      0      0      0       0       0
 1990 245    21    18    2.0      1   0.00     14     14      0     14     28      0    0.0  0.000      0      0  0.000  0.000  0.000  0.000   4.54   0.00   0.00      0      0      4.7   0.00   0.00   0.15   0.24   0.10   0.00   0.00   0.00   0.00   0.00   0.00   0.00   0.00      0      0      0       0       0
 1990 246    22    19    2.0      1   0.00     14     14      0     14     28      0    0.0  0.000      0      0  0.000  0.000  0.000  0.000   4.54   0.00   0.00      0      0      8.5   0.00   0.00   0.15   0.24   0.10   0.00   0.00   0.00   0.00   0.00   0.00   0.00   0.00      0      0      0       0       0
 1990 247    23    20    2.0      1   0.00     14     14      0     14     28      0    0.0  0.000      0      0  0.000  0.000  0.000  0.000   4.54   0.00   0.00      0      0     15.2   0.00   0.00   0.15   0.24   0.10   0.00   0.00   0.00   0.00   0.00   0.00   0.00   0.00      0      0      0       0       0
 1990 248    24    21    2.0      1   0.00     14     14      0     14     28      0    0.0  0.000      0      0  0.000  0.000  0.000  0.000   4.54   0.00   0.00      0      0     30.6   0.00   0.00   0.16   0.24   0.10   0.00   0.00   0.00   0.00   0.00   0.00   0.00   0.00      0      0      0       0       0
 1990 249    25    22    3.0      1   0.01     14     14      0     15     28      0    0.0  0.000      0      0  0.000  0.000  0.000  0.000   4.54   0.00   0.00      0      0     43.5   0.00   0.00   0.17   0.24   0.10   0.00   0.00   0.00   0.00   0.00   0.00   0.00   0.00      0      0      0       0       0
 1990 250    26    23    3.0      1   0.01     14     14      0     15     28      0    0.0  0.000      0      0  0.000  0.000  0.000  0.000   4.54   0.00   0.00      0      0     56.9   0.00   0.00   0.17   0.24   0.10   0.00   0.00   0.00   0.00   0.00   0.00   0.00   0.00      0      0      0       0       0
 1990 251    27    24    3.0      1   0.01     14     14      0     15     28      0    0.0  0.000      0      0  0.000  0.000  0.000  0.000   4.54   0.00   0.00      0      0     66.2   0.00   0.00   0.18   0.22   0.10   0.00   0.00   0.00   0.00   0.00   0.00   0.00   0.00      0      0      0       0       0
 1990 252    28    25    3.0      1   0.01     14     14      0     17     28      0    0.0  0.000      0      0  0.000  0.000  0.000  0.181   4.54   0.00   0.00      0      0     83.0   0.00   0.00   0.19   0.22   0.11   0.00   0.00   0.00   0.00   0.00   0.00   0.00   0.00      0      0      0       0       0
 1990 253    29    26    4.0      1   0.02     14     14      0     18     28      0    0.0  0.000      0      0  0.000  0.000  0.000  0.010   4.38   0.00   0.00      0      0    176.4   0.00   0.00   0.20   0.22   0.12   0.01   0.00   0.00   0.00   0.00   0.00   0.00   0.00      0      0      0       0       0
 1990 254    30    27    4.0      1   0.04     14     14      0     20     28      0    0.0  0.000      0      0  0.000  0.000  0.000  0.039   4.36   0.00   0.00      0      0    250.7   0.00   0.00   0.21   0.21   0.13   0.02   0.00   0.00   0.00   0.00   0.00   0.00   0.00      0      0      0       0       0
 1990 255    31    28    4.0      1   0.04     14     14      0     23     28      0    0.0  0.000      0      0  0.000  0.000  0.000  0.047   4.35   0.00   0.00      0      0    265.7   0.00   0.00   0.21   0.21   0.15   0.04   0.00   0.00   0.00   0.00   0.00   0.00   0.00      0      0      0       0       0
 1990 256    32    29    4.0      1   0.03     14     14      0     25     28      0    0.0  0.000      0      0  0.000  0.000  0.000  0.045   4.35   0.00   0.00      0      0    243.6   0.00   0.00   0.21   0.21   0.17   0.04   0.00   0.00   0.00   0.00   0.00   0.00   0.00      0      0      0       0       0
 1990 257    33    30    4.0      1   0.03     14     14      0     27     28      0    0.0  0.000      0      0  0.000  0.000  0.000  0.024   4.34   0.00   0.00      0      0    180.4   0.00   0.00   0.21   0.21   0.19   0.06   0.00   0.00   0.00   0.00   0.00   0.00   0.00      0      0      0       0       1
 1990 258    34    31    4.0      1   0.03     15     14      0     31     29      0    0.0  0.000      0      0  0.000  0.000  0.000  0.006   4.20   0.00   0.00      0      0    191.2   0.00   0.00   0.22   0.22   0.22   0.08   0.00   0.00   0.00   0.00   0.00   0.00   0.00      0      0      0       0       1
 1990 259    35    32    4.0      1   0.04     19     14      0     33     33      0    0.0  0.000      0      0  0.000  0.000  0.000  0.000   3.79   0.00   0.00      0      0    207.2   0.00   0.00   0.23   0.23   0.23   0.09   0.00   0.00   0.00   0.00   0.00   0.00   0.00      0      0      0       0       1
 1990 260    36    33    4.0      1   0.05     23     14      0     34     37      0    0.0  0.000      0      0  0.000  0.000  0.000  0.000   3.87   0.00   0.00      0      0    215.2   0.00   0.00   0.23   0.24   0.25   0.10   0.00   0.00   0.00   0.00   0.00   0.00   0.00      0      0      0       0       1
 1990 261    37    34    5.0      1   0.06     27     14      0     36     41      0    0.0  0.000      0      0  0.000  0.000  0.000  0.000   3.85   0.00   0.00      0      0    220.2   0.00   0.00   0.24   0.22   0.24   0.10   0.00   0.00   0.00   0.00   0.00   0.00   0.00      0      0      0       0       1
 1990 262    38    35    5.0      1   0.07     31     14      0     40     45      0    0.0  0.000      0      0  0.000  0.000  0.000  0.000   3.86   0.00   0.00      0      0    223.0   0.00   0.00   0.24   0.22   0.26   0.13   0.00   0.00   0.00   0.00   0.00   0.00   0.00      0      0      0       0       1
 1990 263    39    36    5.0      1   0.08     36     14      0     41     50      0    0.0  0.000      0      0  0.000  0.000  0.000  0.096   3.81   0.00   0.00      0      0    224.4   0.00   0.00   0.25   0.22   0.26   0.14   0.00   0.00   0.00   0.00   0.00   0.00   0.00      0      0      0       0       1
 1990 264    40    37    5.0      1   0.10     44     14      0     42     58      0    0.0  0.000      0      0  0.000  0.000  0.000  0.052   3.64   0.00   0.00      0      0    224.5   0.00   0.00   0.26   0.21   0.26   0.14   0.00   0.00   0.00   0.00   0.00   0.00   0.00      0      0      0       0       2
 1990 265    41    38    6.0      1   0.11     50     14      0     56     64      0    0.0  0.000      0      0  0.000  0.000  0.000  0.020   3.82   0.00   0.00      0      0    223.7   0.00   0.00   0.27   0.24   0.34   0.25   0.00   0.00   0.00   0.00   0.00   0.00   0.00      0      0      0       0       2
 1990 266    42    39    6.0      1   0.12     52     14      0     64     66      0    0.0  0.000      0      0  0.000  0.000  0.000  0.000   4.08   0.00   0.00      0      0    222.5   0.00   0.00   0.27   0.26   0.39   0.32   0.00   0.00   0.00   0.00   0.00   0.00   0.00      0      0      0       0       2
 1990 267    43    40    6.0      1   0.11     55     14      0     75     69      0    0.0  0.000      0      0  0.000  0.000  0.000  0.000   4.05   0.00   0.00      0      0    204.7   0.00   0.00   0.27   0.29   0.46   0.41   0.00   0.00   0.00   0.00   0.00   0.00   0.00      0      0      0       0       2
 1990 268    44    41    6.0      1   0.11     58     14      0     87     72      0    0.0  0.000      0      0  0.000  0.000  0.000  0.000   4.01   0.00   0.00      0      0    187.8   0.00   0.00   0.28   0.32   0.53   0.51   0.00   0.00   0.00   0.00   0.00   0.00   0.00      0      0      0       0       3
 1990 269    45    42    6.0      1   0.12     64     14      0    105     78      0    0.0  0.000      0      0  0.000  0.000  0.000  0.000   3.82   0.00   0.00      0      0    188.2   0.00   0.00   0.28   0.37   0.63   0.66   0.00   0.00   0.00   0.00   0.00   0.00   0.00      0      0      0       0       3
 1990 270    46    43    6.0      1   0.14     76     14      0    121     90      0    0.0  0.000      0      0  0.000  0.000  0.000  0.000   3.62   0.00   0.00      0      0    190.2   0.00   0.00   0.29   0.42   0.72   0.79   0.00   0.00   0.00   0.00   0.00   0.00   0.00      0      0      0       0       4
 1990 271    47    44    6.0      1   0.17     88     14      0    122    102      0    0.0  0.000      0      0  0.000  0.000  0.000  0.000   3.65   0.00   0.00      0      0    190.9   0.00   0.00   0.30   0.42   0.72   0.81   0.00   0.00   0.00   0.00   0.00   0.00   0.00      0      0      0       0       4
 1990 272    48    45    7.0      1   0.19    101     14      0    142    115      0    0.0  0.000      0      0  0.000  0.000  0.000  0.000   3.62   0.00   0.00      0      0    190.8   0.00   0.00   0.31   0.48   0.82   0.97   0.00   0.00   0.00   0.00   0.00   0.00   0.00      0      0      0       0       5
 1990 273    49    46    7.0      1   0.22    117     14      0    163    131      0    0.0  0.000      0      0  0.000  0.000  0.000  0.000   3.57   0.00   0.00      0      0    189.9   0.00   0.00   0.31   0.55   0.93   1.15   0.01   0.00   0.00   0.00   0.00   0.00   0.00      0      0      0       0       6
 1990 274    50    47    7.0      1   0.27    143     14      0    189    157      0    0.0  0.000      0      0  0.000  0.000  0.000  0.000   3.40   0.00   0.00      0      0    187.8   0.00   0.00   0.32   0.63   1.06   1.36   0.02   0.00   0.00   0.00   0.00   0.00   0.00      0      0      0       0       7
 1990 275    51    48    8.0      1   0.31    165     14      0    229    179      0    0.0  0.000      0      0  0.000  0.000  0.000  0.000   3.52   0.00   0.00      0      0    185.6   0.00   0.00   0.34   0.76   1.25   1.67   0.06   0.00   0.00   0.00   0.00   0.00   0.00      0      0      0       0       7
 1990 276    52    49    8.0      1   0.36    195     14      0    265    209      0    0.0  0.000      0      0  0.000  0.000  0.000  0.000   3.43   0.00   0.00      0      0    182.8   0.00   0.00   0.36   0.88   1.42   1.95   0.10   0.00   0.00   0.00   0.00   0.00   0.00      0      0      0       0       9
 1990 277    53    50    8.0      1   0.43    238     14      0    291    252      0    0.0  0.000      0      0  0.000  0.000  0.000  0.000   3.28   0.00   0.00      0      0    178.8   0.00   0.00   0.38   0.96   1.54   2.13   0.15   0.00   0.00   0.00   0.00   0.00   0.00      0      0      0       0      10
 1990 278    54    51    9.0      1   0.47    267     14      0    297    281      0    0.0  0.000      0      0  0.000  0.000  0.000  0.000   3.53   0.00   0.00      0      0    176.3   0.00   0.00   0.39   0.97   1.57   2.17   0.16   0.00   0.00   0.00   0.00   0.00   0.00      0      0      0       0      11
 1990 279    55    52    9.0      1   0.53    304     14      0    308    318      0    0.0  0.000      0      0  0.000  0.000  0.000  0.000   3.45   0.00   0.00      0      0    173.4   0.00   0.00   0.41   0.99   1.61   2.26   0.19   0.00   0.00   0.00   0.00   0.00   0.00      0      0      0       0      13
 1990 280    56    53    9.0      2   0.60    323     14      0    323    337      0    0.0  0.000      0      0  0.000  0.000  0.000  0.000   3.67   0.00   0.00      0      0    184.7   0.00   0.00   0.42   1.00   1.68   2.37   0.23   0.00   0.00   0.00   0.00   0.00   0.00      0      0      0       0      14
 1990 281    57    54    9.0      2   0.62    340     14      0    360    354      0    0.0  0.000      0      0  0.000  0.000  0.002  0.507   3.70   0.00   0.00      0      0    183.3   0.00   0.00   0.43   0.94   1.70   2.48   0.33   0.00   0.00   0.00   0.00   0.00   0.00      0      0      0       0      16
 1990 282    58    55   10.0      2   0.67    369     14      0    444    383      0    0.0  0.000      0      0  0.000  0.000  0.000  0.239   3.53   0.00   0.00      0      0    181.2   0.00   0.00   0.45   0.92   1.94   3.01   0.61   0.00   0.00   0.00   0.00   0.00   0.00      0      0      0       0      18
 1990 283    59    56   10.0      2   0.73    411     14      0    515    425      0    0.0  0.000      0      0  0.000  0.000  0.000  0.042   3.78   0.00   0.00      0      0    178.3   0.00   0.00   0.46   0.91   2.15   3.47   0.86   0.00   0.00   0.00   0.00   0.00   0.00      0      0      0       0      20
 1990 284    60    57   10.0      3   0.79    458     14      0    532    472      0    0.0  0.000      0      0  0.000  0.000  0.022  0.003   3.68   0.00   0.00      0      0    173.4   0.00   0.00   0.47   0.89   2.17   3.54   0.91   0.01   0.00   0.00   0.00   0.00   0.00      0      0      0       0      23
 1990 285    61    58   10.0      3   0.85    497     14      0    640    511      0    0.0  0.000      0      0  0.000  0.000  0.022  0.076   3.58   0.00   0.00      0      0    170.8   0.00   0.00   0.48   0.85   2.29   4.00   1.24   0.10   0.00   0.00   0.00   0.00   0.00      0      0      0       0      25
 1990 286    62    59   11.0      3   0.91    538     15      0    755    553      0    0.0  0.000      0      0  0.000  0.000  0.022  0.049   3.55   0.00   0.00      0      0    168.2   0.00   0.00   0.49   0.83   2.46   4.00   1.61   0.22   0.00   0.00   0.00   0.00   0.00      0      0      0       0      29
 1990 287    63    60   11.0      3   0.97    586     15      0    864    602      0    0.0  0.000      0      0  0.000  0.000  0.022  0.020   3.52   0.00   0.00      0      0    165.5   0.00   0.00   0.50   0.82   2.63   4.00   1.98   0.38   0.00   0.00   0.00   0.00   0.00      0      0      0       0      32
 1990 288    64    61   11.0      3   1.02    623     16      0    990    639      0    0.0  0.000      0      0  0.000  0.000  0.022  0.006   3.50   0.00   0.00      0      0    163.5   0.00   0.00   0.51   0.82   2.85   4.00   2.44   0.61   0.00   0.00   0.00   0.00   0.00      0      0      0       0      37
 1990 289    65    62   11.0      3   1.05    653     17      0   1127    670      0    0.0  0.000      0      0  0.000  0.000  0.022  0.004   3.48   0.00   0.00      0      0    160.7   0.00   0.00   0.52   0.83   3.11   4.00   2.97   0.89   0.00   0.00   0.00   0.00   0.00      0      0      0       0      42
 1990 290    66    63   11.0      3   1.11    697     19      0   1192    715      0    0.0  0.000      0      0  0.000  0.000  0.022  0.003   3.46   0.00   0.00      0      0    158.7   0.00   0.00   0.53   0.84   3.21   4.00   3.23   1.05   0.00   0.00   0.00   0.00   0.00      0      0      0       0      47
 1990 291    67    64   12.0      3   1.22    782     23      0   1296    805      0    0.0  0.000      0      0  0.000  0.000  0.022  0.000   3.43   0.00   0.00      0      0    155.5   0.00   0.00   0.54   0.85   3.40   4.00   3.64   1.35   0.00   0.00   0.00   0.00   0.00      0      0      0       0      53
 1990 292    68    65   12.0      3   1.33    871     30      0   1357    901      0    0.0  0.000      0      0  0.000  0.000  0.022  0.000   3.40   0.00   0.00      0      0    152.5   0.00   0.00   0.56   0.86   3.50   4.00   3.89   1.57   0.00   0.00   0.00   0.00   0.00      0      0      0       0      60
 1990 293    69    66   12.0      3   1.44    963     39      0   1414   1001      0    0.0  0.000      0      0  0.000  0.000  0.022  0.000   3.36   0.00   0.00      0      0    149.7   0.00   0.00   0.57   0.87   3.58   4.00   4.00   1.82   0.00   0.00   0.00   0.00   0.00      0      0      0       0      66
 1990 294    70    67   12.0      3   1.55   1052     49      0   1520   1101      0    0.0  0.000      0      0  0.000  0.000  0.022  0.000   3.33   0.00   0.00      0      0    147.3   0.00   0.00   0.59   0.88   3.69   4.00   4.00   2.34   0.00   0.00   0.00   0.00   0.00      0      0      0       0      73
 1990 295    71    68   13.0      3   1.65   1141     63      0   1666   1204      0    0.0  0.000      0      0  0.000  0.000  0.022  0.000   3.29   0.00   0.00      0      0    145.0   0.00   0.00   0.60   0.92   3.76   4.00   4.00   3.22   0.00   0.00   0.00   0.00   0.00      0      0      0       0      81
 1990 296    72    69   13.0      3   1.76   1235     80      0   1766   1315      0    0.0  0.000      0      0  0.000  0.000  0.022  0.000   3.26   0.00   0.00      0      0    142.8   0.00   0.00   0.61   0.95   3.78   4.00   4.00   3.98   0.00   0.00   0.00   0.00   0.00      0      0      0       0      89
 1990 297    73    70   13.0      3   1.86   1319     98      0   1873   1416      0    0.0  0.000      0      0  0.000  0.000  0.022  0.000   3.21   0.00   0.00      0      0    141.0   0.00   0.00   0.62   0.98   3.77   3.99   4.00   4.00   0.07   0.00   0.00   0.00   0.00      0      0      0       0      98
 1990 298    74    71   14.0      3   1.96   1406    120      0   1926   1525      0    0.0  0.000      0      0  0.000  0.000  0.022  0.001   3.19   0.00   0.00      0      0    139.1   0.00   0.00   0.64   0.99   3.74   3.96   4.00   4.00   0.14   0.00   0.00   0.00   0.00      0      0      0       0     108
 1990 299    75    72   14.0      3   2.09   1524    155      0   2050   1679      0    0.0  0.000      0      0  0.000  0.000  0.022  0.001   3.15   0.00   0.00      0      0    137.0   0.00   0.00   0.65   1.04   3.76   3.97   4.00   4.00   0.35   0.00   0.00   0.00   0.00      0      0      0       0     117
 1990 300    76    73   14.0      3   2.23   1652    200      0   2121   1853      0    0.0  0.000      0      0  0.000  0.000  0.022  0.002   3.11   0.00   0.00      0      0    134.9   0.00   0.00   0.67   1.07   3.76   3.97   4.00   4.00   0.53   0.00   0.00   0.00   0.00      0      0      0       0     127
 1990 301    77    74   15.0      3   2.33   1750    241      0   2118   1991      0    0.0  0.000      0      0  0.000  0.000  0.022  0.002   3.08   0.00   0.00      0      0    133.3   0.00   0.00   0.68   1.07   3.73   3.94   3.98   4.00   0.54   0.00   0.00   0.00   0.00      0      0      0       0     138
 1990 302    78    75   15.0      3   2.47   1881    305      0   2118   2186      0    0.0  0.000      0      0  0.000  0.000  0.022  0.001   3.04   0.00   0.00      0      0    131.4   0.00   0.00   0.70   1.06   3.71   3.92   3.98   4.00   0.57   0.00   0.00   0.00   0.00      0      0      0       0     149
 1990 303    79    76   15.0      3   2.62   2022    384      0   2236   2405      0    0.0  0.000      0      0  0.000  0.000  0.022  0.000   2.89   0.00   0.00      0      0    129.5   0.00   0.00   0.72   1.14   3.78   3.98   4.00   4.00   1.03   0.00   0.00   0.00   0.00      0      0      0       0     159
 1990 304    80    77   16.0      3   2.73   2128    450      0   2382   2579      0    0.0  0.000      0      0  0.000  0.000  0.022  0.020   2.80   0.00   0.00      0      0    128.1   0.00   0.00   0.73   1.24   3.87   4.00   4.00   4.00   1.64   0.00   0.00   0.00   0.00      0      0      0       0     170
 1990 305    81    78   16.0      3   2.84   2244    531      0   2486   2775      0    0.0  0.000      0      0  0.000  0.000  0.022  0.000   2.71   0.00   0.00      0      0    126.7   0.00   0.00   0.74   1.34   3.95   4.00   4.00   4.00   2.14   0.00   0.00   0.00   0.00      0      0      0       0     182
 1990 306    82    79   16.0      3   2.96   2364    623      0   2556   2987      0    0.0  0.000      0      0  0.000  0.000  0.022  0.000   2.60   0.00   0.00      0      0    125.3   0.00   0.00   0.76   1.41   4.00   4.00   4.00   4.00   2.50   0.00   0.00   0.00   0.00      0      0      0       0     195
 1990 307    83    80   17.0      3   3.07   2471    717      0   2555   3187      0    0.0  0.000      0      0  0.000  0.000  0.024  0.000   2.51   0.00   0.00      0      0    124.1   0.00   0.00   0.78   1.42   3.99   3.99   3.98   3.99   2.54   0.00   0.00   0.00   0.00      0      0      0       0     208
 1990 308    84    81   17.0      3   3.14   2551    792      0   2663   3343      0    0.0  0.000      0      0  0.000  0.000  0.028  0.000   2.44   0.00   0.00      0      0    123.0   0.00   0.00   0.79   1.57   4.00   4.00   4.00   4.00   3.09   0.00   0.00   0.00   0.00      0      0      0       0     220
 1990 309    85    82   17.0      3   3.17   2597    837      0   2868   3434      0    0.0  0.000      0      0  0.000  0.000  0.033  0.000   2.41   0.00   0.00      0      0    122.2   0.00   0.00   0.79   1.90   4.00   4.00   4.00   4.00   4.00   0.00   0.00   0.00   0.00      0      0      0       0     234
 1990 310    86    83   17.0      3   3.23   2667    908      0   2947   3575      0    0.0  0.000      0      0  0.000  0.000  0.037  0.045   2.35   0.00   0.00      0      0    121.1   0.00   0.00   0.80   2.06   4.00   4.00   4.00   4.00   4.00   0.00   0.00   0.00   0.00      0      0      0       0     248
 1990 311    87    84   18.0      3   3.32   2766   1015      0   3051   3781      0    0.0  0.000      0      0  0.000  0.000  0.037  0.016   2.25   0.00   0.00      0      0    119.9   0.00   0.00   0.81   2.29   4.00   4.00   4.00   4.00   4.00   0.00   0.00   0.00   0.00      0      0      0       0     263
 1990 312    88    85   18.0      3   3.37   2829   1089      0   3047   3918      0    0.0  0.000      0      0  0.000  0.000  0.040  0.016   2.20   0.00   0.00      0      0    118.9   0.00   0.00   0.82   2.31   4.00   4.00   3.99   3.99   4.00   0.00   0.00   0.00   0.00      0      0      0       0     278
 1990 313    89    86   18.0      3   3.45   2928   1210      0   3075   4138      0    0.0  0.000      0      0  0.000  0.000  0.046  0.002   2.11   0.00   0.00      0      0    117.7   0.00   0.00   0.83   2.42   4.00   4.00   4.00   4.00   4.00   0.00   0.00   0.00   0.00      0      0      0       0     293
 1990 314    90    87   18.0      3   3.67   3171   1328      0   3079   4499      0    0.0  0.000      0      0  0.000  0.000  0.049  0.000   1.96   0.00   0.00      0      0    115.6   0.00   0.00   0.85   2.48   4.00   4.00   4.00   4.00   4.00   0.00   0.00   0.00   0.00      0      0      0       0     309
 1990 315    91    88   19.0      3   3.82   3356   1518      0   3100   4875      0    0.0  0.000      0      0  0.000  0.000  0.055  0.000   1.82   0.00   0.00      0      0    113.9   0.00   0.00   0.86   2.61   4.00   4.00   4.00   4.00   4.00   0.00   0.00   0.00   0.00      0      0      0       0     324
 1990 316    92    89   19.0      3   3.88   3445   1636      0   3096   5081      0    0.0  0.000      0      0  0.000  0.000  0.068  0.000   1.76   0.00   0.00      0      0    112.6   0.00   0.00   0.87   2.64   4.00   4.00   4.00   4.00   3.99   0.00   0.00   0.00   0.00      0      0      0       0     340
 1990 317    93    90   19.0      3   3.98   3593   1885      0   3131   5477      0    0.0  0.000      0      0  0.000  0.000  0.080  0.000   1.65   0.00   0.00      0      0    110.8   0.00   0.00   0.89   2.82   4.00   4.00   4.00   4.00   4.00   0.00   0.00   0.00   0.00      0      0      0       0     355
 1990 318    94    91   20.0      3   4.03   3682   2061      0   3130   5743      0    0.0  0.000      0      0  0.000  0.000  0.084  0.000   1.58   0.00   0.00      0      0    109.3   0.00   0.00   0.92   2.86   4.00   4.00   4.00   4.00   4.00   0.00   0.00   0.00   0.00      0      0      0       0     371
 1990 319    95    92   20.0      3   4.02   3726   2158      0   3122   5884      0    0.0  0.000      0      0  0.000  0.000  0.099  0.000   1.56   0.00   0.00      0      0    107.8   0.00   0.00   0.93   2.86   4.00   4.00   3.99   3.99   3.98   0.03   0.00   0.00   0.00      0      0      0       0     386
 1990 320    96    93   20.0      3   4.01   3775   2270      0   3186   6045      0    0.0  0.000      0      0  0.000  0.000  0.107  0.000   1.53   0.00   0.00      0      0    106.2   0.00   0.00   0.94   3.00   4.00   4.00   4.00   4.00   3.99   0.39   0.00   0.00   0.00      0      0      0       0     402
 1990 321    97    94   21.0      3   4.00   3824   2388      0   3346   6213      0    0.0  0.000      0      0  0.000  0.000  0.109  0.000   1.51   0.00   0.00      0      0    104.7   0.00   0.00   0.95   3.34   4.00   4.00   4.00   4.00   4.00   1.26   0.00   0.00   0.00      0      0      0       0     418
 1990 322    98    95   21.0      3   4.02   3896   2573      0   3453   6470      0    0.0  0.000      0      0  0.000  0.000  0.107  0.022   1.48   0.00   0.00      0      0    103.1   0.00   0.00   0.96   3.56   4.00   4.00   4.00   4.00   4.00   1.92   0.00   0.00   0.00      0      0      0       0     435
 1990 323    99    96   22.0      3   4.05   3984   2816      0   3517   6800      0    0.0  0.000      0      0  0.000  0.000  0.104  0.000   1.43   0.00   0.00      0      0    101.6   0.00   0.00   0.98   3.68   4.00   4.00   4.00   4.00   4.00   2.38   0.00   0.00   0.00      0      0      0       0     452
 1990 324   100    97   22.0      3   4.04   4037   2962      0   3510   6999      0    0.0  0.000      0      0  0.000  0.000  0.107  0.000   1.41   0.00   0.00      0      0    100.2   0.00   0.00   0.99   3.68   4.00   4.00   3.99   3.99   3.99   2.43   0.00   0.00   0.00      0      0      0       0     469
 1990 325   101    98   22.0      3   4.05   4105   3151      0   3641   7256      0    0.0  0.000      0      0  0.000  0.000  0.114  0.000   1.38   0.00   0.00      0      0     98.6   0.00   0.00   1.01   3.92   4.00   4.00   4.00   4.00   4.00   3.30   0.00   0.00   0.00      0      0      0       0     487
 1990 326   102    99   22.0      3   4.05   4164   3314      0   3764   7478      0    0.0  0.000      0      0  0.000  0.000  0.115  0.000   1.36   0.00   0.00      0      0     97.2   0.00   0.00   1.02   4.00   4.00   4.00   4.00   4.00   4.00   4.00   0.00   0.00   0.00      0      0      0       0     505
 1990 327   103   100   22.0      3   4.04   4221   3468      0   3906   7689      0    0.0  0.000      0      0  0.000  0.000  0.120  0.000   1.33   0.00   0.00      0      0     95.7   0.00   0.00   1.04   4.00   4.00   4.00   4.00   4.00   4.00   4.00   0.00   0.00   0.00      0      0      0       0     524
 1990 328   104   101   22.0      3   4.03   4283   3640      0   3998   7923      0    0.0  0.000      0      0  0.000  0.000  0.122  0.000   1.31   0.00   0.00      0      0     94.2   0.00   0.00   1.05   4.00   4.00   4.00   4.00   4.00   4.00   4.00   0.00   0.00   0.00      0      0      0       0     544
 1990 329   105   102   22.0      3   4.03   4350   3822      0   4033   8171      0    0.0  0.000      0      0  0.000  0.000  0.124  0.000   1.28   0.00   0.00      0      0     92.7   0.00   0.00   1.06   4.00   4.00   4.00   4.00   4.00   4.00   4.00   0.00   0.00   0.00      0      0      0       0     564
 1990 330   106   103   22.0      4   3.97   4305   3235      0   4125   8309      0    0.0  0.000    768      0  0.000  0.000  0.127  0.000   1.40   0.00   0.09      0    768     92.2   0.00   0.00   1.08   4.00   4.00   4.00   4.00   4.00   4.00   4.00   0.00   0.00   0.00      0      0      0       0     584
 1990 331   107   104   22.0      4   3.90   4260   3267      0   4318   8373      0    0.0  0.000    847      0  0.000  0.000  0.131  0.000   1.41   0.00   0.10      0    847     91.7   0.00   0.00   1.08   4.00   4.00   4.00   4.00   4.00   4.00   4.00   0.00   0.00   0.00      0      0      0       0     604
 1990 332   108   105   22.0      4   3.86   4212   3307      0   4507   8467      0    0.0  0.000    948      0  0.000  0.000  0.101  0.000   1.43   0.00   0.11      0    948     91.5   0.00   0.00   1.09   4.00   4.00   4.00   4.00   4.00   4.00   4.00   0.10   0.00   0.00      0      0      0       0     626
 1990 333   109   106   22.0      4   3.81   4162   3362      0   4672   8609      0    0.0  0.000   1085      0  0.000  0.000  0.094  0.000   1.44   0.00   0.13      0   1085     91.5   0.00   0.00   1.10   4.00   4.00   4.00   4.00   4.00   4.00   4.00   0.27   0.00   0.00      0      0      0       0     648
 1990 334   110   107   22.0      4   3.77   4109   3424      0   4678   8772      0    0.0  0.000   1240      0  0.000  0.000  0.088  0.000   1.45   0.00   0.14      0   1240     91.7   0.00   0.00   1.11   4.00   4.00   4.00   4.00   4.00   4.00   4.00   0.31   0.00   0.00      0      0      0       0     672
 1990 335   111   108   22.0      4   3.73   4053   3485      0   4764   8931      0    0.0  0.000   1393      0  0.000  0.000  0.082  0.000   1.46   0.00   0.16      0   1393     92.0   0.00   0.00   1.12   4.00   4.00   4.00   4.00   4.00   4.00   4.00   0.51   0.00   0.00      0      0      0       0     695
 1990 336   112   109   22.0      4   3.69   3995   3529      0   4747   9028      0    0.0  0.000   1503      0  0.000  0.000  0.077  0.000   1.47   0.00   0.17      0   1503     92.4   0.00   0.00   1.12   4.00   4.00   4.00   3.99   3.99   3.99   3.98   0.52   0.00   0.00      0      0      0       0     719
 1990 337   113   110   22.0      4   3.66   3935   3575      0   4924   9129      0    0.0  0.000   1618      0  0.000  0.000  0.073  0.000   1.49   0.00   0.18      0   1618     93.0   0.00   0.00   1.13   4.00   4.00   4.00   4.00   4.00   4.00   4.00   0.97   0.00   0.00      0      0      0       0     743
 1990 338   114   111   22.0      4   3.63   3873   3633      0   5067   9268      0    0.0  0.000   1762      0  0.000  0.000  0.068  0.000   1.50   0.00   0.19      0   1762     93.7   0.00   0.00   1.14   4.00   4.00   4.00   4.00   4.00   4.00   4.00   1.36   0.00   0.00      0      0      0       0     767
 1990 339   115   112   22.0      4   3.60   3807   3716      0   5054   9493      0    0.0  0.000   1970      0  0.000  0.000  0.062  0.000   1.50   0.00   0.21      0   1970     94.6   0.00   0.00   1.15   4.00   4.00   4.00   3.99   3.99   3.99   3.99   1.39   0.00   0.00      0      0      0       0     793
 1990 340   116   113   22.0      4   3.57   3738   3788      0   5063   9675      0    0.0  0.000   2149      0  0.000  0.000  0.057  0.000   1.51   0.00   0.22      0   2149     95.6   0.00   0.00   1.16   4.00   4.00   4.00   4.00   4.00   4.00   3.99   1.47   0.00   0.00      0      0      0       0     818
 1990 341   117   114   22.0      4   3.55   3666   3855      0   5175   9838      0    0.0  0.000   2317      0  0.000  0.000  0.053  0.000   1.52   0.00   0.24      0   2317     96.9   0.00   0.00   1.17   4.00   4.00   4.00   4.00   4.00   4.00   3.98   1.81   0.00   0.00      0      0      0       0     843
 1990 342   118   115   22.0      4   3.53   3592   3912      0   5338   9963      0    0.0  0.000   2459      0  0.000  0.000  0.050  0.073   1.53   0.00   0.25      0   2459     98.2   0.00   0.00   1.17   4.00   4.00   4.00   4.00   4.00   4.00   4.00   2.24   0.00   0.00      0      0      0       0     869
 1990 343   119   116   22.0      4   3.51   3517   3957      0   5318  10044      0    0.0  0.000   2571      0  0.000  0.000  0.048  0.103   1.54   0.00   0.26      0   2571     99.7   0.00   0.00   1.18   4.00   4.00   4.00   3.99   3.99   3.99   3.98   2.24   0.00   0.00      0      0      0       0     896
 1990 344   120   117   22.0      4   3.49   3439   3986      0   5327  10069      0    0.0  0.000   2644      0  0.000  0.000  0.044  0.512   1.55   0.00   0.26      0   2644    101.4   0.00   0.00   1.19   3.89   3.89   3.89   3.82   3.81   3.80   3.79   2.15   0.00   0.00      0      0      0       0     922
 1990 345   121   118   22.0      5   3.46   3439   3986    202   5365  10270   3430    5.9  0.020   2846      7  0.000  0.000  0.072  0.262   1.52   7.09   0.28      0   2846    100.5   0.00   0.00   1.20   4.00   4.00   4.00   3.85   3.83   3.81   3.78   2.15   0.00   0.00      0      0      0       0     949
 1990 346   122   119   22.0      5   3.42   3439   3986    328   5373  10397   3430    9.6  0.032   2973      7  0.000  0.000  0.081  0.129   1.50  11.05   0.29      0   2973     99.5   0.00   0.00   1.20   4.00   4.00   4.00   3.88   3.86   3.83   3.79   2.15   0.00   0.00      0      0      0       0     976
 1990 347   123   120   22.0      5   3.39   3439   3986    516   5387  10584   3430   15.0  0.049   3160      7  0.000  0.000  0.081  0.044   1.47  16.32   0.30      0   3160     98.5   0.00   0.00   1.21   4.00   4.00   4.00   3.92   3.89   3.85   3.80   2.15   0.00   0.00      0      0      0       0    1003
 1990 348   124   121   22.0      5   3.35   3439   3986    639   5461  10708   3430   18.6  0.060   3283      7  0.000  0.000  0.087  0.003   1.45  19.46   0.31      0   3283     97.4   0.00   0.00   1.21   4.00   4.00   4.00   4.00   4.00   3.94   3.86   2.17   0.00   0.00      0      0      0       0    1030
 1990 349   125   122   22.0      5   3.31   3439   3986    825   5531  10894   3430   24.1  0.076   3469      7  0.000  0.000  0.087  0.000   1.42  23.78   0.32      0   3469     96.4   0.00   0.00   1.22   4.00   4.00   4.00   4.00   4.00   4.00   3.92   2.19   0.00   0.00      0      0      0       0    1057
 1990 350   126   123   22.0      5   3.28   3439   3986   1071   5572  11140   3430   31.2  0.096   3715      7  0.000  0.000  0.090  0.000   1.38  28.83   0.33      0   3715     95.3   0.00   0.00   1.23   4.00   4.00   4.00   4.00   4.00   4.00   3.95   2.20   0.00   0.00      0      0      0       0    1085
 1990 351   127   124   22.0      5   3.24   3439   3986   1328   5544  11397   3430   38.7  0.117   3972      7  0.000  0.000  0.095  0.000   1.34  33.44   0.35      0   3972     94.2   0.00   0.00   1.24   3.98   3.98   3.98   3.98   3.98   3.98   3.93   2.19   0.00   0.00      0      0      0       0    1112
 1990 352   128   125   22.0      5   3.20   3439   3986   1564   5578  11632   3430   45.6  0.134   4208      7  0.000  0.000  0.102  0.000   1.30  37.16   0.36      0   4208     93.0   0.00   0.00   1.25   4.00   4.00   4.00   4.00   4.00   4.00   3.96   2.21   0.00   0.00      0      0      0       0    1140
 1990 353   129   126   22.0      5   3.15   3439   3986   1769   5637  11837   3430   51.6  0.149   4413      7  0.000  0.000  0.109  0.000   1.27  40.08   0.37      0   4413     91.7   0.00   0.00   1.25   4.00   4.00   4.00   4.00   4.00   4.00   4.00   2.23   0.00   0.00      0      0      0       0    1168
 1990 354   130   127   22.0      5   3.11   3439   3986   1985   5692  12054   3430   57.9  0.165   4629      7  0.000  0.000  0.115  0.019   1.23  42.88   0.38      0   4629     90.4   0.00   0.00   1.25   4.00   4.00   4.00   4.00   4.00   4.00   4.00   2.25   0.00   0.00      0      0      0       0    1196
 1990 355   131   128   22.0      5   3.06   3439   3986   2242   5709  12311   3430   65.4  0.182   4886      7  0.000  0.000  0.119  0.000   1.20  45.89   0.40      0   4886     89.0   0.00   0.00   1.25   4.00   4.00   4.00   4.00   4.00   4.00   4.00   2.26   0.00   0.00      0      0      0       0    1225
 1990 356   132   129   22.0      5   3.01   3439   3902   2496   5681  12481   3430   72.8  0.200   5141      7  0.000  0.000  0.126  0.075   1.17  48.56   0.41      0   5141     87.6   0.00   0.00   1.25   4.00   4.00   4.00   4.00   4.00   4.00   4.00   2.26   0.00   0.00      0      0      0       0    1253
 1990 357   133   130   22.0      5   2.96   3439   3937   2754   5670  12774   3430   80.3  0.216   5398      7  0.000  0.000  0.134  0.048   1.13  51.01   0.42      0   5398     86.2   0.00   0.00   1.25   4.00   4.00   4.00   4.00   4.00   4.00   3.99   2.25   0.00   0.00      0      0      0       0    1282
 1990 358   134   131   22.0      5   2.91   3439   3945   2958   5645  12985   3430   86.2  0.228   5602      7  0.000  0.000  0.139  0.340   1.09  52.80   0.43      0   5602     84.7   0.00   0.00   1.25   3.99   3.99   3.99   3.98   3.98   3.98   3.97   2.24   0.00   0.00      0      0      0       0    1310
 1990 359   135   132   22.0      5   2.86   3439   3986   3146   5691  13215   3430   91.7  0.238   5790      7  0.000  0.000  0.148  0.151   1.06  54.33   0.44      0   5790     83.1   0.00   0.00   1.25   4.00   4.00   4.00   4.00   4.00   4.00   4.00   2.26   0.00   0.00      0      0      0       0    1338
 1990 360   136   133   22.0      5   2.80   3439   3986   3403   5726  13472   3430   99.2  0.253   6047      7  0.000  0.000  0.152  0.048   1.03  56.28   0.45      0   6047     81.5   0.00   0.00   1.25   4.00   4.00   4.00   4.00   4.00   4.00   4.00   2.28   0.00   0.00      0      0      0       0    1367
 1990 361   137   134   22.0      5   2.75   3439   3986   3660   5759  13729   3430  106.7  0.267   6305      7  0.000  0.000  0.161  0.006   1.00  58.06   0.46      0   6305     79.9   0.00   0.00   1.25   4.00   4.00   4.00   4.00   4.00   4.00   4.00   2.29   0.00   0.00      0      0      0       0    1395
 1990 362   138   135   22.0      5   2.69   3439   3986   3806   5818  13874   3430  110.9  0.274   6450      7  0.000  0.000  0.171  0.000   0.98  59.01   0.46      0   6450     78.2   0.00   0.00   1.25   4.00   4.00   4.00   4.00   4.00   4.00   4.00   2.31   0.00   0.00      0      0      0       0    1424
 1990 363   139   136   22.0      5   2.63   3439   3986   3934   5872  14003   3430  114.7  0.281   6579      7  0.000  0.000  0.173  0.000   0.97  59.81   0.47      0   6579     76.5   0.00   0.00   1.25   4.00   4.00   4.00   4.00   4.00   4.00   4.00   2.33   0.00   0.00      0      0      0       0    1453
 1990 364   140   137   22.0      5   2.57   3439   3986   4125   5915  14193   3430  120.2  0.291   6769      7  0.000  0.000  0.174  0.000   0.95  60.94   0.48      0   6769     74.8   0.00   0.00   1.25   4.00   4.00   4.00   4.00   4.00   4.00   4.00   2.35   0.00   0.00      0      0      0       0    1483
 1990 365   141   138   22.0      5   2.52   3439   3986   4374   5944  14442   3430  127.5  0.303   7018      7  0.000  0.000  0.178  0.000   0.92  62.32   0.49      0   7018     73.2   0.00   0.00   1.25   4.00   4.00   4.00   4.00   4.00   4.00   4.00   2.36   0.00   0.00      0      0      0       0    1512
 1991 001   142   139   22.0      5   2.46   3439   3986   4631   5942  14700   3430  135.0  0.315   7275      7  0.000  0.000  0.186  0.000   0.89  63.66   0.49      0   7275     71.5   0.00   0.00   1.25   4.00   4.00   4.00   4.00   4.00   4.00   4.00   2.36   0.00   0.00      0      0      0       0    1542
 1991 002   143   140   22.0      5   2.40   3439   3986   4888   5938  14957   3430  142.5  0.327   7532      7  0.000  0.000  0.194  0.000   0.86  64.90   0.50      0   7532     69.7   0.00   0.00   1.25   4.00   4.00   4.00   4.00   4.00   4.00   4.00   2.36   0.00   0.00      0      0      0       0    1572
 1991 003   144   141   22.0      5   2.34   3439   3986   5146   5941  15214   3430  150.0  0.338   7790      7  0.000  0.000  0.208  0.000   0.83  66.06   0.51      0   7790     68.0   0.00   0.00   1.25   4.00   4.00   4.00   4.00   4.00   4.00   4.00   2.36   0.00   0.00      0      0      0       0    1601
 1991 004   145   142   22.0      5   2.28   3439   3986   5371   5963  15440   3430  156.6  0.348   8016      7  0.000  0.000  0.237  0.000   0.81  67.01   0.52      0   8016     66.2   0.00   0.00   1.25   4.00   4.00   4.00   4.00   4.00   4.00   4.00   2.37   0.00   0.00      0      0      0       0    1631
 1991 005   146   143   22.0      5   2.21   3439   3986   5597   5982  15666   3430  163.2  0.357   8242      7  0.000  0.000  0.259  0.000   0.78  67.92   0.53      0   8242     64.3   0.00   0.00   1.25   4.00   4.00   4.00   4.00   4.00   4.00   4.00   2.38   0.00   0.00      0      0      0       0    1661
 1991 006   147   144   22.0      5   2.15   3439   3986   5836   5993  15904   3430  170.1  0.367   8480      7  0.000  0.000  0.281  0.000   0.76  68.82   0.53      0   8480     62.5   0.00   0.00   1.25   4.00   4.00   4.00   4.00   4.00   4.00   4.00   2.38   0.00   0.00      0      0      0       0    1691
 1991 007   148   145   22.0      5   2.09   3439   3986   6093   5990  16162   3430  177.6  0.377   8737      7  0.000  0.000  0.304  0.000   0.73  69.74   0.54      0   8737     60.7   0.00   0.00   1.25   4.00   4.00   4.00   4.00   4.00   4.00   4.00   2.38   0.00   0.00      0      0      0       0    1721
 1991 008   149   146   22.0      5   2.02   3439   3986   6350   5983  16419   3430  185.1  0.387   8995      7  0.000  0.000  0.329  0.000   0.71  70.60   0.55      0   8995     58.8   0.00   0.00   1.25   4.00   4.00   4.00   4.00   4.00   4.00   4.00   2.37   0.00   0.00      0      0      0       0    1751
 1991 009   150   147   22.0      5   1.96   3439   3838   6608   5953  16529   3430  192.6  0.400   9252      7  0.000  0.000  0.360  0.000   0.70  71.42   0.56      0   9252     57.0   0.00   0.00   1.25   4.00   4.00   4.00   4.00   4.00   4.00   4.00   2.37   0.00   0.00      0      0      0       0    1781
 1991 010   151   148   22.0      5   1.89   3439   3855   6865   5932  16803   3430  200.1  0.409   9509      7  0.000  0.000  0.390  0.013   0.67  72.19   0.57      0   9509     55.1   0.00   0.00   1.25   4.00   4.00   4.00   3.99   3.99   3.99   3.98   2.37   0.00   0.00      0      0      0       0    1810
 1991 011   152   149   22.0      5   1.83   3439   3862   7109   5906  17054   3430  207.2  0.417   9753      7  0.000  0.000  0.393  0.000   0.65  72.89   0.57      0   9753     53.3   0.00   0.00   1.25   3.99   3.99   3.99   3.98   3.97   3.97   3.97   2.35   0.00   0.00      0      0      0       0    1840
 1991 012   153   150   22.0      5   1.77   3439   3904   7307   5897  17294   3430  213.0  0.423   9951      7  0.000  0.000  0.426  0.000   0.63  73.43   0.58      0   9951     51.4   0.00   0.00   1.25   4.00   4.00   4.00   3.99   3.98   3.97   3.96   2.35   0.00   0.00      0      0      0       0    1870
 1991 013   154   151   22.0      5   1.71   3439   3876   7511   5868  17470   3430  219.0  0.430  10155      7  0.000  0.000  0.445  0.000   0.62  73.96   0.58      0  10155     49.6   0.00   0.00   1.25   4.00   4.00   4.00   3.99   3.98   3.97   3.96   2.35   0.00   0.00      0      0      0       0    1899
 1991 014   155   152   22.0      5   1.64   3439   3890   7743   5846  17717   3430  225.7  0.437  10388      7  0.000  0.000  0.471  0.000   0.60  74.55   0.59      0  10388     47.8   0.00   0.00   1.25   4.00   4.00   4.00   3.98   3.97   3.96   3.95   2.34   0.00   0.00      0      0      0       0    1928
 1991 015   156   153   22.0      5   1.58   3439   3875   8001   5816  17959   3430  233.2  0.446  10645      7  0.000  0.000  0.491  0.000   0.59  75.16   0.59      0  10645     46.1   0.00   0.00   1.25   4.00   4.00   4.00   3.98   3.97   3.96   3.95   2.34   0.00   0.00      0      0      0       0    1958
 1991 016   157   154   22.0      5   1.52   3439   3878   8159   5789  18120   3430  237.8  0.450  10803      7  0.000  0.000  0.526  0.000   0.58  75.52   0.60      0  10803     44.3   0.00   0.00   1.25   3.98   3.98   3.98   3.96   3.95   3.94   3.93   2.33   0.00   0.00      0      0      0       0    1987
 1991 017   158   155   22.0      5   1.46   3439   3928   8275   5785  18286   3430  241.2  0.453  10919      7  0.000  0.000  0.537  0.000   0.57  75.78   0.60      0  10919     42.6   0.00   0.00   1.25   4.00   4.00   4.00   3.97   3.97   3.95   3.93   2.33   0.00   0.00      0      0      0       0    2016
 1991 018   159   156   22.0      5   1.41   3439   3939   8466   5761  18488   3430  246.8  0.458  11110      7  0.000  0.000  0.541  0.000   0.56  76.20   0.60      0  11110     40.9   0.00   0.00   1.25   4.00   4.00   4.00   3.96   3.95   3.93   3.91   2.32   0.00   0.00      0      0      0       0    2045
 1991 019   160   157   22.0      5   1.35   3439   3895   8686   5732  18664   3430  253.2  0.465  11330      7  0.000  0.000  0.570  0.000   0.55  76.66   0.61      0  11330     39.2   0.00   0.00   1.25   4.00   4.00   4.00   3.96   3.95   3.93   3.91   2.32   0.00   0.00      0      0      0       0    2073
 1991 020   161   158   22.0      5   1.29   3439   3780   8931   5704  18794   3430  260.3  0.475  11575      7  0.000  0.000  0.593  0.000   0.54  77.16   0.62      0  11575     37.6   0.00   0.00   1.25   4.00   4.00   4.00   3.96   3.95   3.93   3.91   2.32   0.00   0.00      0      0      0       0    2102
 1991 021   162   159   22.0      5   1.29   3439   3780   8931   5704  18794   3430  260.3  0.475  11575      7  0.000  0.000  0.593  0.000   0.54  77.16   0.62      0  11575     37.6   0.00   0.00   1.25   4.00   4.00   4.00   3.96   3.95   3.93   3.91   2.32   0.00   0.00      0      0      0       0    2102
 1991 022   163   160   22.0      5   1.29   3439   3780   8931   5704  18794   3430  260.3  0.475  11575      7  0.000  0.000  0.593  0.000   0.54  77.16   0.62      0  11575     37.6   0.00   0.00   1.25   4.00   4.00   4.00   3.96   3.95   3.93   3.91   2.32   0.00   0.00      0      0      0       0    2102
 1991 023   164   161   22.0      5   1.29   3439   3780   8931   5704  18794   3430  260.3  0.475  11575      7  0.000  0.000  0.593  0.000   0.54  77.16   0.62      0  11575     37.6   0.00   0.00   1.25   4.00   4.00   4.00   3.96   3.95   3.93   3.91   2.32   0.00   0.00      0      0      0       0    2102
 1991 024   165   162   22.0      5   1.29   3439   3780   8931   5704  18794   3430  260.3  0.475  11575      7  0.000  0.000  0.593  0.000   0.54  77.16   0.62      0  11575     37.6   0.00   0.00   1.25   4.00   4.00   4.00   3.96   3.95   3.93   3.91   2.32   0.00   0.00      0      0      0       0    2102

*DSSAT Cropping System Model Ver. 4.0.2.000               Aug 15, 2016; 16:05:16

*RUN   2        : UYMZ                    
 MODEL          : MZCER040 - Maize           
 EXPERIMENT     : UYMZ0209 MZ    late to create DSS                             
 TREATMENT  1   : UYMZ                    

@YEAR DOY   DAS   DAP   L#SD   GSTD   LAID   LWAD   SWAD   GWAD   RWAD   CWAD   G#AD   GWGD   HIAD   PWAD   P#AD   WSPD   WSGD   NSTD   EWSD   LN%D   SH%D   HIPD   PWDD   PWTD     SLAD   CHTD   CWID   RDPD   RL1D   RL2D   RL3D   RL4D   RL5D   RL6D   RL7D   RL8D   RL9D   RL10   CDAD   LDAD   SDAD   SNW0C   SNW1C
 1991 227     3     0    0.0      0   0.00      0      0      0      0      0      0    0.0  0.000      0      0  0.000  0.000  0.000  0.000   0.00   0.00   0.00      0      0      0.0   0.00   0.00   0.03   0.00   0.00   0.00   0.00   0.00   0.00   0.00   0.00   0.00   0.00      0      0      0       0       0
 1991 228     4     1    0.0      0   0.00      0      0      0      0      0      0    0.0  0.000      0      0  0.000  0.000  0.000  0.000   0.00   0.00   0.00      0      0      0.0   0.00   0.00   0.05   0.00   0.00   0.00   0.00   0.00   0.00   0.00   0.00   0.00   0.00      0      0      0       0       0
 1991 229     5     2    0.0      0   0.00      0      0      0      0      0      0    0.0  0.000      0      0  0.000  0.000  0.000  0.000   0.00   0.00   0.00      0      0      0.0   0.00   0.00   0.06   0.00   0.00   0.00   0.00   0.00   0.00   0.00   0.00   0.00   0.00      0      0      0       0       0
 1991 230     6     3    0.0      0   0.00      0      0      0      0      0      0    0.0  0.000      0      0  0.000  0.000  0.000  0.000   0.00   0.00   0.00      0      0      0.0   0.00   0.00   0.08   0.00   0.00   0.00   0.00   0.00   0.00   0.00   0.00   0.00   0.00      0      0      0       0       0
 1991 231     7     4    0.0      0   0.00      0      0      0      0      0      0    0.0  0.000      0      0  0.000  0.000  0.000  0.000   0.00   0.00   0.00      0      0      0.0   0.00   0.00   0.09   0.00   0.00   0.00   0.00   0.00   0.00   0.00   0.00   0.00   0.00      0      0      0       0       0
 1991 232     8     5    0.0      0   0.00      0      0      0      0      0      0    0.0  0.000      0      0  0.000  0.000  0.000  0.000   0.00   0.00   0.00      0      0      0.0   0.00   0.00   0.11   0.00   0.00   0.00   0.00   0.00   0.00   0.00   0.00   0.00   0.00      0      0      0       0       0
 1991 233     9     6    0.0      0   0.00      0      0      0      0      0      0    0.0  0.000      0      0  0.000  0.000  0.000  0.000   0.00   0.00   0.00      0      0      0.0   0.00   0.00   0.13   0.00   0.00   0.00   0.00   0.00   0.00   0.00   0.00   0.00   0.00      0      0      0       0       0
 1991 234    10     7    1.0      1   0.00     14     14      0     14     28      0    0.0  0.000      0      0  0.000  0.000  0.012  0.000   4.40   0.00   0.00      0      0     24.3   0.00   0.00   0.14   0.28   0.11   0.00   0.00   0.00   0.00   0.00   0.00   0.00   0.00      0      0      0       0       0
 1991 235    11     8    2.0      1   0.01     14     14      0     14     28      0    0.0  0.000      0      0  0.000  0.000  0.015  0.000   4.52   0.00   0.00      0      0     41.8   0.00   0.00   0.15   0.28   0.12   0.00   0.00   0.00   0.00   0.00   0.00   0.00   0.00      0      0      0       0       0
 1991 236    12     9    2.0      1   0.01     14     14      0     15     28      0    0.0  0.000      0      0  0.000  0.000  0.000  0.000   4.50   0.00   0.00      0      0     56.2   0.00   0.00   0.16   0.29   0.13   0.00   0.00   0.00   0.00   0.00   0.00   0.00   0.00      0      0      0       0       0
 1991 237    13    10    2.0      1   0.01     14     14      0     16     28      0    0.0  0.000      0      0  0.000  0.000  0.000  0.000   4.47   0.00   0.00      0      0     77.4   0.00   0.00   0.17   0.30   0.14   0.00   0.00   0.00   0.00   0.00   0.00   0.00   0.00      0      0      0       0       0
 1991 238    14    11    3.0      1   0.01     14     14      0     17     28      0    0.0  0.000      0      0  0.000  0.000  0.000  0.000   4.47   0.00   0.00      0      0     90.7   0.00   0.00   0.18   0.30   0.14   0.00   0.00   0.00   0.00   0.00   0.00   0.00   0.00      0      0      0       0       0
 1991 239    15    12    3.0      1   0.01     14     14      0     17     28      0    0.0  0.000      0      0  0.000  0.000  0.000  0.000   4.47   0.00   0.00      0      0    101.9   0.00   0.00   0.18   0.30   0.15   0.00   0.00   0.00   0.00   0.00   0.00   0.00   0.00      0      0      0       0       0
 1991 240    16    13    3.0      1   0.02     14     14      0     18     28      0    0.0  0.000      0      0  0.000  0.000  0.000  0.000   4.42   0.00   0.00      0      0    122.6   0.00   0.00   0.19   0.31   0.16   0.01   0.00   0.00   0.00   0.00   0.00   0.00   0.00      0      0      0       0       0
 1991 241    17    14    3.0      1   0.02     14     14      0     20     28      0    0.0  0.000      0      0  0.000  0.000  0.000  0.000   4.39   0.00   0.00      0      0    149.2   0.00   0.00   0.20   0.33   0.17   0.01   0.00   0.00   0.00   0.00   0.00   0.00   0.00      0      0      0       0       0
 1991 242    18    15    4.0      1   0.04     14     14      0     21     28      0    0.0  0.000      0      0  0.000  0.000  0.000  0.000   4.36   0.00   0.00      0      0    252.5   0.00   0.00   0.22   0.33   0.19   0.02   0.00   0.00   0.00   0.00   0.00   0.00   0.00      0      0      0       0       0
 1991 243    19    16    4.0      1   0.04     14     14      0     23     28      0    0.0  0.000      0      0  0.000  0.000  0.000  0.000   4.35   0.00   0.00      0      0    305.2   0.00   0.00   0.22   0.34   0.20   0.02   0.00   0.00   0.00   0.00   0.00   0.00   0.00      0      0      0       0       1
 1991 244    20    17    4.0      1   0.05     14     14      0     25     28      0    0.0  0.000      0      0  0.000  0.000  0.000  0.000   4.35   0.00   0.00      0      0    343.5   0.00   0.00   0.23   0.36   0.22   0.04   0.00   0.00   0.00   0.00   0.00   0.00   0.00      0      0      0       0       1
 1991 245    21    18    4.0      1   0.06     17     14      0     26     31      0    0.0  0.000      0      0  0.000  0.000  0.000  0.000   3.88   0.00   0.00      0      0    328.8   0.00   0.00   0.23   0.36   0.22   0.04   0.00   0.00   0.00   0.00   0.00   0.00   0.00      0      0      0       0       1
 1991 246    22    19    5.0      1   0.07     24     14      0     27     38      0    0.0  0.000      0      0  0.000  0.000  0.000  0.000   3.56   0.00   0.00      0      0    308.4   0.00   0.00   0.24   0.37   0.24   0.05   0.00   0.00   0.00   0.00   0.00   0.00   0.00      0      0      0       0       1
 1991 247    23    20    5.0      1   0.09     33     14      0     34     47      0    0.0  0.000      0      0  0.000  0.000  0.000  0.000   3.46   0.00   0.00      0      0    289.2   0.00   0.00   0.26   0.41   0.30   0.09   0.00   0.00   0.00   0.00   0.00   0.00   0.00      0      0      0       0       1
 1991 248    24    21    5.0      1   0.12     44     14      0     44     58      0    0.0  0.000      0      0  0.000  0.000  0.000  0.000   3.40   0.00   0.00      0      0    272.1   0.00   0.00   0.27   0.46   0.36   0.15   0.00   0.00   0.00   0.00   0.00   0.00   0.00      0      0      0       0       1
 1991 249    25    22    6.0      1   0.14     55     14      0     45     69      0    0.0  0.000      0      0  0.000  0.000  0.000  0.000   3.55   0.00   0.00      0      0    260.2   0.00   0.00   0.28   0.46   0.37   0.15   0.00   0.00   0.00   0.00   0.00   0.00   0.00      0      0      0       0       1
 1991 250    26    23    6.0      1   0.16     62     14      0     47     76      0    0.0  0.000      0      0  0.000  0.000  0.000  0.000   3.79   0.00   0.00      0      0    253.7   0.00   0.00   0.29   0.47   0.39   0.17   0.00   0.00   0.00   0.00   0.00   0.00   0.00      0      0      0       0       2
 1991 251    27    24    6.0      1   0.17     68     14      0     51     82      0    0.0  0.000      0      0  0.000  0.000  0.000  0.000   3.85   0.00   0.00      0      0    248.5   0.00   0.00   0.29   0.49   0.42   0.20   0.00   0.00   0.00   0.00   0.00   0.00   0.00      0      0      0       0       2
 1991 252    28    25    6.0      1   0.19     76     14      0     69     90      0    0.0  0.000      0      0  0.000  0.000  0.000  0.000   3.78   0.00   0.00      0      0    242.8   0.00   0.00   0.30   0.56   0.54   0.32   0.00   0.00   0.00   0.00   0.00   0.00   0.00      0      0      0       0       2
 1991 253    29    26    6.0      1   0.21     88     14      0     90    102      0    0.0  0.000      0      0  0.000  0.000  0.000  0.000   3.66   0.00   0.00      0      0    235.9   0.00   0.00   0.31   0.65   0.67   0.47   0.00   0.00   0.00   0.00   0.00   0.00   0.00      0      0      0       0       2
 1991 254    30    27    7.0      1   0.24    104     14      0    116    118      0    0.0  0.000      0      0  0.000  0.000  0.000  0.000   3.55   0.00   0.00      0      0    227.8   0.00   0.00   0.32   0.76   0.85   0.65   0.01   0.00   0.00   0.00   0.00   0.00   0.00      0      0      0       0       3
 1991 255    31    28    7.0      1   0.28    128     14      0    141    142      0    0.0  0.000      0      0  0.000  0.000  0.000  0.000   3.40   0.00   0.00      0      0    218.5   0.00   0.00   0.33   0.88   1.01   0.83   0.02   0.00   0.00   0.00   0.00   0.00   0.00      0      0      0       0       3
 1991 256    32    29    7.0      1   0.33    159     14      0    159    173      0    0.0  0.000      0      0  0.000  0.000  0.000  0.000   3.30   0.00   0.00      0      0    208.7   0.00   0.00   0.35   0.95   1.12   0.94   0.03   0.00   0.00   0.00   0.00   0.00   0.00      0      0      0       0       4
 1991 257    33    30    8.0      1   0.36    173     14      0    167    187      0    0.0  0.000      0      0  0.000  0.000  0.000  0.000   3.73   0.00   0.00      0      0    205.2   0.00   0.00   0.36   0.98   1.17   0.99   0.04   0.00   0.00   0.00   0.00   0.00   0.00      0      0      0       0       5
 1991 258    34    31    8.0      1   0.36    178     14      0    171    192      0    0.0  0.000      0      0  0.000  0.000  0.000  0.000   3.92   0.00   0.00      0      0    204.0   0.00   0.00   0.36   0.99   1.20   1.02   0.04   0.00   0.00   0.00   0.00   0.00   0.00      0      0      0       0       6
 1991 259    35    32    8.0      1   0.40    202     14      0    190    216      0    0.0  0.000      0      0  0.000  0.000  0.000  0.000   3.55   0.00   0.00      0      0    198.7   0.00   0.00   0.37   1.04   1.32   1.15   0.06   0.00   0.00   0.00   0.00   0.00   0.00      0      0      0       0       7
 1991 260    36    33    8.0      1   0.45    230     14      0    194    244      0    0.0  0.000      0      0  0.000  0.000  0.000  0.000   3.51   0.00   0.00      0      0    193.4   0.00   0.00   0.39   1.05   1.34   1.17   0.07   0.00   0.00   0.00   0.00   0.00   0.00      0      0      0       0       8
 1991 261    37    34    8.0      1   0.48    251     14      0    245    265      0    0.0  0.000      0      0  0.000  0.000  0.000  0.166   3.65   0.00   0.00      0      0    190.0   0.00   0.00   0.40   0.99   1.52   1.45   0.16   0.00   0.00   0.00   0.00   0.00   0.00      0      0      0       0       8
 1991 262    38    35    9.0      1   0.50    267     14      0    301    281      0    0.0  0.000      0      0  0.000  0.000  0.000  0.000   3.70   0.00   0.00      0      0    187.5   0.00   0.00   0.41   0.96   1.76   1.80   0.27   0.00   0.00   0.00   0.00   0.00   0.00      0      0      0       0      10
 1991 263    39    36    9.0      1   0.54    290     14      0    335    304      0    0.0  0.000      0      0  0.000  0.000  0.000  0.069   3.62   0.00   0.00      0      0    184.2   0.00   0.00   0.42   0.95   1.90   2.01   0.34   0.00   0.00   0.00   0.00   0.00   0.00      0      0      0       0      11
 1991 264    40    37    9.0      2   0.61    312     14      0    364    326      0    0.0  0.000      0      0  0.000  0.000  0.000  0.005   3.63   0.00   0.00      0      0    193.8   0.00   0.00   0.43   0.96   2.03   2.20   0.41   0.00   0.00   0.00   0.00   0.00   0.00      0      0      0       0      13
 1991 265    41    38    9.0      2   0.65    344     14      0    431    358      0    0.0  0.000      0      0  0.000  0.000  0.001  0.000   3.56   0.00   0.00      0      0    190.0   0.00   0.00   0.44   1.02   2.37   2.67   0.59   0.00   0.00   0.00   0.00   0.00   0.00      0      0      0       0      15
 1991 266    42    39    9.0      2   0.62    357     14      0    490    371      0    0.0  0.000      0      0  0.000  0.000  0.000  0.000   3.68   0.00   0.00      0      0    174.0   0.00   0.00   0.45   1.08   2.65   3.07   0.75   0.00   0.00   0.00   0.00   0.00   0.00      0      0      0       0      17
 1991 267    43    40   10.0      2   0.65    378     14      0    562    392      0    0.0  0.000      0      0  0.000  0.000  0.000  0.000   3.80   0.00   0.00      0      0    170.8   0.00   0.00   0.45   1.16   2.98   3.55   0.95   0.00   0.00   0.00   0.00   0.00   0.00      0      0      0       0      19
 1991 268    44    41   10.0      3   0.69    411     14      0    632    425      0    0.0  0.000      0      0  0.000  0.000  0.022  0.000   3.68   0.00   0.00      0      0    167.5   0.00   0.00   0.46   1.24   3.29   3.99   1.14   0.01   0.00   0.00   0.00   0.00   0.00      0      0      0       0      22
 1991 269    45    42   10.0      3   0.74    450     14      0    709    465      0    0.0  0.000      0      0  0.000  0.000  0.022  0.000   3.57   0.00   0.00      0      0    165.4   0.00   0.00   0.48   1.34   3.61   4.00   1.34   0.05   0.00   0.00   0.00   0.00   0.00      0      0      0       0      25
 1991 270    46    43   10.0      3   0.84    516     15      0    758    531      0    0.0  0.000      0      0  0.000  0.000  0.022  0.000   3.53   0.00   0.00      0      0    162.4   0.00   0.00   0.49   1.39   3.81   4.00   1.47   0.08   0.00   0.00   0.00   0.00   0.00      0      0      0       0      29
 1991 271    47    44   10.0      3   0.87    542     15      0    835    557      0    0.0  0.000      0      0  0.000  0.000  0.022  0.000   3.55   0.00   0.00      0      0    161.0   0.00   0.00   0.50   1.50   4.00   4.00   1.67   0.14   0.00   0.00   0.00   0.00   0.00      0      0      0       0      33
 1991 272    48    45   11.0      3   0.91    572     16      0    924    588      0    0.0  0.000      0      0  0.000  0.000  0.022  0.000   3.51   0.00   0.00      0      0    159.5   0.00   0.00   0.51   1.62   4.00   4.00   1.90   0.22   0.00   0.00   0.00   0.00   0.00      0      0      0       0      37
 1991 273    49    46   11.0      3   0.96    609     17      0   1018    626      0    0.0  0.000      0      0  0.000  0.000  0.022  0.000   3.47   0.00   0.00      0      0    157.8   0.00   0.00   0.52   1.75   4.00   4.00   2.15   0.31   0.00   0.00   0.00   0.00   0.00      0      0      0       0      41
 1991 274    50    47   11.0      3   1.00    636     18      0   1104    654      0    0.0  0.000      0      0  0.000  0.000  0.022  0.000   3.46   0.00   0.00      0      0    156.6   0.00   0.00   0.52   1.87   4.00   4.00   2.39   0.41   0.00   0.00   0.00   0.00   0.00      0      0      0       0      47
 1991 275    51    48   11.0      3   1.03    662     19      0   1202    681      0    0.0  0.000      0      0  0.000  0.000  0.022  0.000   3.45   0.00   0.00      0      0    155.4   0.00   0.00   0.53   2.01   4.00   4.00   2.65   0.53   0.00   0.00   0.00   0.00   0.00      0      0      0       0      52
 1991 276    52    49   11.0      3   1.01    690     20      0   1313    710      0    0.0  0.000      0      0  0.000  0.000  0.022  0.000   3.43   0.00   0.00      0      0    147.1   0.00   0.00   0.53   2.17   4.00   4.00   2.95   0.68   0.00   0.00   0.00   0.00   0.00      0      0      0       0      58
 1991 277    53    50   11.0      3   1.06    728     23      0   1401    751      0    0.0  0.000      0      0  0.000  0.000  0.022  0.000   3.40   0.00   0.00      0      0    146.0   0.00   0.00   0.54   2.17   4.00   4.00   3.19   0.81   0.00   0.00   0.00   0.00   0.00      0      0      0       0      65
 1991 278    54    51   11.0      3   1.09    754     24      0   1409    778      0    0.0  0.000      0      0  0.000  0.000  0.022  0.000   3.45   0.00   0.00      0      0    145.2   0.00   0.00   0.55   2.17   4.00   4.00   3.22   0.82   0.00   0.00   0.00   0.00   0.00      0      0      0       0      72
 1991 279    55    52   11.0      3   1.11    766     25      0   1436    791      0    0.0  0.000      0      0  0.000  0.000  0.022  0.085   3.44   0.00   0.00      0      0    144.6   0.00   0.00   0.55   2.15   4.00   4.00   3.28   0.87   0.00   0.00   0.00   0.00   0.00      0      0      0       0      79
 1991 280    56    53   12.0      3   1.08    781     26      0   1471    807      0    0.0  0.000      0      0  0.000  0.000  0.022  0.141   3.44   0.00   0.00      0      0    138.6   0.00   0.00   0.55   2.01   3.84   4.00   3.20   0.89   0.00   0.00   0.00   0.00   0.00      0      0      0       0      86
 1991 281    57    54   12.0      3   1.06    801     28      0   1562    829      0    0.0  0.000      0      0  0.000  0.000  0.022  0.262   3.40   0.00   0.00      0      0    132.3   0.00   0.00   0.56   1.94   3.93   4.00   3.36   1.04   0.00   0.00   0.00   0.00   0.00      0      0      0       0      93
 1991 282    58    55   12.0      3   1.12    849     32      0   1653    881      0    0.0  0.000      0      0  0.000  0.000  0.022  0.054   3.35   0.00   0.00      0      0    131.9   0.00   0.00   0.56   1.91   4.00   4.00   3.58   1.22   0.00   0.00   0.00   0.00   0.00      0      0      0       0     101
 1991 283    59    56   12.0      3   1.19    905     38      0   1768    943      0    0.0  0.000      0      0  0.000  0.000  0.022  0.009   3.33   0.00   0.00      0      0    131.3   0.00   0.00   0.57   1.89   4.00   4.00   3.90   1.49   0.00   0.00   0.00   0.00   0.00      0      0      0       0     109
 1991 284    60    57   12.0      3   1.27    975     47      0   1879   1022      0    0.0  0.000      0      0  0.000  0.000  0.022  0.002   3.30   0.00   0.00      0      0    130.7   0.00   0.00   0.58   1.89   4.00   4.00   4.00   1.78   0.00   0.00   0.00   0.00   0.00      0      0      0       0     118
 1991 285    61    58   13.0      3   1.40   1077     63      0   1977   1140      0    0.0  0.000      0      0  0.000  0.000  0.022  0.000   3.27   0.00   0.00      0      0    129.8   0.00   0.00   0.60   1.90   4.00   4.00   4.00   2.09   0.00   0.00   0.00   0.00   0.00      0      0      0       0     128
 1991 286    62    59   13.0      3   1.58   1228     96      0   2033   1324      0    0.0  0.000      0      0  0.000  0.000  0.022  0.000   3.21   0.00   0.00      0      0    128.4   0.00   0.00   0.62   1.89   4.00   4.00   4.00   2.31   0.00   0.00   0.00   0.00   0.00      0      0      0       0     137
 1991 287    63    60   13.0      3   1.72   1354    132      0   2032   1486      0    0.0  0.000      0      0  0.000  0.000  0.022  0.000   3.16   0.00   0.00      0      0    127.2   0.00   0.00   0.64   1.87   3.95   3.98   3.97   2.31   0.00   0.00   0.00   0.00   0.00      0      0      0       0     148
 1991 288    64    61   14.0      3   1.81   1435    158      0   2027   1593      0    0.0  0.000      0      0  0.000  0.000  0.022  0.000   3.11   0.00   0.00      0      0    126.4   0.00   0.00   0.66   1.83   3.87   3.91   3.91   2.28   0.00   0.00   0.00   0.00   0.00      0      0      0       0     158
 1991 289    65    62   14.0      3   1.87   1493    179      0   2039   1671      0    0.0  0.000      0      0  0.000  0.000  0.022  0.000   3.05   0.00   0.00      0      0    125.6   0.00   0.00   0.66   1.71   3.61   3.71   3.72   2.22   0.02   0.00   0.00   0.00   0.00      0      0      0       0     168
 1991 290    66    63   14.0      3   1.90   1515    187      0   2114   1702      0    0.0  0.000      0      0  0.000  0.000  0.022  0.415   3.09   0.00   0.00      0      0    125.1   0.00   0.00   0.67   1.65   3.47   3.80   3.83   2.45   0.11   0.00   0.00   0.00   0.00      0      0      0       0     178
 1991 291    67    64   14.0      3   1.95   1569    209      0   2282   1779      0    0.0  0.000      0      0  0.000  0.000  0.022  0.150   3.06   0.00   0.00      0      0    124.4   0.00   0.00   0.68   1.66   3.43   4.00   4.00   3.07   0.36   0.00   0.00   0.00   0.00      0      0      0       0     189
 1991 292    68    65   15.0      3   2.05   1656    248      0   2428   1904      0    0.0  0.000      0      0  0.000  0.000  0.022  0.018   3.03   0.00   0.00      0      0    123.6   0.00   0.00   0.69   1.69   3.42   4.00   4.00   3.64   0.65   0.00   0.00   0.00   0.00      0      0      0       0     200
 1991 293    69    66   15.0      3   2.15   1751    296      0   2568   2047      0    0.0  0.000      0      0  0.000  0.000  0.022  0.008   2.99   0.00   0.00      0      0    122.7   0.00   0.00   0.70   1.75   3.45   4.00   4.00   4.00   0.99   0.00   0.00   0.00   0.00      0      0      0       0     212
 1991 294    70    67   15.0      3   2.28   1876    367      0   2668   2243      0    0.0  0.000      0      0  0.000  0.000  0.022  0.008   2.90   0.00   0.00      0      0    121.6   0.00   0.00   0.72   1.79   3.47   4.00   4.00   4.00   1.29   0.00   0.00   0.00   0.00      0      0      0       0     225
 1991 295    71    68   16.0      3   2.44   2030    469      0   2705   2499      0    0.0  0.000      0      0  0.000  0.000  0.022  0.005   2.75   0.00   0.00      0      0    120.3   0.00   0.00   0.73   1.82   3.48   4.00   4.00   4.00   1.44   0.00   0.00   0.00   0.00      0      0      0       0     238
 1991 296    72    69   16.0      3   2.52   2103    521      0   2704   2623      0    0.0  0.000      0      0  0.000  0.000  0.022  0.002   2.74   0.00   0.00      0      0    119.6   0.00   0.00   0.74   1.82   3.47   3.99   3.99   4.00   1.48   0.00   0.00   0.00   0.00      0      0      0       0     252
 1991 297    73    70   16.0      3   2.57   2157    561      0   2710   2717      0    0.0  0.000      0      0  0.000  0.000  0.022  0.000   2.74   0.00   0.00      0      0    119.0   0.00   0.00   0.75   1.83   3.48   3.99   3.98   4.00   1.55   0.00   0.00   0.00   0.00      0      0      0       0     265
 1991 298    74    71   16.0      3   2.64   2228    619      0   2703   2847      0    0.0  0.000      0      0  0.000  0.000  0.022  0.000   2.69   0.00   0.00      0      0    118.3   0.00   0.00   0.76   1.83   3.47   3.98   3.96   3.99   1.57   0.00   0.00   0.00   0.00      0      0      0       0     279
 1991 299    75    72   17.0      3   2.75   2347    724      0   2787   3071      0    0.0  0.000      0      0  0.000  0.000  0.022  0.000   2.55   0.00   0.00      0      0    117.4   0.00   0.00   0.78   2.00   3.63   4.00   4.00   4.00   1.95   0.00   0.00   0.00   0.00      0      0      0       0     292
 1991 300    76    73   17.0      3   2.86   2451    824      0   2784   3275      0    0.0  0.000      0      0  0.000  0.000  0.023  0.000   2.44   0.00   0.00      0      0    116.5   0.00   0.00   0.79   2.01   3.63   4.00   3.99   3.99   1.98   0.00   0.00   0.00   0.00      0      0      0       0     306
 1991 301    77    74   17.0      3   2.91   2517    892      0   2778   3409      0    0.0  0.000      0      0  0.000  0.000  0.029  0.000   2.38   0.00   0.00      0      0    115.8   0.00   0.00   0.80   2.02   3.63   4.00   3.98   3.97   2.00   0.00   0.00   0.00   0.00      0      0      0       0     320
 1991 302    78    75   17.0      3   2.97   2581    961      0   2771   3542      0    0.0  0.000      0      0  0.000  0.000  0.034  0.000   2.32   0.00   0.00      0      0    115.0   0.00   0.00   0.81   2.03   3.63   4.00   3.96   3.96   2.01   0.00   0.00   0.00   0.00      0      0      0       0     334
 1991 303    79    76   17.0      3   3.04   2664   1014      0   2765   3678      0    0.0  0.000      0      0  0.000  0.000  0.037  0.000   2.26   0.00   0.00      0      0    114.1   0.00   0.00   0.82   2.04   3.64   4.00   3.96   3.95   2.01   0.00   0.00   0.00   0.00      0      0      0       0     348
 1991 304    80    77   18.0      3   3.09   2731   1083      0   2759   3814      0    0.0  0.000      0      0  0.000  0.000  0.039  0.000   2.20   0.00   0.00      0      0    113.3   0.00   0.00   0.83   2.06   3.65   4.00   3.95   3.94   2.01   0.00   0.00   0.00   0.00      0      0      0       0     362
 1991 305    81    78   18.0      3   3.19   2845   1233      0   2780   4078      0    0.0  0.000      0      0  0.000  0.000  0.042  0.011   2.08   0.00   0.00      0      0    112.2   0.00   0.00   0.84   2.19   3.77   4.00   3.99   3.98   2.03   0.00   0.00   0.00   0.00      0      0      0       0     376
 1991 306    82    79   18.0      3   3.27   2936   1370      0   2891   4306      0    0.0  0.000      0      0  0.000  0.000  0.045  0.000   1.98   0.00   0.00      0      0    111.3   0.00   0.00   0.85   2.66   4.00   4.00   4.00   4.00   2.15   0.00   0.00   0.00   0.00      0      0      0       0     390
 1991 307    83    80   18.0      3   3.33   3019   1512      0   2958   4531      0    0.0  0.000      0      0  0.000  0.000  0.054  0.000   1.90   0.00   0.00      0      0    110.2   0.00   0.00   0.86   2.96   4.00   4.00   4.00   4.00   2.22   0.00   0.00   0.00   0.00      0      0      0       0     404
 1991 308    84    81   19.0      3   3.38   3098   1660      0   3089   4758      0    0.0  0.000      0      0  0.000  0.000  0.061  0.000   1.82   0.00   0.00      0      0    109.1   0.00   0.00   0.87   3.51   4.00   4.00   4.00   4.00   2.38   0.00   0.00   0.00   0.00      0      0      0       0     419
 1991 309    85    82   19.0      3   3.43   3176   1820      0   3147   4996      0    0.0  0.000      0      0  0.000  0.000  0.068  0.000   1.74   0.00   0.00      0      0    108.0   0.00   0.00   0.89   3.77   4.00   4.00   4.00   4.00   2.45   0.00   0.00   0.00   0.00      0      0      0       0     434
 1991 310    86    83   19.0      3   3.46   3235   1952      0   3142   5187      0    0.0  0.000      0      0  0.000  0.000  0.075  0.000   1.69   0.00   0.00      0      0    106.8   0.00   0.00   0.90   3.80   4.00   4.00   4.00   3.99   2.45   0.00   0.00   0.00   0.00      0      0      0       0     450
 1991 311    87    84   20.0      3   3.48   3292   2088      0   3225   5380      0    0.0  0.000      0      0  0.000  0.000  0.083  0.000   1.64   0.00   0.00      0      0    105.6   0.00   0.00   0.91   4.00   4.00   4.00   4.00   4.00   2.56   0.00   0.00   0.00   0.00      0      0      0       0     466
 1991 312    88    85   20.0      3   3.48   3339   2204      0   3309   5543      0    0.0  0.000      0      0  0.000  0.000  0.089  0.000   1.60   0.00   0.00      0      0    104.3   0.00   0.00   0.92   4.00   4.00   4.00   4.00   4.00   2.64   0.27   0.00   0.00   0.00      0      0      0       0     482
 1991 313    89    86   20.0      3   3.48   3381   2314      0   3462   5695      0    0.0  0.000      0      0  0.000  0.000  0.094  0.000   1.58   0.00   0.00      0      0    103.0   0.00   0.00   0.93   4.00   4.00   4.00   4.00   4.00   2.76   0.84   0.00   0.00   0.00      0      0      0       0     498
 1991 314    90    87   20.0      3   3.49   3430   2448      0   3512   5878      0    0.0  0.000      0      0  0.000  0.000  0.095  0.000   1.56   0.00   0.00      0      0    101.7   0.00   0.00   0.94   4.00   4.00   4.00   4.00   4.00   2.80   1.10   0.00   0.00   0.00      0      0      0       0     516
[...]
 1992 325   101    98   21.0      3   3.45   3875   2734      0   5346   6610      0    0.0  0.000      0      0  0.000  0.000  0.100  0.000   1.49   0.00   0.00      0      0     88.9   0.00   0.00   0.95   4.00   4.00   4.00   4.00   4.00   3.50   1.52   0.00   0.00   0.00      0      0      0       0     701
 1992 326   102    99   21.0      3   3.44   3912   2837      0   5327   6749      0    0.0  0.000      0      0  0.000  0.000  0.104  0.000   1.48   0.00   0.00      0      0     87.8   0.00   0.00   0.96   4.00   4.00   4.00   3.99   3.99   3.49   1.53   0.00   0.00   0.00      0      0      0       0     728
 1992 327   103   100   21.0      3   3.41   3940   2917      0   5474   6858      0    0.0  0.000      0      0  0.000  0.000  0.110  0.000   1.46   0.00   0.00      0      0     86.7   0.00   0.00   0.97   4.00   4.00   4.00   4.00   4.00   3.64   1.90   0.00   0.00   0.00      0      0      0       0     755
 1992 328   104   101   22.0      3   3.39   3964   2986      0   5595   6950      0    0.0  0.000      0      0  0.000  0.000  0.113  0.000   1.45   0.00   0.00      0      0     85.5   0.00   0.00   0.97   4.00   4.00   4.00   4.00   4.00   3.77   2.16   0.00   0.00   0.00      0      0      0       0     782
 1992 329   105   102   22.0      3   3.38   4008   3113      0   5693   7120      0    0.0  0.000      0      0  0.000  0.000  0.113  0.000   1.43   0.00   0.00      0      0     84.4   0.00   0.00   0.98   4.00   4.00   4.00   4.00   4.00   3.88   2.35   0.00   0.00   0.00      0      0      0       0     810
 1992 330   106   103   22.0      3   3.38   4056   3252      0   5762   7309      0    0.0  0.000      0      0  0.000  0.000  0.113  0.000   1.40   0.00   0.00      0      0     83.3   0.00   0.00   1.00   4.00   4.00   4.00   4.00   4.00   3.96   2.46   0.00   0.00   0.00      0      0      0       0     839
 1992 331   107   104   22.0      3   3.38   4107   3397      0   5802   7503      0    0.0  0.000      0      0  0.000  0.000  0.116  0.000   1.37   0.00   0.00      0      0     82.2   0.00   0.00   1.01   4.00   4.00   4.00   4.00   4.00   4.00   2.50   0.00   0.00   0.00      0      0      0       0     867
 1992 332   108   105   22.0      3   3.37   4156   3538      0   5941   7694      0    0.0  0.000      0      0  0.000  0.000  0.119  0.000   1.34   0.00   0.00      0      0     81.2   0.00   0.00   1.02   4.00   4.00   4.00   4.00   4.00   4.00   2.58   0.00   0.00   0.00      0      0      0       0     896
 1992 333   109   106   22.0      3   3.37   4207   3685      0   5995   7892      0    0.0  0.000      0      0  0.000  0.000  0.123  0.000   1.32   0.00   0.00      0      0     80.1   0.00   0.00   1.03   4.00   4.00   4.00   4.00   4.00   4.00   2.61   0.00   0.00   0.00      0      0      0       0     926
 1992 334   110   107   22.0      3   3.37   4269   3861      0   6017   8130      0    0.0  0.000      0      0  0.000  0.000  0.125  0.000   1.29   0.00   0.00      0      0     79.0   0.00   0.00   1.05   4.00   4.00   4.00   4.00   4.00   4.00   2.63   0.00   0.00   0.00      0      0      0       0     956
 1992 335   111   108   22.0      4   3.32   4227   3280      0   6064   8313      0    0.0  0.000    805      0  0.000  0.000  0.128  0.000   1.40   0.00   0.10      0    805     78.5   0.00   0.00   1.06   4.00   4.00   4.00   4.00   4.00   4.00   2.68   0.00   0.00   0.00      0      0      0       0     986
 1992 336   112   109   22.0      4   3.26   4182   3326      0   6208   8426      0    0.0  0.000    918      0  0.000  0.000  0.132  0.000   1.41   0.00   0.11      0    918     78.1   0.00   0.00   1.07   4.00   4.00   4.00   4.00   4.00   4.00   2.80   0.00   0.00   0.00      0      0      0       0    1016
 1992 337   113   110   22.0      4   3.22   4136   3366      0   6374   8521      0    0.0  0.000   1020      0  0.000  0.000  0.102  0.000   1.42   0.00   0.12      0   1020     77.9   0.00   0.00   1.08   4.00   4.00   4.00   4.00   4.00   4.00   2.94   0.00   0.00   0.00      0      0      0       0    1048
 1992 338   114   111   22.0      4   3.18   4087   3415      0   6489   8645      0    0.0  0.000   1143      0  0.000  0.000  0.098  0.000   1.42   0.00   0.13      0   1143     77.9   0.00   0.00   1.09   4.00   4.00   4.00   4.00   4.00   4.00   3.05   0.00   0.00   0.00      0      0      0       0    1079
 1992 339   115   112   22.0      4   3.15   4035   3478      0   6616   8814      0    0.0  0.000   1300      0  0.000  0.000  0.092  0.000   1.43   0.00   0.15      0   1300     78.0   0.00   0.00   1.10   4.00   4.00   4.00   4.00   4.00   4.00   3.15   0.09   0.00   0.00      0      0      0       0    1112
 1992 340   116   113   22.0      4   3.11   3981   3541      0   6641   8979      0    0.0  0.000   1457      0  0.000  0.000  0.087  0.000   1.43   0.00   0.16      0   1457     78.2   0.00   0.00   1.11   4.00   4.00   4.00   4.00   4.00   4.00   3.18   0.14   0.00   0.00      0      0      0       0    1145
 1992 341   117   114   22.0      4   3.08   3923   3621      0   6694   9201      0    0.0  0.000   1656      0  0.000  0.000  0.081  0.000   1.44   0.00   0.18      0   1656     78.5   0.00   0.00   1.12   4.00   4.00   4.00   4.00   4.00   4.00   3.23   0.24   0.00   0.00      0      0      0       0    1178
 1992 342   118   115   22.0      4   3.05   3863   3685      0   6758   9365      0    0.0  0.000   1817      0  0.000  0.000  0.077  0.000   1.44   0.00   0.19      0   1817     79.0   0.00   0.00   1.13   4.00   4.00   4.00   4.00   4.00   4.00   3.28   0.36   0.00   0.00      0      0      0       0    1212
 1992 343   119   116   22.0      4   3.02   3800   3752      0   6836   9537      0    0.0  0.000   1985      0  0.000  0.000  0.073  0.000   1.45   0.00   0.21      0   1985     79.6   0.00   0.00   1.14   4.00   4.00   4.00   4.00   4.00   4.00   3.35   0.51   0.00   0.00      0      0      0       0    1245
 1992 344   120   117   22.0      4   3.00   3734   3822      0   6871   9715      0    0.0  0.000   2159      0  0.000  0.000  0.068  0.000   1.45   0.00   0.22      0   2159     80.3   0.00   0.00   1.15   4.00   4.00   4.00   4.00   4.00   4.00   3.38   0.60   0.00   0.00      0      0      0       0    1280
 1992 345   121   118   22.0      4   2.97   3665   3898      0   6909   9913      0    0.0  0.000   2350      0  0.000  0.000  0.063  0.000   1.46   0.00   0.24      0   2350     81.1   0.00   0.00   1.16   4.00   4.00   4.00   4.00   4.00   4.00   3.41   0.70   0.00   0.00      0      0      0       0    1314
 1992 346   122   119   22.0      4   2.95   3593   3967      0   6966  10082      0    0.0  0.000   2522      0  0.000  0.000  0.059  0.000   1.47   0.00   0.25      0   2522     82.2   0.00   0.00   1.17   4.00   4.00   4.00   4.00   4.00   4.00   3.46   0.81   0.00   0.00      0      0      0       0    1348
 1992 347   123   120   22.0      4   2.93   3519   4032      0   7086  10237      0    0.0  0.000   2686      0  0.000  0.000  0.055  0.000   1.47   0.00   0.26      0   2686     83.3   0.00   0.00   1.17   4.00   4.00   4.00   4.00   4.00   4.00   3.55   1.00   0.00   0.00      0      0      0       0    1383
 1992 348   124   121   22.0      5   2.90   3519   4032    281   7115  10518   3583    7.8  0.027   2967      7  0.000  0.000  0.098  0.000   1.43   9.48   0.28      0   2967     82.3   0.00   0.00   1.18   4.00   4.00   4.00   4.00   4.00   4.00   3.58   1.06   0.00   0.00      0      0      0       0    1419
 1992 349   125   122   22.0      5   2.86   3519   4032    540   7139  10777   3583   15.1  0.050   3226      7  0.000  0.000  0.108  0.000   1.39  16.74   0.30      0   3226     81.2   0.00   0.00   1.19   4.00   4.00   4.00   4.00   4.00   4.00   3.61   1.12   0.00   0.00      0      0      0       0    1454
 1992 350   126   123   22.0      5   2.82   3519   4032    732   7184  10969   3583   20.4  0.067   3418      7  0.000  0.000  0.116  0.000   1.36  21.43   0.31      0   3418     80.0   0.00   0.00   1.20   4.00   4.00   4.00   4.00   4.00   4.00   3.65   1.17   0.00   0.00      0      0      0       0    1490
 1992 351   127   124   22.0      5   2.77   3519   4032    972   7193  11209   3583   27.1  0.087   3657      7  0.000  0.000  0.118  0.000   1.32  26.57   0.33      0   3657     78.8   0.00   0.00   1.21   4.00   4.00   4.00   4.00   4.00   4.00   3.66   1.19   0.00   0.00      0      0      0       0    1526
 1992 352   128   125   22.0      5   2.73   3519   4032   1240   7171  11477   3583   34.6  0.108   3926      7  0.000  0.000  0.124  0.000   1.28  31.59   0.34      0   3926     77.6   0.00   0.00   1.22   4.00   4.00   4.00   4.00   4.00   3.99   3.66   1.19   0.00   0.00      0      0      0       0    1562
 1992 353   129   126   22.0      5   2.69   3519   4032   1508   7191  11745   3583   42.1  0.128   4193      7  0.000  0.000  0.130  0.000   1.25  35.96   0.36      0   4193     76.3   0.00   0.00   1.23   4.00   4.00   4.00   4.00   4.00   4.00   3.68   1.20   0.00   0.00      0      0      0       0    1598
 1992 354   130   127   22.0      5   2.64   3519   4032   1777   7161  12014   3583   49.6  0.148   4462      7  0.000  0.000  0.136  0.000   1.21  39.81   0.37      0   4462     75.0   0.00   0.00   1.24   4.00   4.00   4.00   3.99   3.99   3.99   3.67   1.20   0.00   0.00      0      0      0       0    1634
 1992 355   131   128   22.0      5   2.59   3519   4032   2045   7187  12282   3583   57.1  0.167   4731      7  0.000  0.000  0.142  0.000   1.17  43.23   0.39      0   4731     73.7   0.00   0.00   1.25   4.00   4.00   4.00   4.00   4.00   4.00   3.70   1.21   0.00   0.00      0      0      0       0    1669
 1992 356   132   129   22.0      5   2.55   3519   4032   2314   7185  12551   3583   64.6  0.184   4999      7  0.000  0.000  0.149  0.000   1.13  46.28   0.40      0   4999     72.3   0.00   0.00   1.25   4.00   4.00   4.00   4.00   4.00   4.00   3.70   1.22   0.00   0.00      0      0      0       0    1705
 1992 357   133   130   22.0      5   2.50   3519   3940   2583   7149  12727   3583   72.1  0.203   5268      7  0.000  0.000  0.155  0.000   1.11  49.02   0.41      0   5268     70.9   0.00   0.00   1.25   4.00   4.00   4.00   4.00   4.00   4.00   3.70   1.22   0.00   0.00      0      0      0       0    1741
 1992 358   134   131   22.0      5   2.45   3519   3846   2851   7114  12902   3583   79.6  0.221   5537      7  0.000  0.000  0.163  0.000   1.08  51.50   0.43      0   5537     69.5   0.00   0.00   1.25   4.00   4.00   4.00   4.00   4.00   4.00   3.70   1.22   0.00   0.00      0      0      0       0    1777
 1992 359   135   132   22.0      5   2.40   3519   3925   3120   7118  13250   3583   87.1  0.235   5806      7  0.000  0.000  0.165  0.021   1.04  53.74   0.44      0   5806     68.1   0.00   0.00   1.25   4.00   4.00   4.00   4.00   4.00   4.00   3.72   1.23   0.00   0.00      0      0      0       0    1813
 1992 360   136   133   22.0      5   2.34   3519   3979   3361   7109  13545   3583   93.8  0.248   6047      7  0.000  0.000  0.168  0.000   1.00  55.59   0.45      0   6047     66.6   0.00   0.00   1.25   4.00   4.00   4.00   4.00   4.00   4.00   3.72   1.23   0.00   0.00      0      0      0       0    1848
 1992 361   137   134   22.0      5   2.29   3519   4032   3582   7136  13819   3583  100.0  0.259   6268      7  0.000  0.000  0.180  0.000   0.97  57.15   0.45      0   6268     65.1   0.00   0.00   1.25   4.00   4.00   4.00   4.00   4.00   4.00   3.75   1.25   0.00   0.00      0      0      0       0    1884
 1992 362   138   135   22.0      5   2.24   3519   4032   3803   7159  14040   3583  106.1  0.271   6488      7  0.000  0.000  0.189  0.000   0.94  58.61   0.46      0   6488     63.6   0.00   0.00   1.25   4.00   4.00   4.00   4.00   4.00   4.00   3.77   1.27   0.00   0.00      0      0      0       0    1919
 1992 363   139   136   22.0      5   2.18   3519   4032   4071   7164  14308   3583  113.6  0.285   6757      7  0.000  0.000  0.197  0.000   0.91  60.25   0.47      0   6757     62.0   0.00   0.00   1.25   4.00   4.00   4.00   4.00   4.00   4.00   3.79   1.28   0.00   0.00      0      0      0       0    1955
 1992 364   140   137   22.0      5   2.13   3519   3891   4340   7128  14436   3583  121.1  0.301   7026      7  0.000  0.000  0.214  0.000   0.90  61.77   0.49      0   7026     60.4   0.00   0.00   1.25   4.00   4.00   4.00   4.00   4.00   4.00   3.79   1.28   0.00   0.00      0      0      0       0    1991
 1992 365   141   138   22.0      5   2.07   3519   3767   4586   7092  14558   3583  128.0  0.315   7271      7  0.000  0.000  0.240  0.000   0.88  63.07   0.50      0   7271     58.8   0.00   0.00   1.25   4.00   4.00   4.00   4.00   4.00   4.00   3.79   1.28   0.00   0.00      0      0      0       0    2027
 1992 366   142   139   22.0      5   2.02   3519   3680   4793   7057  14678   3583  133.8  0.327   7479      7  0.000  0.000  0.242  0.000   0.87  64.09   0.51      0   7479     57.3   0.00   0.00   1.25   4.00   4.00   4.00   4.00   4.00   4.00   3.79   1.28   0.00   0.00      0      0      0       0    2062
 1993 001   143   140   22.0      5   1.96   3519   3577   5016   7022  14797   3583  140.0  0.339   7702      7  0.000  0.000  0.242  0.000   0.86  65.13   0.52      0   7702     55.7   0.00   0.00   1.25   4.00   4.00   4.00   4.00   4.00   4.00   3.79   1.28   0.00   0.00      0      0      0       0    2097
 1993 002   144   141   22.0      5   1.91   3519   3466   5243   6987  14914   3583  146.4  0.352   7929      7  0.000  0.000  0.255  0.291   0.84  66.13   0.53      0   7929     54.2   0.00   0.00   1.25   4.00   4.00   4.00   4.00   4.00   4.00   3.79   1.28   0.00   0.00      0      0      0       0    2133
 1993 003   145   142   22.0      5   1.85   3519   3347   5475   6952  15027   3583  152.8  0.364   8160      7  0.000  0.000  0.266  0.578   0.82  67.09   0.54      0   8160     52.7   0.00   0.00   1.25   4.00   4.00   4.00   4.00   4.00   4.00   3.79   1.28   0.00   0.00      0      0      0       0    2167
 1993 004   146   143   22.0      5   1.80   3519   3260   5744   6917  15208   3583  160.3  0.378   8429      7  0.000  0.000  0.274  0.551   0.80  68.14   0.55      0   8429     51.2   0.00   0.00   1.25   4.00   4.00   4.00   4.00   4.00   4.00   3.79   1.28   0.00   0.00      0      0      0       0    2202
 1993 005   147   144   22.0      5   1.75   3519   3265   6012   6885  15482   3583  167.8  0.388   8698      7  0.000  0.000  0.288  0.271   0.77  69.12   0.56      0   8698     49.8   0.00   0.00   1.25   3.91   3.91   3.91   3.91   3.91   3.91   3.70   1.25   0.00   0.00      0      0      0       0    2237
 1993 006   148   145   22.0      5   1.70   3519   3300   6281   6868  15785   3583  175.3  0.398   8967      7  0.000  0.000  0.307  0.071   0.73  70.05   0.57      0   8967     48.3   0.00   0.00   1.25   3.95   3.95   3.95   3.91   3.91   3.91   3.69   1.25   0.00   0.00      0      0      0       0    2271
 1993 007   149   146   22.0      5   1.65   3519   3164   6550   6833  15918   3583  182.8  0.411   9235      7  0.000  0.000  0.340  0.033   0.72  70.92   0.58      0   9235     46.8   0.00   0.00   1.25   3.95   3.95   3.95   3.91   3.91   3.91   3.69   1.25   0.00   0.00      0      0      0       0    2306
 1993 008   150   147   22.0      5   1.59   3519   3094   6818   6799  16117   3583  190.3  0.423   9504      7  0.000  0.000  0.381  0.190   0.70  71.74   0.59      0   9504     45.3   0.00   0.00   1.25   3.95   3.95   3.95   3.91   3.91   3.91   3.69   1.25   0.00   0.00      0      0      0       0    2340
 1993 009   151   148   22.0      5   1.54   3519   3117   7064   6777  16386   3583  197.2  0.431   9750      7  0.000  0.000  0.394  0.094   0.67  72.46   0.59      0   9750     43.8   0.00   0.00   1.25   3.97   3.97   3.97   3.91   3.91   3.90   3.68   1.25   0.00   0.00      0      0      0       0    2374
 1993 010   152   149   22.0      5   1.49   3519   3122   7333   6745  16660   3583  204.7  0.440  10018      7  0.000  0.000  0.416  0.035   0.64  73.19   0.60      0  10018     42.3   0.00   0.00   1.25   3.96   3.96   3.96   3.90   3.89   3.88   3.67   1.24   0.00   0.00      0      0      0       0    2408
 1993 011   153   150   22.0      5   1.44   3519   3115   7602   6712  16921   3583  212.2  0.449  10287      7  0.000  0.000  0.450  0.000   0.62  73.89   0.61      0  10287     40.8   0.00   0.00   1.25   3.96   3.96   3.96   3.90   3.89   3.88   3.67   1.24   0.00   0.00      0      0      0       0    2441
 1993 012   154   151   22.0      5   1.38   3519   3086   7870   6678  17160   3583  219.7  0.459  10556      7  0.000  0.000  0.480  0.000   0.61  74.56   0.62      0  10556     39.3   0.00   0.00   1.25   3.96   3.96   3.96   3.90   3.89   3.88   3.67   1.24   0.00   0.00      0      0      0       0    2475
 1993 013   155   152   22.0      5   1.33   3519   2981   8139   6645  17325   3583  227.2  0.470  10824      7  0.000  0.000  0.505  0.000   0.60  75.19   0.62      0  10824     37.8   0.00   0.00   1.25   3.96   3.96   3.96   3.90   3.89   3.88   3.67   1.24   0.00   0.00      0      0      0       0    2508
 1993 014   156   153   22.0      5   1.28   3519   2847   8408   6611  17460   3583  234.7  0.482  11093      7  0.000  0.000  0.529  0.000   0.59  75.79   0.64      0  11093     36.4   0.00   0.00   1.25   3.96   3.96   3.96   3.90   3.89   3.88   3.67   1.24   0.00   0.00      0      0      0       0    2542
 1993 015   157   154   22.0      5   1.23   3519   2771   8676   6578  17652   3583  242.2  0.492  11362      7  0.000  0.000  0.538  0.000   0.58  76.36   0.64      0  11362     34.9   0.00   0.00   1.25   3.96   3.96   3.96   3.90   3.89   3.88   3.67   1.24   0.00   0.00      0      0      0       0    2575
 1993 016   158   155   22.0      5   1.18   3519   2734   8786   6545  17725   3583  245.3  0.496  11472      7  0.000  0.000  0.541  0.000   0.58  76.59   0.65      0  11472     33.6   0.00   0.00   1.25   3.96   3.96   3.96   3.90   3.89   3.88   3.67   1.24   0.00   0.00      0      0      0       0    2607
 1993 017   159   156   22.0      5   1.14   3519   2734   8946   6513  17885   3583  249.7  0.500  11632      7  0.000  0.000  0.532  0.071   0.57  76.91   0.65      0  11632     32.3   0.00   0.00   1.25   3.96   3.96   3.96   3.90   3.89   3.88   3.67   1.24   0.00   0.00      0      0      0       0    2640
 1993 018   160   157   22.0      5   1.09   3519   2734   9098   6480  18037   3583  254.0  0.504  11784      7  0.000  0.000  0.538  0.021   0.56  77.21   0.65      0  11784     31.0   0.00   0.00   1.25   3.96   3.96   3.96   3.90   3.89   3.88   3.67   1.24   0.00   0.00      0      0      0       0    2673
 1993 019   161   158   22.0      5   1.09   3519   2734   9098   6480  18037   3583  254.0  0.504  11784      7  0.000  0.000  0.538  0.021   0.56  77.21   0.65      0  11784     31.0   0.00   0.00   1.25   3.96   3.96   3.96   3.90   3.89   3.88   3.67   1.24   0.00   0.00      0      0      0       0    2673
 1993 020   162   159   22.0      5   1.09   3519   2734   9098   6480  18037   3583  254.0  0.504  11784      7  0.000  0.000  0.538  0.021   0.56  77.21   0.65      0  11784     31.0   0.00   0.00   1.25   3.96   3.96   3.96   3.90   3.89   3.88   3.67   1.24   0.00   0.00      0      0      0       0    2673
 1993 021   163   160   22.0      5   1.09   3519   2734   9098   6480  18037   3583  254.0  0.504  11784      7  0.000  0.000  0.538  0.021   0.56  77.21   0.65      0  11784     31.0   0.00   0.00   1.25   3.96   3.96   3.96   3.90   3.89   3.88   3.67   1.24   0.00   0.00      0      0      0       0    2673
