*SOIL-PLANT-ATMOSPHERE MODULE OUTPUT FILE

*DSSAT Cropping System Model Ver. 4.0.2.000               Aug 03, 2016; 15:38:15

*RUN   1        : UYMZ                    
 MODEL          : MZCER040 - Maize           
 EXPERIMENT     : UYMZ0131 MZ    late to create DSS                             
 TREATMENT  1   : UYMZ                    

@YEAR DOY   DAS   SRAA   TMXA   TMNA   EOAA   ETAA   EPAA   ESAA   EFAD   ETAC   EPAC   ESAC   EFAC
 1987 227     0   7.10  17.00  10.00  1.514  1.514  0.000  1.514  0.000    1.5    0.0    1.5    0.0
 1987 228     1  16.10  13.10   6.40  3.132  3.132  0.000  3.132  0.000    4.6    0.0    4.6    0.0
 1987 229     2   5.70   8.20   5.10  1.012  1.012  0.000  1.012  0.000    5.7    0.0    5.7    0.0
 1987 230     3   6.10  10.40   5.90  1.132  1.132  0.000  1.132  0.000    6.8    0.0    6.8    0.0
 1987 231     4  14.00  10.40   3.60  2.534  2.534  0.000  2.534  0.000    9.3    0.0    9.3    0.0
 1987 232     5   8.60  11.40   4.40  1.596  1.596  0.000  1.596  0.000   10.9    0.0   10.9    0.0
 1987 233     6   6.40  14.10   7.30  1.275  1.060  0.000  1.060  0.000   12.0    0.0   12.0    0.0
 1987 234     7  17.90  18.30   5.20  3.715  3.193  0.000  3.193  0.000   15.2    0.0   15.2    0.0
 1987 235     8  16.60  19.20   4.90  3.480  1.445  0.000  1.445  0.000   16.6    0.0   16.6    0.0
 1987 236     9  11.30  20.60   6.40  2.449  1.111  0.000  1.111  0.000   17.7    0.0   17.7    0.0
 1987 237    10  15.00  22.00  12.90  3.506  0.937  0.000  0.937  0.000   18.7    0.0   18.7    0.0
 1987 238    11  16.70  21.20   7.50  3.686  0.825  0.000  0.825  0.000   19.5    0.0   19.5    0.0
 1987 239    12  13.00  22.40  10.80  3.000  0.746  0.000  0.746  0.000   20.2    0.0   20.2    0.0
 1987 240    13   5.30  17.00  12.70  1.158  1.158  0.000  1.158  0.000   21.4    0.0   21.4    0.0
 1987 241    14   5.40  13.00   8.50  1.071  1.071  0.000  1.071  0.000   22.5    0.0   22.5    0.0
 1987 242    15  18.00  13.80   4.50  3.471  3.471  0.000  3.471  0.000   25.9    0.0   25.9    0.0
 1987 243    16  18.60  14.60   2.80  3.569  2.724  0.000  2.724  0.000   28.7    0.0   28.7    0.0
 1987 244    17  11.70  17.60   5.70  2.416  2.416  0.000  2.416  0.000   31.1    0.0   31.1    0.0
 1987 245    18   5.50  14.60   9.00  1.122  1.122  0.001  1.121  0.000   32.2    0.0   32.2    0.0
 1987 246    19  19.50  17.20   6.00  4.014  1.146  0.006  1.140  0.000   33.3    0.0   33.3    0.0
 1987 247    20  19.40  15.40   3.00  3.775  0.962  0.008  0.954  0.000   34.3    0.0   34.3    0.0
 1987 248    21  11.60  15.90   2.10  2.254  0.842  0.005  0.837  0.000   35.1    0.0   35.1    0.0
 1987 249    22  19.40  15.00   2.40  3.729  0.763  0.008  0.755  0.000   35.9    0.0   35.9    0.0
 1987 250    23  16.20  18.10   4.00  3.314  0.700  0.007  0.693  0.000   36.6    0.0   36.6    0.0
 1987 251    24   9.80  22.40   7.90  2.204  0.650  0.006  0.644  0.000   37.3    0.0   37.2    0.0
 1987 252    25   5.90  21.50  12.30  1.362  0.610  0.005  0.605  0.000   37.9    0.0   37.8    0.0
 1987 253    26  15.60  16.60   7.40  3.225  0.589  0.018  0.571  0.000   38.5    0.1   38.4    0.0
 1987 254    27  19.70  18.30   4.30  4.050  0.569  0.026  0.543  0.000   39.0    0.1   38.9    0.0
 1987 255    28  20.60  18.20   3.30  4.188  0.548  0.030  0.519  0.000   39.6    0.1   39.5    0.0
 1987 256    29  19.20  24.90   6.30  4.397  0.530  0.032  0.497  0.000   40.1    0.2   40.0    0.0
 1987 257    30   6.10  18.30  15.60  1.389  0.491  0.013  0.478  0.000   40.6    0.2   40.4    0.0
 1987 258    31  12.40  16.90   7.00  2.562  2.562  0.029  2.533  0.000   43.2    0.2   43.0    0.0
 1987 259    32  21.50  12.00   3.10  3.964  3.788  0.057  3.731  0.000   46.9    0.2   46.7    0.0
 1987 260    33  15.50  16.80   5.50  3.151  3.151  0.044  3.107  0.000   50.1    0.3   49.8    0.0
 1987 261    34  13.90  16.90   6.10  2.845  1.535  0.047  1.488  0.000   51.6    0.3   51.3    0.0
 1987 262    35  21.20  14.30   3.80  4.079  1.209  0.080  1.129  0.000   52.8    0.4   52.4    0.0
 1987 263    36  20.70  17.00   1.50  4.053  1.030  0.082  0.948  0.000   53.9    0.5   53.4    0.0
 1987 264    37  12.40  13.90   4.20  2.381  0.876  0.043  0.833  0.000   54.8    0.5   54.2    0.0
 1987 265    38  17.10  15.00   1.20  3.238  0.813  0.061  0.752  0.000   55.6    0.6   55.0    0.0
 1987 266    39  16.60  17.30   5.60  3.401  0.744  0.054  0.691  0.000   56.3    0.7   55.6    0.0
 1987 267    40  22.60  20.20   4.60  4.777  0.735  0.093  0.642  0.000   57.0    0.8   56.3    0.0
 1987 268    41  20.00  24.20   5.90  4.512  0.713  0.110  0.603  0.000   57.8    0.9   56.9    0.0
 1987 269    42  16.90  25.40  12.80  4.096  0.705  0.135  0.570  0.000   58.5    1.0   57.5    0.0
 1987 270    43  17.40  20.90  10.30  3.894  0.721  0.179  0.542  0.000   59.2    1.2   58.0    0.0
 1987 271    44  21.10  19.70   7.90  4.541  0.771  0.253  0.518  0.000   60.0    1.4   58.5    0.0
 1987 272    45  19.00  24.70   7.20  4.337  0.773  0.277  0.497  0.000   60.7    1.7   59.0    0.0
 1987 273    46   6.90  20.10  12.00  1.544  1.539  0.117  1.422  0.000   62.3    1.8   60.4    0.0
 1987 274    47  22.60  19.10   8.20  4.815  3.910  0.416  3.493  0.000   66.2    2.2   63.9    0.0
 1987 275    48  20.70  17.00   6.30  4.201  1.852  0.402  1.450  0.000   68.0    2.6   65.4    0.0
 1987 276    49  15.20  19.90   5.40  3.184  1.438  0.326  1.112  0.000   69.5    3.0   66.5    0.0
 1987 277    50  23.10  23.50   9.30  5.250  1.515  0.577  0.938  0.000   71.0    3.5   67.4    0.0
 1987 278    51  23.40  25.00  10.00  5.440  1.508  0.682  0.826  0.000   72.5    4.2   68.3    0.0
 1987 279    52  15.50  24.60   9.50  3.560  1.258  0.511  0.747  0.000   73.7    4.7   69.0    0.0
 1987 280    53   7.90  21.10  13.20  1.786  0.975  0.288  0.687  0.000   74.7    5.0   69.7    0.0
 1987 281    54  14.70  20.50  11.50  3.242  2.417  0.577  1.840  0.000   77.1    5.6   71.5    0.0
 1987 282    55  22.90  21.90   8.10  4.981  1.637  0.966  0.670  0.000   78.8    6.6   72.2    0.0
 1987 283    56  19.90  31.30  11.60  4.988  1.675  1.049  0.626  0.000   80.5    7.6   72.8    0.0
 1987 284    57  15.40  23.20  16.30  3.623  3.623  0.876  2.748  0.000   84.1    8.5   75.6    0.0
 1987 285    58  22.90  22.00  12.00  5.102  5.102  1.366  3.735  0.000   89.2    9.9   79.3    0.0
 1987 286    59  21.10  17.90   8.10  4.284  3.973  1.242  2.731  0.000   93.1   11.1   82.0    0.0
 1987 287    60  12.50  18.80   5.30  2.500  2.500  0.753  1.747  0.000   95.6   11.9   83.8    0.0
 1987 288    61   8.10  17.80  11.50  1.689  1.689  0.523  1.166  0.000   97.3   12.4   85.0    0.0
 1987 289    62  17.80  18.90  10.80  3.735  3.735  1.215  2.520  0.000  101.1   13.6   87.5    0.0
 1987 290    63  26.30  21.00   8.00  5.521  4.998  1.899  3.098  0.000  106.1   15.5   90.6    0.0
 1987 291    64  27.50  21.20   8.00  5.769  4.913  2.111  2.802  0.000  111.0   17.6   93.4    0.0
 1987 292    65  21.60  21.00  10.00  4.584  3.206  1.781  1.425  0.000  114.2   19.4   94.8    0.0
 1987 293    66  26.60  25.40   7.70  5.842  3.482  2.381  1.101  0.000  117.7   21.8   95.9    0.0
 1987 294    67  23.80  25.50  11.70  5.388  3.274  2.343  0.931  0.000  120.9   24.1   96.8    0.0
 1987 295    68  20.80  23.50  12.00  4.583  2.957  2.135  0.822  0.000  123.9   26.2   97.7    0.0
 1987 296    69  23.80  30.00  12.40  5.665  3.538  2.795  0.744  0.000  127.4   29.0   98.4    0.0
 1987 297    70  19.70  26.10  15.90  4.581  3.099  2.415  0.684  0.000  130.5   31.5   99.1    0.0
 1987 298    71  11.30  22.60  16.40  2.517  2.047  1.409  0.637  0.000  132.6   32.9   99.7    0.0
 1987 299    72   9.50  25.20  17.40  2.190  1.896  1.297  0.599  0.000  134.5   34.2  100.3    0.0
 1987 300    73   8.90  21.50  14.90  1.913  1.765  1.199  0.566  0.000  136.2   35.4  100.9    0.0
 1987 301    74  18.20  23.50  13.60  3.952  3.112  2.573  0.539  0.000  139.4   37.9  101.4    0.0
 1987 302    75  27.80  27.50  11.40  6.204  6.204  4.185  2.020  0.000  145.6   42.1  103.4    0.0
 1987 303    76  27.00  31.90  12.40  6.369  6.369  4.447  1.923  0.000  151.9   46.6  105.4    0.0
 1987 304    77  27.40  30.10  14.90  6.428  6.428  4.661  1.767  0.000  158.4   51.2  107.1    0.0
 1987 305    78  14.80  27.20  15.00  3.348  3.130  2.512  0.618  0.000  161.5   53.7  107.8    0.0
 1987 306    79  12.90  28.20  16.50  2.978  2.854  2.295  0.558  0.000  164.3   56.0  108.3    0.0
 1987 307    80  13.30  27.70  13.50  2.973  2.973  2.353  0.620  0.000  167.3   58.4  108.9    0.0
 1987 308    81   8.30  21.00  18.80  1.782  1.782  1.440  0.342  0.000  169.1   59.8  109.3    0.0
 1987 309    82   8.50  20.90  18.30  1.813  1.813  1.486  0.327  0.000  170.9   61.3  109.6    0.0
 1987 310    83  11.60  23.10  13.60  2.441  2.441  2.027  0.414  0.000  173.4   63.3  110.0    0.0
 1987 311    84  29.30  25.20  10.40  6.155  6.155  5.178  0.977  0.000  179.5   68.5  111.0    0.0
 1987 312    85  24.00  24.20  10.30  4.968  4.968  4.227  0.741  0.000  184.5   72.7  111.7    0.0
 1987 313    86  29.20  20.50   7.20  5.598  5.598  4.811  0.788  0.000  190.1   77.6  112.5    0.0
 1987 314    87  28.90  23.40   8.30  5.810  5.810  5.021  0.789  0.000  195.9   82.6  113.3    0.0
 1987 315    88  28.30  26.60  11.40  6.072  6.072  5.286  0.785  0.000  202.0   87.9  114.1    0.0
 1987 316    89  22.00  27.30  13.50  4.834  4.834  4.251  0.583  0.000  206.8   92.1  114.7    0.0
 1987 317    90  24.50  28.90  15.20  5.550  5.550  4.932  0.618  0.000  212.3   97.0  115.3    0.0
 1987 318    91  23.90  28.20  17.20  5.447  5.447  4.892  0.554  0.000  217.8  101.9  115.9    0.0
 1987 319    92  24.90  26.60  15.70  5.500  5.500  4.991  0.509  0.000  223.3  106.9  116.4    0.0
 1987 320    93  29.70  24.20  11.70  6.160  6.160  5.671  0.489  0.000  229.4  112.6  116.9    0.0
 1987 321    94  30.00  29.00  12.10  6.610  6.610  6.118  0.493  0.000  236.1  118.7  117.3    0.0
 1987 322    95  13.50  27.70  15.80  3.013  3.013  2.805  0.207  0.000  239.1  121.5  117.6    0.0
 1987 323    96  14.20  25.10  15.70  3.070  3.070  2.869  0.202  0.000  242.1  124.4  117.8    0.0
 1987 324    97  11.00  21.60  14.00  2.246  2.246  2.105  0.141  0.000  244.4  126.5  117.9    0.0
 1987 325    98  30.50  21.20  10.70  6.022  6.022  5.653  0.369  0.000  250.4  132.1  118.3    0.0
 1987 326    99  30.40  22.30   8.50  5.973  5.973  5.612  0.361  0.000  256.4  137.8  118.6    0.0
 1987 327   100  12.10  22.00  10.70  2.414  2.414  2.270  0.144  0.000  258.8  140.0  118.8    0.0
 1987 328   101  14.40  24.70  15.20  3.083  3.083  2.902  0.181  0.000  261.9  142.9  118.9    0.0
 1987 329   102  18.10  25.00  16.70  3.935  3.935  3.710  0.225  0.000  265.8  146.6  119.2    0.0
 1987 330   103  16.80  24.60  14.30  3.566  3.566  3.367  0.199  0.000  269.4  150.0  119.4    0.0
 1987 331   104  26.30  25.50  13.30  5.597  5.597  5.290  0.307  0.000  275.0  155.3  119.7    0.0
 1987 332   105  30.10  29.50  13.90  6.746  6.746  6.381  0.364  0.000  281.7  161.7  120.0    0.0
 1987 333   106  30.10  32.30  17.20  7.132  7.132  6.754  0.378  0.000  288.9  168.4  120.4    0.0
 1987 334   107  29.60  33.10  19.10  7.170  7.170  6.800  0.369  0.000  296.0  175.2  120.8    0.0
 1987 335   108  29.70  36.40  20.80  8.010  8.010  7.610  0.400  0.000  304.0  182.8  121.2    0.0
 1987 336   109  17.80  30.10  21.10  4.233  4.233  4.029  0.204  0.000  308.3  186.9  121.4    0.0
 1987 337   110   9.30  24.60  19.50  2.055  2.055  1.953  0.102  0.000  310.3  188.8  121.5    0.0
 1987 338   111  11.40  20.00  14.40  2.285  2.285  2.168  0.117  0.000  312.6  191.0  121.6    0.0
 1987 339   112  30.30  25.00  12.30  6.355  6.355  6.022  0.333  0.000  319.0  197.0  121.9    0.0
 1987 340   113  29.60  27.40  13.00  6.428  6.428  6.084  0.344  0.000  325.4  203.1  122.3    0.0
 1987 341   114  11.10  23.80  15.70  2.359  2.359  2.230  0.129  0.000  327.8  205.3  122.4    0.0
 1987 342   115  25.40  24.20  14.80  5.386  5.386  5.087  0.300  0.000  333.1  210.4  122.7    0.0
 1987 343   116  29.00  25.40  12.90  6.146  6.146  5.798  0.348  0.000  339.3  216.2  123.1    0.0
 1987 344   117  31.20  29.20  15.00  7.030  7.030  6.626  0.404  0.000  346.3  222.8  123.5    0.0
 1987 345   118  20.10  27.10  16.60  4.476  4.476  4.215  0.261  0.000  350.8  227.1  123.7    0.0
 1987 346   119  30.60  24.20  12.70  6.382  6.382  6.004  0.378  0.000  357.2  233.1  124.1    0.0
 1987 347   120  31.30  26.30  10.90  6.601  6.601  6.205  0.396  0.000  363.8  239.3  124.5    0.0
 1987 348   121  16.90  26.70  14.00  3.672  3.672  3.449  0.223  0.000  367.4  242.7  124.7    0.0
 1987 349   122  23.60  31.90  16.80  5.557  5.557  5.217  0.341  0.000  373.0  247.9  125.1    0.0
 1987 350   123  10.50  24.30  19.20  2.311  2.311  2.167  0.143  0.000  375.3  250.1  125.2    0.0
 1987 351   124  28.90  24.10  15.10  6.141  6.141  5.759  0.383  0.000  381.5  255.9  125.6    0.0
 1987 352   125  24.50  24.30  12.50  5.110  5.110  4.788  0.322  0.000  386.6  260.6  125.9    0.0
 1987 353   126  29.00  25.30  12.00  6.099  6.099  5.710  0.389  0.000  392.7  266.4  126.3    0.0
 1987 354   127  24.60  25.10  14.70  5.276  5.276  4.934  0.342  0.000  397.9  271.3  126.6    0.0
 1987 355   128  31.80  23.90  12.00  6.575  6.575  6.142  0.433  0.000  404.5  277.4  127.1    0.0
 1987 356   129  23.40  25.00  11.30  4.877  4.877  4.550  0.327  0.000  409.4  282.0  127.4    0.0
 1987 357   130  25.70  25.10  13.10  5.444  5.444  5.072  0.372  0.000  414.8  287.1  127.8    0.0
 1987 358   131  31.60  27.30  12.80  6.858  6.858  6.380  0.478  0.000  421.7  293.4  128.3    0.0
 1987 359   132   9.80  25.70  14.80  2.120  2.120  1.970  0.151  0.000  423.8  295.4  128.4    0.0
 1987 360   133  14.60  27.20  17.80  3.291  3.291  3.052  0.240  0.000  427.1  298.5  128.6    0.0
 1987 361   134  22.70  30.90  17.20  5.312  5.312  4.916  0.396  0.000  432.4  303.4  129.0    0.0
 1987 362   135  18.70  28.90  19.70  4.361  4.361  4.027  0.334  0.000  436.8  307.4  129.4    0.0
 1987 363   136   9.10  24.10  19.50  2.007  2.007  1.849  0.158  0.000  438.8  309.2  129.5    0.0
 1987 364   137  14.40  27.60  18.10  3.272  3.272  3.006  0.266  0.000  442.1  312.3  129.8    0.0
 1987 365   138  24.30  28.10  17.30  5.522  5.522  5.058  0.464  0.000  447.6  317.3  130.3    0.0
 1988 001   139  29.90  30.80  17.80  7.032  7.032  6.420  0.612  0.000  454.6  323.7  130.9    0.0
 1988 002   140  30.80  27.40  19.00  7.040  7.040  6.404  0.636  0.000  461.7  330.1  131.5    0.0
 1988 003   141  28.70  31.70  18.30  6.848  6.848  6.204  0.644  0.000  468.5  336.3  132.2    0.0
 1988 004   142  31.30  34.30  19.10  7.726  7.726  6.968  0.759  0.000  476.2  343.3  132.9    0.0
 1988 005   143  17.40  27.90  18.70  3.997  3.997  3.587  0.410  0.000  480.2  346.9  133.3    0.0
 1988 006   144  31.50  22.00  12.70  6.433  6.433  5.742  0.691  0.000  486.7  352.6  134.0    0.0
 1988 007   145  31.30  27.00  10.70  6.694  6.694  5.940  0.754  0.000  493.3  358.6  134.8    0.0
 1988 008   146  28.70  29.10  14.20  6.473  6.473  5.708  0.766  0.000  499.8  364.3  135.5    0.0
 1988 009   147  31.30  30.70  17.40  7.369  7.369  6.454  0.915  0.000  507.2  370.7  136.5    0.0
 1988 010   148  26.20  33.80  17.30  6.381  6.381  5.548  0.832  0.000  513.6  376.3  137.3    0.0
 1988 011   149  22.70  34.70  19.40  5.669  5.669  4.892  0.777  0.000  519.2  381.2  138.1    0.0
 1988 012   150  28.30  34.70  20.60  7.134  7.134  6.105  1.029  0.000  526.4  387.3  139.1    0.0
 1988 013   151  12.40  24.90  19.00  2.778  2.778  2.356  0.422  0.000  529.2  389.6  139.5    0.0
 1988 014   152  26.10  29.60  18.00  6.129  6.129  5.147  0.982  0.000  535.3  394.8  140.5    0.0
 1988 015   153  25.30  29.90  16.40  5.898  5.898  4.900  0.997  0.000  541.2  399.7  141.5    0.0
 1988 016   154  20.90  27.10  19.50  4.838  4.838  3.975  0.863  0.000  546.0  403.7  142.4    0.0
 1988 017   155  26.10  37.70  19.50  7.608  7.608  6.174  1.434  0.000  553.6  409.8  143.8    0.0
 1988 018   156   8.90  26.70  19.50  2.057  2.057  1.648  0.409  0.000  555.7  411.5  144.2    0.0
 1988 019   157   8.90  23.20  18.90  1.969  1.969  1.555  0.414  0.000  557.7  413.0  144.6    0.0
 1988 020   158  10.00  24.30  19.10  2.249  2.249  1.749  0.500  0.000  559.9  414.8  145.1    0.0
 1988 021   159  14.40  24.00  18.40  3.215  3.215  2.462  0.753  0.000  563.1  417.2  145.9    0.0
 1988 022   160  29.30  26.40  14.20  6.523  6.523  4.912  1.611  0.000  569.6  422.2  147.5    0.0
 1988 023   161  30.50  25.00  16.90  6.835  6.835  5.058  1.777  0.000  576.5  427.2  149.3    0.0
 1988 024   162  24.80  29.70  14.80  5.775  5.775  4.273  1.501  0.000  582.2  431.5  150.8    0.0
 1988 025   163  25.50  30.50  21.00  6.271  6.063  4.641  1.422  0.000  588.3  436.1  152.2    0.0
 1988 026   164  25.30  30.10  21.00  6.195  6.195  4.584  1.611  0.000  594.5  440.7  153.8    0.0

*DSSAT Cropping System Model Ver. 4.0.2.000               Aug 03, 2016; 15:38:15

*RUN   2        : UYMZ                    
 MODEL          : MZCER040 - Maize           
 EXPERIMENT     : UYMZ0131 MZ    late to create DSS                             
 TREATMENT  1   : UYMZ                    

@YEAR DOY   DAS   SRAA   TMXA   TMNA   EOAA   ETAA   EPAA   ESAA   EFAD   ETAC   EPAC   ESAC   EFAC
 1988 227     0   4.80  22.90  14.10  1.146  1.146  0.000  1.146  0.000    1.1    0.0    1.1    0.0
 1988 228     1   8.40  22.90   7.90  1.903  1.569  0.000  1.569  0.000    2.7    0.0    2.7    0.0
 1988 229     2  14.30  18.60   5.40  2.986  2.986  0.000  2.986  0.000    5.7    0.0    5.7    0.0
 1988 230     3  13.30  19.20   3.70  2.757  2.757  0.000  2.757  0.000    8.5    0.0    8.5    0.0
 1988 231     4  15.80  24.40   7.10  3.624  3.472  0.000  3.472  0.000   11.9    0.0   11.9    0.0
 1988 232     5   6.60  26.20  14.50  1.645  1.645  0.000  1.645  0.000   13.6    0.0   13.6    0.0
 1988 233     6  12.30  21.20   9.30  2.758  2.758  0.000  2.758  0.000   16.3    0.0   16.3    0.0
 1988 234     7  17.20  20.20   6.80  3.721  3.529  0.000  3.529  0.000   19.9    0.0   19.9    0.0
 1988 235     8  17.70  22.50   5.20  3.894  3.224  0.000  3.224  0.000   23.1    0.0   23.1    0.0
 1988 236     9  15.90  29.70  14.40  4.126  1.446  0.000  1.446  0.000   24.5    0.0   24.5    0.0
 1988 237    10  12.90  25.30   8.60  3.032  1.111  0.000  1.111  0.000   25.6    0.0   25.6    0.0
 1988 238    11  17.20  17.70   4.90  3.529  0.937  0.000  0.937  0.000   26.6    0.0   26.6    0.0
 1988 239    12  17.30  11.90  -0.30  3.075  0.829  0.003  0.826  0.000   27.4    0.0   27.4    0.0
 1988 240    13  17.00  14.40  -2.00  3.090  0.748  0.002  0.747  0.000   28.2    0.0   28.2    0.0
 1988 241    14  10.80  16.10   0.00  2.060  0.687  0.001  0.687  0.000   28.8    0.0   28.8    0.0
 1988 242    15  14.80  21.90  10.30  3.379  0.640  0.001  0.639  0.000   29.5    0.0   29.5    0.0
 1988 243    16  17.80  20.80   5.50  3.836  0.606  0.006  0.600  0.000   30.1    0.0   30.1    0.0
 1988 244    17  17.70  21.00   5.10  3.810  0.578  0.010  0.568  0.000   30.7    0.0   30.6    0.0
 1988 245    18  18.20  14.50   3.30  3.503  0.552  0.012  0.540  0.000   31.2    0.0   31.2    0.0
 1988 246    19  18.60  12.40  -1.10  3.303  0.528  0.012  0.516  0.000   31.8    0.0   31.7    0.0
 1988 247    20  18.70  14.90  -0.10  3.497  0.501  0.006  0.495  0.000   32.3    0.1   32.2    0.0
 1988 248    21  19.50  20.40   0.60  3.991  0.482  0.005  0.476  0.000   32.7    0.1   32.7    0.0
 1988 249    22   9.30  25.00   7.90  2.164  0.463  0.003  0.460  0.000   33.2    0.1   33.1    0.0
 1988 250    23   7.20  18.90  12.20  1.606  0.450  0.005  0.444  0.000   33.6    0.1   33.6    0.0
 1988 251    24   7.20  20.40  12.10  1.636  1.636  0.008  1.628  0.000   35.3    0.1   35.2    0.0
 1988 252    25  14.20  24.60  14.80  3.478  1.435  0.023  1.412  0.000   36.7    0.1   36.6    0.0
 1988 253    26   7.80  18.40  10.60  1.701  1.701  0.026  1.675  0.000   38.4    0.1   38.3    0.0
 1988 254    27   6.00  12.40   9.70  1.190  1.190  0.024  1.166  0.000   39.6    0.1   39.5    0.0
 1988 255    28  12.40  19.40  10.40  2.732  2.732  0.061  2.671  0.000   42.3    0.2   42.1    0.0
 1988 256    29  18.60  21.30   8.90  4.145  3.398  0.114  3.283  0.000   45.7    0.3   45.4    0.0
 1988 257    30  19.50  22.30   6.00  4.287  2.703  0.149  2.554  0.000   48.4    0.5   48.0    0.0
 1988 258    31  20.80  16.80   4.60  4.174  1.574  0.174  1.400  0.000   50.0    0.6   49.4    0.0
 1988 259    32  21.20  13.20   0.30  3.849  1.262  0.172  1.090  0.000   51.3    0.8   50.5    0.0
 1988 260    33  18.30  13.70   0.90  3.378  1.030  0.106  0.924  0.000   52.3    0.9   51.4    0.0
 1988 261    34  15.90  13.90   2.00  2.982  0.889  0.073  0.817  0.000   53.2    1.0   52.2    0.0
 1988 262    35  11.60  19.40   8.40  2.511  0.795  0.055  0.740  0.000   54.0    1.1   52.9    0.0
 1988 263    36  15.90  23.10   8.40  3.611  0.785  0.103  0.682  0.000   54.8    1.2   53.6    0.0
 1988 264    37  11.10  23.60  13.40  2.643  0.737  0.102  0.635  0.000   55.5    1.3   54.3    0.0
 1988 265    38   6.50  18.00  15.50  1.464  1.464  0.076  1.388  0.000   57.0    1.3   55.6    0.0
 1988 266    39   6.80  19.70  15.50  1.563  1.563  0.099  1.464  0.000   58.5    1.4   57.1    0.0
 1988 267    40  10.80  24.10  15.10  2.608  2.608  0.201  2.407  0.000   61.1    1.6   59.5    0.0
 1988 268    41  12.00  16.80   9.60  2.506  2.506  0.237  2.268  0.000   63.7    1.9   61.8    0.0
 1988 269    42   6.80  17.60   7.00  1.400  1.400  0.142  1.258  0.000   65.1    2.0   63.0    0.0
 1988 270    43   6.70  12.40   9.90  1.314  1.314  0.141  1.173  0.000   66.4    2.2   64.2    0.0
 1988 271    44   9.40  17.70  10.50  1.999  1.999  0.223  1.776  0.000   68.4    2.4   66.0    0.0
 1988 272    45  19.90  17.80   8.30  4.148  4.148  0.496  3.651  0.000   72.5    2.9   69.6    0.0
 1988 273    46  23.60  21.10   8.10  5.131  3.568  0.651  2.917  0.000   76.1    3.5   72.6    0.0
 1988 274    47  24.00  22.30   7.70  5.273  2.605  0.736  1.868  0.000   78.7    4.3   74.4    0.0
 1988 275    48  19.60  26.20  11.60  4.664  1.989  0.724  1.264  0.000   80.7    5.0   75.7    0.0
 1988 276    49  11.90  25.10  13.20  2.821  1.529  0.506  1.023  0.000   82.2    5.5   76.7    0.0
 1988 277    50  17.00  15.70   9.40  3.432  3.432  0.698  2.734  0.000   85.6    6.2   79.4    0.0
 1988 278    51  24.30  20.00   9.30  5.193  4.867  1.111  3.756  0.000   90.5    7.3   83.2    0.0
 1988 279    52  25.20  19.80   7.00  5.247  4.254  1.210  3.044  0.000   94.8    8.5   86.2    0.0
 1988 280    53  25.00  22.10   6.00  5.310  2.742  1.303  1.440  0.000   97.5    9.8   87.7    0.0
 1988 281    54  24.90  24.50   6.60  5.473  2.547  1.439  1.108  0.000  100.0   11.3   88.8    0.0
 1988 282    55  21.80  25.30  10.20  4.974  2.352  1.417  0.935  0.000  102.4   12.7   89.7    0.0
 1988 283    56  11.20  20.90  10.40  2.409  1.585  0.760  0.824  0.000  104.0   13.4   90.6    0.0
 1988 284    57  23.30  21.70   8.20  4.950  2.418  1.672  0.746  0.000  106.4   15.1   91.3    0.0
 1988 285    58  20.90  24.10  11.40  4.691  3.294  1.694  1.600  0.000  109.7   16.8   92.9    0.0
 1988 286    59  25.30  24.10   9.90  5.581  2.904  2.187  0.717  0.000  112.6   19.0   93.6    0.0
 1988 287    60  19.90  19.20   8.30  4.043  2.349  1.685  0.663  0.000  114.9   20.7   94.3    0.0
 1988 288    61  19.90  23.20   8.60  4.265  2.470  1.849  0.620  0.000  117.4   22.5   94.9    0.0
 1988 289    62  20.90  17.50   4.20  3.964  2.397  1.812  0.584  0.000  119.8   24.3   95.5    0.0
 1988 290    63  26.20  19.10   3.10  5.033  2.853  2.299  0.554  0.000  122.7   26.6   96.0    0.0
 1988 291    64  20.70  22.00   4.70  4.214  2.380  1.852  0.528  0.000  125.0   28.5   96.6    0.0
 1988 292    65  24.60  26.50   8.30  5.469  2.972  2.466  0.506  0.000  128.0   30.9   97.1    0.0
 1988 293    66  11.50  21.70  12.30  2.479  2.479  1.183  1.296  0.000  130.5   32.1   98.4    0.0
 1988 294    67  26.50  23.90   9.50  5.715  5.715  2.868  2.847  0.000  136.2   35.0  101.2    0.0
 1988 295    68  23.70  26.60   6.90  5.153  4.926  2.730  2.196  0.000  141.1   37.7  103.4    0.0
 1988 296    69  14.40  27.50  13.90  3.336  3.336  1.857  1.479  0.000  144.5   39.6  104.9    0.0
 1988 297    70  27.40  25.20  12.20  6.059  5.716  3.591  2.125  0.000  150.2   43.2  107.0    0.0
 1988 298    71  25.70  26.50   9.50  5.625  4.819  3.490  1.329  0.000  155.0   46.7  108.3    0.0
 1988 299    72  12.90  18.10  11.20  2.561  2.561  1.651  0.910  0.000  157.6   48.3  109.3    0.0
 1988 300    73  27.30  17.90   6.10  5.145  5.145  3.393  1.752  0.000  162.7   51.7  111.0    0.0
 1988 301    74  27.40  24.60   5.90  5.639  5.209  3.770  1.439  0.000  167.9   55.5  112.4    0.0
 1988 302    75  28.10  28.30   9.00  6.202  5.352  4.244  1.108  0.000  173.3   59.7  113.6    0.0
 1988 303    76  24.80  32.80  12.10  5.890  5.890  4.156  1.734  0.000  179.2   63.9  115.3    0.0
 1988 304    77   9.70  23.70  12.70  2.071  2.071  1.517  0.554  0.000  181.2   65.4  115.8    0.0
 1988 305    78  24.60  20.00  11.60  4.950  4.950  3.711  1.239  0.000  186.2   69.1  117.1    0.0
 1988 306    79  28.90  19.90   8.40  5.634  5.634  4.293  1.342  0.000  191.8   73.4  118.4    0.0
 1988 307    80  29.00  22.30   4.60  5.636  5.636  4.345  1.292  0.000  197.5   77.7  119.7    0.0
 1988 308    81  28.90  24.70   9.90  6.067  6.067  4.693  1.373  0.000  203.5   82.4  121.1    0.0
 1988 309    82  28.20  27.00   9.90  6.079  5.862  4.783  1.079  0.000  209.4   87.2  122.2    0.0
 1988 310    83  29.20  30.20  11.90  6.629  6.629  5.308  1.321  0.000  216.0   92.5  123.5    0.0
 1988 311    84  29.10  31.00  13.00  6.708  6.708  5.480  1.228  0.000  222.7   98.0  124.7    0.0
 1988 312    85  29.30  31.50  14.70  6.864  6.864  5.717  1.146  0.000  229.6  103.7  125.9    0.0
 1988 313    86  22.50  27.00  15.30  5.018  5.018  4.259  0.759  0.000  234.6  108.0  126.6    0.0
 1988 314    87  29.00  26.80  12.30  6.291  6.291  5.417  0.874  0.000  240.9  113.4  127.5    0.0
 1988 315    88  22.10  26.00   7.70  4.565  4.565  3.976  0.589  0.000  245.5  117.4  128.1    0.0
 1988 316    89  19.00  26.10  15.40  4.179  4.179  3.669  0.510  0.000  249.6  121.0  128.6    0.0
 1988 317    90  23.90  25.20  14.90  5.174  5.174  4.591  0.582  0.000  254.8  125.6  129.2    0.0
 1988 318    91  29.90  29.90  12.70  6.716  6.716  6.015  0.700  0.000  261.5  131.7  129.9    0.0
 1988 319    92  29.40  25.20  12.70  6.238  6.238  5.639  0.600  0.000  267.8  137.3  130.5    0.0
 1988 320    93  28.80  27.80  10.60  6.188  6.188  5.682  0.506  0.000  274.0  143.0  131.0    0.0
 1988 321    94  26.70  34.40  13.30  6.310  6.310  5.840  0.470  0.000  280.3  148.8  131.5    0.0
 1988 322    95  28.80  34.60  18.80  7.087  7.087  6.606  0.482  0.000  287.4  155.4  131.9    0.0
 1988 323    96  10.50  26.60  19.00  2.369  2.369  2.221  0.149  0.000  289.7  157.6  132.1    0.0
 1988 324    97  26.30  29.50  19.70  6.162  6.162  5.782  0.380  0.000  295.9  163.4  132.5    0.0
 1988 325    98  21.00  29.40  17.70  4.841  4.841  4.554  0.287  0.000  300.7  168.0  132.8    0.0
 1988 326    99   8.90  22.60  12.10  1.810  1.810  1.706  0.104  0.000  302.5  169.7  132.9    0.0
 1988 327   100  26.30  21.70  11.30  5.252  5.252  4.948  0.304  0.000  307.8  174.6  133.2    0.0
 1988 328   101  30.40  24.80   8.60  6.172  6.172  5.813  0.359  0.000  314.0  180.4  133.5    0.0
 1988 329   102  30.90  26.00  11.70  6.534  6.534  6.151  0.383  0.000  320.5  186.6  133.9    0.0
 1988 330   103  30.80  29.10  11.30  6.738  6.738  6.343  0.395  0.000  327.2  192.9  134.3    0.0
 1988 331   104  17.80  27.70  14.60  3.930  3.930  3.701  0.230  0.000  331.2  196.6  134.5    0.0
 1988 332   105  31.10  21.10   8.60  6.018  6.018  5.668  0.350  0.000  337.2  202.3  134.9    0.0
 1988 333   106  30.50  23.40   8.00  6.052  6.052  5.695  0.357  0.000  343.2  208.0  135.2    0.0
 1988 334   107  30.70  26.50   9.90  6.438  6.438  6.052  0.386  0.000  349.7  214.0  135.6    0.0
 1988 335   108  30.40  28.40  11.90  6.628  6.628  6.228  0.400  0.000  356.3  220.3  136.0    0.0
 1988 336   109  23.90  27.60  15.20  5.297  5.297  4.977  0.320  0.000  361.6  225.3  136.3    0.0
 1988 337   110  26.30  28.80  14.80  5.892  5.892  5.537  0.356  0.000  367.5  230.8  136.7    0.0
 1988 338   111  30.60  32.00  15.50  7.147  7.147  6.699  0.448  0.000  374.6  237.5  137.1    0.0
 1988 339   112  30.40  33.60  17.70  7.342  7.342  6.865  0.477  0.000  382.0  244.4  137.6    0.0
 1988 340   113  33.00  36.70  15.50  8.738  8.738  8.155  0.583  0.000  390.7  252.5  138.2    0.0
 1988 341   114  23.30  35.60  17.20  5.887  5.887  5.484  0.403  0.000  396.6  258.0  138.6    0.0
 1988 342   115  15.50  29.10  17.50  3.561  3.561  3.312  0.249  0.000  400.2  261.3  138.9    0.0
 1988 343   116  22.00  27.60  14.10  4.842  4.842  4.495  0.346  0.000  405.0  265.8  139.2    0.0
 1988 344   117  28.00  28.50  12.60  6.156  6.156  5.707  0.449  0.000  411.2  271.5  139.7    0.0
 1988 345   118  29.00  30.00  11.40  6.429  6.429  5.952  0.478  0.000  417.6  277.5  140.1    0.0
 1988 346   119  31.40  34.00  14.90  7.476  7.476  6.911  0.565  0.000  425.1  284.4  140.7    0.0
 1988 347   120   9.20  23.10  17.90  1.979  1.979  1.827  0.152  0.000  427.0  286.2  140.9    0.0
 1988 348   121  26.80  27.80  17.70  6.083  6.083  5.609  0.474  0.000  433.1  291.8  141.3    0.0
 1988 349   122  31.80  30.00  12.60  7.120  7.120  6.559  0.562  0.000  440.3  298.4  141.9    0.0
 1988 350   123  32.10  28.50  16.40  7.275  7.275  6.689  0.585  0.000  447.5  305.1  142.5    0.0
 1988 351   124  30.60  31.20  12.90  6.965  6.965  6.392  0.573  0.000  454.5  311.4  143.0    0.0
 1988 352   125  19.60  32.50  17.10  4.670  4.670  4.276  0.394  0.000  459.2  315.7  143.4    0.0
 1988 353   126  30.40  30.90  18.10  7.173  7.173  6.551  0.622  0.000  466.3  322.3  144.1    0.0
 1988 354   127  22.30  29.80  16.10  5.123  5.123  4.666  0.457  0.000  471.5  326.9  144.5    0.0
 1988 355   128  30.80  26.10  10.20  6.471  6.471  5.875  0.595  0.000  477.9  332.8  145.1    0.0
 1988 356   129  31.80  28.30  11.00  6.908  6.908  6.251  0.657  0.000  484.8  339.1  145.8    0.0
 1988 357   130  20.30  28.80  20.10  4.757  4.757  4.289  0.468  0.000  489.6  343.4  146.2    0.0
 1988 358   131  27.20  33.60  16.40  6.541  6.541  5.876  0.665  0.000  496.1  349.2  146.9    0.0
 1988 359   132  30.90  34.90  15.40  7.486  7.486  6.696  0.789  0.000  503.6  355.9  147.7    0.0
 1988 360   133  31.80  35.00  19.70  7.952  7.952  7.082  0.870  0.000  511.6  363.0  148.6    0.0
 1988 361   134  26.30  35.60  19.10  6.775  6.775  6.004  0.771  0.000  518.3  369.0  149.3    0.0
 1988 362   135  15.10  30.50  21.00  3.639  3.639  3.207  0.431  0.000  522.0  372.2  149.8    0.0
 1988 363   136  23.50  30.50  18.00  5.545  5.545  4.859  0.685  0.000  527.5  377.1  150.5    0.0
 1988 364   137  30.50  28.00  11.30  6.649  6.649  5.791  0.858  0.000  534.2  382.9  151.3    0.0
 1988 365   138  31.30  29.60  12.20  7.009  7.009  6.062  0.946  0.000  541.2  388.9  152.3    0.0
 1988 366   139  31.50  33.20  16.10  7.568  7.568  6.498  1.070  0.000  548.8  395.4  153.3    0.0
 1989 001   140  30.10  36.10  19.80  8.043  8.043  6.852  1.191  0.000  556.8  402.3  154.5    0.0
 1989 002   141  30.90  36.10  19.20  8.231  8.231  6.953  1.279  0.000  565.0  409.2  155.8    0.0
 1989 003   142  31.30  35.00  16.60  7.718  7.718  6.459  1.259  0.000  572.7  415.7  157.1    0.0
 1989 004   143  31.30  36.30  19.30  8.452  8.353  7.004  1.350  0.000  581.1  422.7  158.4    0.0
 1989 005   144  31.50  35.60  18.80  8.174  8.174  6.700  1.474  0.000  589.3  429.4  159.9    0.0
 1989 006   145  22.70  34.80  19.60  5.726  5.726  4.639  1.087  0.000  595.0  434.0  161.0    0.0
 1989 007   146  20.20  34.10  21.10  5.119  5.119  4.096  1.023  0.000  600.1  438.1  162.0    0.0
 1989 008   147  25.50  32.00  18.80  6.228  6.228  4.917  1.311  0.000  606.3  443.1  163.3    0.0
 1989 009   148  30.40  32.40  14.00  7.213  7.015  5.612  1.402  0.000  613.4  448.7  164.7    0.0
 1989 010   149  26.70  32.60  16.50  6.477  6.477  4.964  1.514  0.000  619.8  453.6  166.2    0.0
 1989 011   150  27.70  32.00  19.00  6.810  6.810  5.134  1.676  0.000  626.7  458.8  167.9    0.0
 1989 012   151  29.90  32.90  16.50  7.305  7.305  5.411  1.894  0.000  634.0  464.2  169.8    0.0
 1989 013   152  29.90  31.60  13.60  7.063  6.658  5.134  1.523  0.000  640.6  469.3  171.3    0.0
 1989 014   153  30.20  32.00  14.10  7.208  7.208  5.137  2.071  0.000  647.8  474.4  173.4    0.0
 1989 015   154  20.10  32.90  17.40  4.974  4.974  3.471  1.503  0.000  652.8  477.9  174.9    0.0
 1989 016   155  28.70  30.00  16.70  6.860  6.860  4.684  2.176  0.000  659.7  482.6  177.1    0.0
 1989 017   156  30.10  35.40  12.60  7.544  7.544  5.151  2.393  0.000  667.2  487.7  179.5    0.0
 1989 018   157  14.00  31.10  18.90  3.442  3.442  2.350  1.092  0.000  670.6  490.1  180.5    0.0

*DSSAT Cropping System Model Ver. 4.0.2.000               Aug 03, 2016; 15:38:15

*RUN   3        : UYMZ                    
 MODEL          : MZCER040 - Maize           
 EXPERIMENT     : UYMZ0131 MZ    late to create DSS                             
 TREATMENT  1   : UYMZ                    

@YEAR DOY   DAS   SRAA   TMXA   TMNA   EOAA   ETAA   EPAA   ESAA   EFAD   ETAC   EPAC   ESAC   EFAC
 1989 227     0  16.80  24.60   8.30  3.903  3.617  0.000  3.617  0.000    3.6    0.0    3.6    0.0
 1989 228     1  16.60  28.50   9.40  4.085  3.096  0.000  3.096  0.000    6.7    0.0    6.7    0.0
 1989 229     2  13.90  24.70  13.20  3.368  1.442  0.000  1.442  0.000    8.2    0.0    8.2    0.0
 1989 230     3  14.20  30.40  11.80  3.641  0.885  0.000  0.885  0.000    9.0    0.0    9.0    0.0
 1989 231     4   5.00  22.30  14.90  1.193  1.193  0.000  1.193  0.000   10.2    0.0   10.2    0.0
 1989 232     5   5.00  17.20  14.80  1.116  1.116  0.000  1.116  0.000   11.3    0.0   11.3    0.0
 1989 233     6   5.00  18.60  14.00  1.129  1.129  0.000  1.129  0.000   12.5    0.0   12.5    0.0
 1989 234     7   6.10  12.50   6.50  1.177  1.177  0.000  1.177  0.000   13.7    0.0   13.7    0.0
 1989 235     8  12.90  15.80   7.10  2.630  2.630  0.000  2.630  0.000   16.3    0.0   16.3    0.0
 1989 236     9   8.40  17.30   5.90  1.730  1.730  0.000  1.730  0.000   18.0    0.0   18.0    0.0
 1989 237    10  17.50  16.00   6.50  3.558  2.320  0.000  2.320  0.000   20.3    0.0   20.3    0.0
 1989 238    11  11.00  19.60   3.30  2.284  2.105  0.000  2.105  0.000   22.4    0.0   22.4    0.0
 1989 239    12  18.90  14.10   2.60  3.591  1.324  0.000  1.324  0.000   23.8    0.0   23.8    0.0
 1989 240    13  18.10  18.40   1.30  3.623  1.054  0.000  1.054  0.000   24.8    0.0   24.8    0.0
 1989 241    14  19.10  25.40   5.80  4.389  0.902  0.000  0.902  0.000   25.7    0.0   25.7    0.0
 1989 242    15  11.40  26.50   0.00  2.526  0.801  0.000  0.801  0.000   26.5    0.0   26.5    0.0
 1989 243    16   6.70  14.30   9.00  1.362  1.362  0.000  1.362  0.000   27.9    0.0   27.9    0.0
 1989 244    17  19.00  15.20   6.70  3.826  3.826  0.000  3.826  0.000   31.7    0.0   31.7    0.0
 1989 245    18  19.20  17.20   2.50  3.820  2.618  0.003  2.615  0.000   34.3    0.0   34.3    0.0
 1989 246    19  18.70  22.40   6.40  4.152  2.139  0.005  2.135  0.000   36.5    0.0   36.5    0.0
 1989 247    20  19.00  26.20  10.70  4.593  1.341  0.010  1.331  0.000   37.8    0.0   37.8    0.0
 1989 248    21   9.00  16.80  10.50  1.921  1.065  0.008  1.057  0.000   38.9    0.0   38.8    0.0
 1989 249    22  18.20  14.90   6.50  3.638  3.638  0.019  3.620  0.000   42.5    0.0   42.5    0.0
 1989 250    23  20.10  17.60   4.70  4.107  3.296  0.023  3.273  0.000   45.8    0.1   45.7    0.0
 1989 251    24  16.00  18.00   2.20  3.209  2.509  0.020  2.489  0.000   48.3    0.1   48.2    0.0
 1989 252    25  15.40  19.50   8.70  3.355  1.412  0.020  1.392  0.000   49.7    0.1   49.6    0.0
 1989 253    26  10.90  19.70   8.30  2.372  1.103  0.017  1.086  0.000   50.8    0.1   50.7    0.0
 1989 254    27   6.40  18.80  12.10  1.423  1.423  0.012  1.411  0.000   52.3    0.1   52.1    0.0
 1989 255    28   6.30  19.10  13.20  1.420  1.420  0.014  1.405  0.000   53.7    0.2   53.5    0.0
 1989 256    29   6.10  15.90  13.00  1.314  1.314  0.016  1.298  0.000   55.0    0.2   54.8    0.0
 1989 257    30   9.10  16.30  11.40  1.941  1.483  0.032  1.450  0.000   56.5    0.2   56.3    0.0
 1989 258    31  19.60  15.10   7.40  3.955  2.084  0.084  2.000  0.000   58.6    0.3   58.3    0.0
 1989 259    32  14.10  17.60   6.40  2.920  1.283  0.071  1.212  0.000   59.8    0.4   59.5    0.0
 1989 260    33  21.80  20.00   3.90  4.559  1.123  0.128  0.995  0.000   61.0    0.5   60.5    0.0
 1989 261    34  22.00  21.70   6.00  4.800  1.015  0.151  0.864  0.000   62.0    0.6   61.3    0.0
 1989 262    35  21.70  24.80  10.60  5.124  0.970  0.196  0.775  0.000   62.9    0.8   62.1    0.0
 1989 263    36  22.30  25.50   8.30  5.202  0.966  0.258  0.708  0.000   63.9    1.1   62.8    0.0
 1989 264    37  20.10  26.10  10.00  4.783  0.949  0.293  0.656  0.000   64.9    1.4   63.5    0.0
 1989 265    38   7.10  18.60  15.20  1.602  1.602  0.120  1.482  0.000   66.5    1.5   65.0    0.0
 1989 266    39   7.80  16.90  10.30  1.644  1.644  0.141  1.503  0.000   68.1    1.6   66.5    0.0
 1989 267    40  10.50  11.20   7.20  1.972  1.972  0.184  1.788  0.000   70.1    1.8   68.3    0.0
 1989 268    41  14.00  12.60   5.70  2.646  2.646  0.250  2.396  0.000   72.7    2.1   70.6    0.0
 1989 269    42  17.20  14.40   4.80  3.310  2.239  0.318  1.920  0.000   75.0    2.4   72.6    0.0
 1989 270    43  23.20  13.70   3.90  4.375  2.671  0.427  2.244  0.000   77.6    2.8   74.8    0.0
 1989 271    44  15.30  17.00   3.20  3.013  1.642  0.290  1.353  0.000   79.3    3.1   76.2    0.0
 1989 272    45  23.60  18.40   3.60  4.764  1.509  0.441  1.067  0.000   80.8    3.6   77.2    0.0
 1989 273    46  21.10  22.20   7.70  4.661  1.347  0.436  0.911  0.000   82.1    4.0   78.1    0.0
 1989 274    47  18.80  26.00   9.20  4.409  1.275  0.468  0.807  0.000   83.4    4.5   79.0    0.0
 1989 275    48   9.50  26.40  11.90  2.283  1.015  0.282  0.733  0.000   84.4    4.7   79.7    0.0
 1989 276    49  23.50  21.60   9.40  5.189  1.421  0.745  0.676  0.000   85.8    5.5   80.4    0.0
 1989 277    50  24.20  21.70   7.50  5.250  1.466  0.835  0.631  0.000   87.3    6.3   81.0    0.0
 1989 278    51  24.00  25.00   8.80  5.483  1.548  0.955  0.593  0.000   88.9    7.3   81.6    0.0
 1989 279    52  20.30  24.60   8.80  4.600  1.457  0.896  0.562  0.000   90.3    8.2   82.1    0.0
 1989 280    53  17.50  22.60  12.20  3.967  3.967  0.853  3.114  0.000   94.3    9.0   85.3    0.0
 1989 281    54  20.40  20.00  10.30  4.384  1.614  1.035  0.579  0.000   95.9   10.1   85.8    0.0
 1989 282    55  24.60  20.50   6.20  5.116  1.844  1.295  0.549  0.000   97.7   11.4   86.4    0.0
 1989 283    56  17.50  22.60   7.50  3.779  1.537  1.013  0.524  0.000   99.3   12.4   86.9    0.0
 1989 284    57  12.90  20.70  12.50  2.831  1.312  0.810  0.502  0.000  100.6   13.2   87.4    0.0
 1989 285    58  11.90  12.60   7.20  2.212  1.718  0.678  1.040  0.000  102.3   13.9   88.5    0.0
 1989 286    59  15.40  17.70   4.10  2.992  1.424  0.932  0.492  0.000  103.7   14.8   88.9    0.0
 1989 287    60  24.30  20.40   7.40  5.057  2.051  1.577  0.474  0.000  105.8   16.4   89.4    0.0
 1989 288    61  23.80  23.40   8.40  5.184  2.178  1.720  0.458  0.000  108.0   18.1   89.9    0.0
 1989 289    62  26.20  21.80   9.90  5.640  2.463  2.020  0.443  0.000  110.4   20.1   90.3    0.0
 1989 290    63  15.80  19.50   9.90  3.286  1.692  1.262  0.429  0.000  112.1   21.4   90.8    0.0
 1989 291    64  20.40  22.40   9.70  4.390  2.174  1.757  0.417  0.000  114.3   23.1   91.2    0.0
 1989 292    65  25.10  25.00  12.60  5.699  5.699  2.414  3.284  0.000  120.0   25.5   94.5    0.0
 1989 293    66  25.20  28.00  11.10  5.833  5.649  2.657  2.992  0.000  125.6   28.2   97.4    0.0
 1989 294    67  16.60  27.00  12.40  3.816  3.816  1.872  1.944  0.000  129.5   30.1   99.4    0.0
 1989 295    68  26.90  26.50  11.10  6.055  5.078  3.153  1.925  0.000  134.5   33.2  101.3    0.0
 1989 296    69  26.40  29.50  12.20  6.187  4.672  3.392  1.280  0.000  139.2   36.6  102.6    0.0
 1989 297    70   7.90  22.20  16.70  1.749  1.749  1.024  0.725  0.000  141.0   37.6  103.3    0.0
 1989 298    71   9.30  21.40  15.30  2.006  2.006  1.235  0.771  0.000  143.0   38.9  104.1    0.0
 1989 299    72  20.80  19.10  10.40  4.158  4.158  2.666  1.493  0.000  147.1   41.5  105.6    0.0
 1989 300    73  27.50  20.80   7.40  5.463  5.463  3.585  1.878  0.000  152.6   45.1  107.5    0.0
 1989 301    74  28.20  22.80   8.80  5.814  5.814  3.884  1.930  0.000  158.4   49.0  109.4    0.0
 1989 302    75  27.50  28.80  10.70  6.190  5.688  4.236  1.452  0.000  164.1   53.2  110.8    0.0
 1989 303    76  11.30  22.00  13.60  2.388  2.388  1.691  0.698  0.000  166.5   54.9  111.5    0.0
 1989 304    77  26.00  20.70  10.30  5.239  5.239  3.803  1.435  0.000  171.7   58.7  113.0    0.0
 1989 305    78  27.70  21.20   7.00  5.446  5.446  4.023  1.422  0.000  177.2   62.8  114.4    0.0
 1989 306    79   9.20  20.10  11.70  1.856  1.856  1.389  0.466  0.000  179.0   64.1  114.9    0.0
 1989 307    80  12.60  20.50  13.50  2.590  2.590  1.971  0.619  0.000  181.6   66.1  115.5    0.0
 1989 308    81  28.90  23.10  13.30  6.117  6.117  4.738  1.379  0.000  187.7   70.9  116.9    0.0
 1989 309    82  28.80  21.90  12.30  5.941  5.941  4.688  1.254  0.000  193.7   75.5  118.1    0.0
 1989 310    83  29.10  25.30   9.50  6.110  6.110  4.894  1.216  0.000  199.8   80.4  119.3    0.0
 1989 311    84  14.50  24.60  14.00  3.127  3.127  2.541  0.586  0.000  202.9   83.0  119.9    0.0
 1989 312    85  26.00  27.30  13.40  5.752  5.730  4.750  0.980  0.000  208.6   87.7  120.9    0.0
 1989 313    86  28.70  28.00  15.40  6.490  6.490  5.446  1.044  0.000  215.1   93.2  121.9    0.0
 1989 314    87  25.10  29.70  15.90  5.798  5.798  4.945  0.853  0.000  220.9   98.1  122.8    0.0
 1989 315    88   8.80  23.30  18.10  1.916  1.916  1.660  0.256  0.000  222.8   99.8  123.0    0.0
 1989 316    89   8.50  19.60  11.70  1.673  1.673  1.461  0.212  0.000  224.5  101.2  123.3    0.0
 1989 317    90  24.50  18.20  10.70  4.686  4.686  4.119  0.567  0.000  229.2  105.4  123.8    0.0
 1989 318    91  29.70  24.00   9.50  6.063  6.063  5.357  0.706  0.000  235.2  110.7  124.5    0.0
 1989 319    92  29.40  28.10  12.00  6.436  6.436  5.725  0.712  0.000  241.7  116.4  125.2    0.0
 1989 320    93  29.30  23.30  11.20  6.002  6.002  5.388  0.615  0.000  247.7  121.8  125.9    0.0
 1989 321    94  29.70  25.00   9.40  6.118  6.118  5.526  0.592  0.000  253.8  127.4  126.5    0.0
 1989 322    95  28.70  30.20  11.80  6.407  6.407  5.859  0.548  0.000  260.2  133.2  127.0    0.0
 1989 323    96  22.90  31.00  15.60  5.303  5.303  4.896  0.407  0.000  265.5  138.1  127.4    0.0
 1989 324    97  20.40  28.10  17.40  4.631  4.631  4.306  0.324  0.000  270.1  142.4  127.7    0.0
 1989 325    98  24.20  29.60  17.70  5.596  5.596  5.230  0.366  0.000  275.7  147.6  128.1    0.0
 1989 326    99  26.40  32.90  18.60  6.367  6.367  5.973  0.394  0.000  282.1  153.6  128.5    0.0
 1989 327   100  24.40  30.80  18.50  5.746  5.746  5.409  0.337  0.000  287.9  159.0  128.8    0.0
 1989 328   101  30.20  23.60  15.50  6.395  6.395  6.033  0.362  0.000  294.2  165.1  129.2    0.0
 1989 329   102  24.00  25.20  13.90  5.114  5.114  4.828  0.286  0.000  299.4  169.9  129.5    0.0
 1989 330   103  22.90  26.50  14.70  4.988  4.988  4.711  0.277  0.000  304.4  174.6  129.8    0.0
 1989 331   104  25.10  24.50  14.20  5.316  5.316  5.023  0.293  0.000  309.7  179.6  130.0    0.0
 1989 332   105  29.70  26.00  11.20  6.252  6.252  5.908  0.344  0.000  315.9  185.5  130.4    0.0
 1989 333   106  21.60  26.90  14.40  4.715  4.715  4.456  0.260  0.000  320.6  190.0  130.6    0.0
 1989 334   107  28.10  29.40  16.20  6.402  6.402  6.051  0.351  0.000  327.0  196.0  131.0    0.0
 1989 335   108  27.00  31.50  17.60  6.362  6.362  6.016  0.346  0.000  333.4  202.1  131.3    0.0
 1989 336   109  18.80  30.80  18.80  4.434  4.434  4.196  0.237  0.000  337.8  206.2  131.6    0.0
 1989 337   110  17.30  26.80  16.50  3.834  3.834  3.631  0.203  0.000  341.7  209.9  131.8    0.0
 1989 338   111  30.10  25.80  13.30  6.429  6.429  6.076  0.353  0.000  348.1  216.0  132.1    0.0
 1989 339   112  25.80  31.30  14.00  5.908  5.908  5.571  0.337  0.000  354.0  221.5  132.5    0.0
 1989 340   113  22.10  29.50  18.30  5.123  5.123  4.822  0.300  0.000  359.1  226.3  132.8    0.0
 1989 341   114  25.70  29.80  19.20  6.018  6.018  5.656  0.362  0.000  365.1  232.0  133.1    0.0
 1989 342   115  28.40  30.80  18.50  6.690  6.690  6.279  0.412  0.000  371.8  238.3  133.6    0.0
 1989 343   116  18.10  30.50  18.90  4.263  4.263  3.995  0.268  0.000  376.1  242.3  133.8    0.0
 1989 344   117  29.50  32.40  18.80  7.089  7.089  6.635  0.454  0.000  383.2  248.9  134.3    0.0
 1989 345   118  27.50  33.80  20.30  6.779  6.779  6.337  0.442  0.000  390.0  255.3  134.7    0.0
 1989 346   119  30.00  33.70  20.50  7.399  7.399  6.909  0.490  0.000  397.4  262.2  135.2    0.0
 1989 347   120  29.00  32.40  19.40  7.001  7.001  6.531  0.471  0.000  404.4  268.7  135.7    0.0
 1989 348   121  30.40  30.30  19.60  7.187  7.187  6.693  0.494  0.000  411.6  275.4  136.2    0.0
 1989 349   122  31.40  31.70  16.10  7.349  7.349  6.831  0.519  0.000  418.9  282.2  136.7    0.0
 1989 350   123  25.70  33.60  19.90  6.311  6.311  5.853  0.458  0.000  425.2  288.1  137.1    0.0
 1989 351   124  18.00  24.40  13.70  3.802  3.802  3.518  0.284  0.000  429.0  291.6  137.4    0.0
 1989 352   125  30.70  25.20   9.20  6.312  6.312  5.826  0.486  0.000  435.3  297.4  137.9    0.0
 1989 353   126  31.40  27.20  14.50  6.907  6.907  6.357  0.550  0.000  442.2  303.8  138.5    0.0
 1989 354   127  31.80  26.50  13.60  6.891  6.891  6.324  0.567  0.000  449.1  310.1  139.0    0.0
 1989 355   128  31.30  26.00  12.60  6.691  6.691  6.121  0.570  0.000  455.8  316.2  139.6    0.0
 1989 356   129  31.50  29.00  12.10  6.954  6.954  6.340  0.614  0.000  462.8  322.6  140.2    0.0
 1989 357   130  30.80  29.50  14.20  6.953  6.953  6.317  0.637  0.000  469.7  328.9  140.9    0.0
 1989 358   131  29.70  31.50  16.20  6.964  6.964  6.302  0.662  0.000  476.7  335.2  141.5    0.0
 1989 359   132   9.80  29.50  19.10  2.298  2.298  2.070  0.227  0.000  479.0  337.2  141.7    0.0
 1989 360   133  20.60  30.70  18.80  4.886  4.886  4.382  0.503  0.000  483.9  341.6  142.2    0.0
 1989 361   134  15.80  30.10  19.50  3.744  3.744  3.342  0.402  0.000  487.6  345.0  142.7    0.0
 1989 362   135  22.50  30.90  20.00  5.401  5.357  4.796  0.562  0.000  493.0  349.8  143.2    0.0
 1989 363   136  17.70  28.90  20.60  4.178  4.178  3.689  0.489  0.000  497.1  353.4  143.7    0.0
 1989 364   137  20.90  28.00  19.30  4.842  4.842  4.249  0.593  0.000  502.0  357.7  144.3    0.0
 1989 365   138  24.80  29.80  17.50  5.789  5.789  5.046  0.743  0.000  507.8  362.7  145.0    0.0
 1990 001   139  28.40  29.80  12.60  6.393  6.393  5.533  0.861  0.000  514.2  368.3  145.9    0.0
 1990 002   140  28.70  29.80  15.10  6.592  6.592  5.659  0.933  0.000  520.8  373.9  146.8    0.0
 1990 003   141  31.30  30.10  15.30  7.232  7.232  6.154  1.077  0.000  528.0  380.1  147.9    0.0
 1990 004   142  31.30  33.40  16.90  7.597  7.597  6.403  1.194  0.000  535.6  386.5  149.1    0.0
 1990 005   143  31.30  33.70  18.10  7.696  7.696  6.421  1.276  0.000  543.3  392.9  150.4    0.0
 1990 006   144  31.50  34.00  18.00  7.775  7.775  6.415  1.360  0.000  551.1  399.3  151.7    0.0
 1990 007   145  28.90  34.40  19.00  7.224  7.224  5.889  1.335  0.000  558.3  405.2  153.1    0.0
 1990 008   146  20.20  30.90  20.00  4.907  4.907  3.949  0.958  0.000  563.2  409.2  154.0    0.0
 1990 009   147  24.60  29.00  15.90  5.685  5.645  4.513  1.132  0.000  568.8  413.7  155.2    0.0
 1990 010   148  25.50  29.50  14.00  5.852  5.852  4.577  1.275  0.000  574.7  418.3  156.4    0.0
 1990 011   149  30.90  31.20  16.30  7.367  7.367  5.673  1.694  0.000  582.1  423.9  158.1    0.0
 1990 012   150  31.30  34.10  17.80  7.799  7.799  5.908  1.891  0.000  589.9  429.8  160.0    0.0
 1990 013   151  16.20  30.90  18.60  3.930  3.930  2.925  1.005  0.000  593.8  432.8  161.0    0.0
 1990 014   152  30.90  33.40  19.90  7.787  7.512  5.689  1.823  0.000  601.3  438.5  162.8    0.0
 1990 015   153  21.40  34.10  19.20  5.418  5.418  3.880  1.538  0.000  606.7  442.3  164.4    0.0
 1990 016   154  26.20  33.30  19.00  6.582  6.582  4.618  1.964  0.000  613.3  446.9  166.4    0.0
 1990 017   155  13.20  22.60  15.40  2.862  2.862  1.965  0.896  0.000  616.2  448.9  167.2    0.0
 1990 018   156  31.00  24.50  10.40  6.602  6.602  4.534  2.068  0.000  622.8  453.4  169.3    0.0
 1990 019   157  31.00  28.00   9.10  6.820  6.820  4.684  2.136  0.000  629.6  458.1  171.5    0.0
 1990 020   158  30.30  30.60  16.50  7.276  7.083  4.997  2.086  0.000  636.7  463.1  173.5    0.0

*DSSAT Cropping System Model Ver. 4.0.2.000               Aug 03, 2016; 15:38:15

*RUN   4        : UYMZ                    
 MODEL          : MZCER040 - Maize           
 EXPERIMENT     : UYMZ0131 MZ    late to create DSS                             
 TREATMENT  1   : UYMZ                    

@YEAR DOY   DAS   SRAA   TMXA   TMNA   EOAA   ETAA   EPAA   ESAA   EFAD   ETAC   EPAC   ESAC   EFAC
 1990 227     0   7.50  15.80  10.50  1.580  1.580  0.000  1.580  0.000    1.6    0.0    1.6    0.0
 1990 228     1  14.80  18.90   8.50  3.195  3.195  0.000  3.195  0.000    4.8    0.0    4.8    0.0
 1990 229     2  16.80  21.40   7.70  3.724  2.725  0.000  2.725  0.000    7.5    0.0    7.5    0.0
 1990 230     3  16.20  20.80   6.00  3.508  2.308  0.000  2.308  0.000    9.8    0.0    9.8    0.0
 1990 231     4  12.80  20.80  10.40  2.883  1.364  0.000  1.364  0.000   11.2    0.0   11.2    0.0
 1990 232     5  17.30  21.00  10.30  3.903  1.073  0.000  1.073  0.000   12.2    0.0   12.2    0.0
 1990 233     6  14.80  20.90   6.70  3.230  0.914  0.000  0.914  0.000   13.2    0.0   13.2    0.0
 1990 234     7  13.00  18.40   8.30  2.782  0.810  0.000  0.810  0.000   14.0    0.0   14.0    0.0
 1990 235     8  17.00  15.60   4.40  3.366  0.735  0.000  0.735  0.000   14.7    0.0   14.7    0.0
 1990 236     9  11.20  18.10   3.70  2.285  0.677  0.000  0.677  0.000   15.4    0.0   15.4    0.0
 1990 237    10  13.00  24.60   9.60  3.054  3.054  0.000  3.054  0.000   18.4    0.0   18.4    0.0
 1990 238    11  16.40  25.50  11.70  3.964  3.557  0.000  3.557  0.000   22.0    0.0   22.0    0.0
 1990 239    12   6.80  17.60   5.50  1.401  1.401  0.000  1.401  0.000   23.4    0.0   23.4    0.0
 1990 240    13  18.80   9.70   2.00  3.305  3.305  0.000  3.305  0.000   26.7    0.0   26.7    0.0
 1990 241    14  17.80  14.60  -1.20  3.275  3.043  0.000  3.043  0.000   29.7    0.0   29.7    0.0
 1990 242    15  16.80  21.80   2.90  3.585  3.170  0.000  3.170  0.000   32.9    0.0   32.9    0.0
 1990 243    16   5.50  11.80   5.50  1.039  1.039  0.000  1.039  0.000   33.9    0.0   33.9    0.0
 1990 244    17  10.70  10.20   0.80  1.871  1.871  0.000  1.871  0.000   35.8    0.0   35.8    0.0
 1990 245    18  17.70  11.60  -2.30  3.061  1.471  0.000  1.471  0.000   37.3    0.0   37.3    0.0
 1990 246    19  19.80  16.80   2.50  3.916  1.122  0.001  1.122  0.000   38.4    0.0   38.4    0.0
 1990 247    20   5.60  16.40   7.10  1.152  0.944  0.001  0.943  0.000   39.4    0.0   39.4    0.0
 1990 248    21   6.00  18.60  13.40  1.348  0.831  0.001  0.830  0.000   40.2    0.0   40.2    0.0
 1990 249    22   5.70  15.40  13.40  1.226  0.803  0.003  0.800  0.000   41.0    0.0   41.0    0.0
 1990 250    23   5.80  15.90  12.80  1.249  0.913  0.004  0.910  0.000   41.9    0.0   41.9    0.0
 1990 251    24   5.80  14.30  10.30  1.193  1.193  0.005  1.188  0.000   43.1    0.0   43.1    0.0
 1990 252    25  19.70  23.50   7.80  4.490  4.490  0.022  4.468  0.000   47.6    0.0   47.6    0.0
 1990 253    26  15.20  27.50  11.60  3.758  2.401  0.023  2.378  0.000   50.0    0.1   49.9    0.0
 1990 254    27   9.60  23.10  10.70  2.230  2.230  0.020  2.211  0.000   52.2    0.1   52.1    0.0
 1990 255    28  17.10  13.80   5.20  3.316  3.316  0.036  3.280  0.000   55.5    0.1   55.4    0.0
 1990 256    29  18.80  11.80   2.70  3.442  2.284  0.038  2.246  0.000   57.8    0.2   57.7    0.0
 1990 257    30  20.40  14.20   0.50  3.792  2.209  0.038  2.170  0.000   60.0    0.2   59.8    0.0
 1990 258    31  21.40  18.40   3.40  4.367  1.370  0.032  1.338  0.000   61.4    0.2   61.2    0.0
 1990 259    32  17.80  21.60   7.90  3.959  1.091  0.031  1.060  0.000   62.5    0.3   62.2    0.0
 1990 260    33  10.60  17.70  10.60  2.290  0.937  0.031  0.906  0.000   63.4    0.3   63.1    0.0
 1990 261    34   9.30  17.90  11.00  2.020  2.020  0.037  1.983  0.000   65.4    0.3   65.1    0.0
 1990 262    35  13.80  17.70  10.00  2.960  2.960  0.071  2.889  0.000   68.4    0.4   68.0    0.0
 1990 263    36   6.40  17.90  13.30  1.417  1.318  0.042  1.276  0.000   69.7    0.4   69.3    0.0
 1990 264    37   6.40  20.50  15.80  1.496  1.496  0.055  1.441  0.000   71.2    0.5   70.7    0.0
 1990 265    38  20.10  18.60   9.20  4.318  2.456  0.202  2.255  0.000   73.7    0.7   73.0    0.0
 1990 266    39  18.60  13.50   5.40  3.575  1.547  0.193  1.355  0.000   75.2    0.9   74.3    0.0
 1990 267    40  22.30  15.00   3.20  4.287  1.308  0.240  1.068  0.000   76.5    1.1   75.4    0.0
 1990 268    41  23.20  16.30   3.10  4.545  1.157  0.246  0.911  0.000   77.7    1.4   76.3    0.0
 1990 269    42  23.40  20.50   5.10  4.965  1.071  0.263  0.808  0.000   78.8    1.6   77.1    0.0
 1990 270    43  21.30  24.00   8.90  4.892  1.027  0.294  0.733  0.000   79.8    1.9   77.9    0.0
 1990 271    44   6.80  21.70  12.20  1.557  0.789  0.113  0.676  0.000   80.6    2.0   78.5    0.0
 1990 272    45  19.30  22.00  11.30  4.394  1.002  0.372  0.631  0.000   81.6    2.4   79.2    0.0
 1990 273    46  19.30  25.20   8.90  4.475  1.032  0.439  0.593  0.000   82.6    2.8   79.8    0.0
 1990 274    47  21.70  28.10  12.90  5.371  1.172  0.611  0.562  0.000   83.8    3.5   80.3    0.0
 1990 275    48  24.20  24.00  11.90  5.635  1.304  0.769  0.535  0.000   85.1    4.2   80.9    0.0
 1990 276    49  21.80  26.60  13.30  5.284  1.335  0.824  0.512  0.000   86.4    5.1   81.4    0.0
 1990 277    50  17.90  30.10  17.50  4.648  1.329  0.838  0.491  0.000   87.8    5.9   81.9    0.0
 1990 278    51   7.10  19.10  17.30  1.608  0.816  0.343  0.473  0.000   88.6    6.2   82.3    0.0
 1990 279    52   9.40  22.70  17.20  2.217  2.217  0.519  1.697  0.000   90.8    6.8   84.0    0.0
 1990 280    53   7.20  21.60  17.70  1.676  1.676  0.436  1.240  0.000   92.5    7.2   85.3    0.0
 1990 281    54  11.50  20.40  13.70  2.540  2.540  0.726  1.814  0.000   95.0    7.9   87.1    0.0
 1990 282    55  23.40  22.30   9.50  5.100  5.100  1.513  3.586  0.000  100.1    9.4   90.7    0.0
 1990 283    56  21.00  22.30  11.30  4.635  3.606  1.464  2.143  0.000  103.7   10.9   92.8    0.0
 1990 284    57   9.00  22.10  14.50  2.028  2.028  0.691  1.336  0.000  105.7   11.6   94.2    0.0
 1990 285    58  25.50  19.40  11.30  5.375  5.375  1.990  3.384  0.000  111.1   13.6   97.5    0.0
 1990 286    59  26.10  21.60   7.60  5.463  5.182  2.144  3.038  0.000  116.3   15.7  100.6    0.0
 1990 287    60  24.80  22.60  11.50  5.425  5.332  2.229  3.103  0.000  121.6   17.9  103.7    0.0
 1990 288    61  25.50  20.10   8.90  5.257  3.742  2.300  1.442  0.000  125.4   20.2  105.1    0.0
 1990 289    62  26.40  20.50   5.00  5.265  3.517  2.408  1.109  0.000  128.9   22.7  106.2    0.0
 1990 290    63  15.20  21.40   8.90  3.172  2.431  1.495  0.936  0.000  131.3   24.1  107.2    0.0
 1990 291    64  24.50  24.40  14.30  5.543  3.538  2.713  0.825  0.000  134.8   26.9  108.0    0.0
 1990 292    65  17.30  24.00  15.30  3.910  3.222  2.029  1.193  0.000  138.1   28.9  109.2    0.0
 1990 293    66  16.40  23.70  15.70  3.688  3.688  2.024  1.664  0.000  141.8   30.9  110.8    0.0
 1990 294    67  22.20  24.00  14.20  4.925  4.925  2.869  2.056  0.000  146.7   33.8  112.9    0.0
 1990 295    68  27.10  24.80  13.10  5.990  5.161  3.667  1.493  0.000  151.8   37.5  114.4    0.0
 1990 296    69  21.10  25.60  13.10  4.690  4.690  2.999  1.692  0.000  156.5   40.4  116.1    0.0
 1990 297    70  20.80  22.20  13.80  4.442  4.442  2.956  1.487  0.000  161.0   43.4  117.6    0.0
 1990 298    71  14.30  24.70  11.80  3.089  3.089  2.121  0.968  0.000  164.1   45.5  118.5    0.0
 1990 299    72  25.10  27.10  16.30  5.766  5.113  4.077  1.037  0.000  169.2   49.6  119.6    0.0
 1990 300    73  19.60  28.30  17.00  4.573  4.240  3.349  0.891  0.000  173.4   53.0  120.5    0.0
 1990 301    74   8.80  23.80  18.50  1.964  1.964  1.487  0.477  0.000  175.4   54.4  120.9    0.0
 1990 302    75  12.20  27.40  20.40  2.873  2.873  2.225  0.648  0.000  178.3   56.7  121.6    0.0
 1990 303    76  26.40  28.80  17.90  6.178  6.178  4.918  1.260  0.000  184.4   61.6  122.9    0.0
 1990 304    77  26.50  23.20  15.80  5.698  5.698  4.646  1.052  0.000  190.1   66.2  123.9    0.0
 1990 305    78  23.10  24.10  16.70  5.048  5.048  4.183  0.865  0.000  195.2   70.4  124.8    0.0
 1990 306    79  20.10  27.00  14.30  4.453  4.453  3.748  0.704  0.000  199.6   74.2  125.5    0.0
 1990 307    80  11.80  28.10  20.80  2.776  2.776  2.372  0.405  0.000  202.4   76.5  125.9    0.0
 1990 308    81  21.00  22.20  10.80  4.247  4.247  3.673  0.574  0.000  206.7   80.2  126.5    0.0
 1990 309    82  28.80  19.00   6.40  5.360  5.360  4.673  0.687  0.000  212.0   84.9  127.1    0.0
 1990 310    83  17.40  21.20   9.80  3.438  3.438  3.010  0.428  0.000  215.5   87.9  127.6    0.0
 1990 311    84  23.40  23.50  13.50  4.910  4.910  4.326  0.584  0.000  220.4   92.2  128.2    0.0
 1990 312    85   8.40  18.40  11.30  1.618  1.618  1.438  0.180  0.000  222.0   93.7  128.3    0.0
 1990 313    86  16.20  22.30  15.10  3.388  3.388  3.026  0.362  0.000  225.4   96.7  128.7    0.0
 1990 314    87  21.20  24.80  13.70  4.515  4.515  4.064  0.451  0.000  229.9  100.7  129.1    0.0
 1990 315    88  23.60  27.00  15.30  5.221  5.221  4.735  0.486  0.000  235.1  105.5  129.6    0.0
 1990 316    89  12.20  24.60  14.20  2.595  2.595  2.389  0.206  0.000  237.7  107.9  129.8    0.0
 1990 317    90  26.70  34.90  18.50  6.583  6.583  6.092  0.492  0.000  244.3  114.0  130.3    0.0
 1990 318    91  15.90  33.00  20.80  3.901  3.901  3.641  0.260  0.000  248.2  117.6  130.6    0.0
 1990 319    92   8.60  23.20  17.30  1.840  1.840  1.724  0.117  0.000  250.0  119.3  130.7    0.0
 1990 320    93  17.60  22.10  12.20  3.562  3.562  3.340  0.222  0.000  253.6  122.7  130.9    0.0
 1990 321    94  28.70  26.10   9.30  5.960  5.960  5.596  0.364  0.000  259.5  128.3  131.3    0.0
 1990 322    95  27.80  29.70  16.50  6.373  6.373  5.992  0.381  0.000  265.9  134.2  131.7    0.0
 1990 323    96  27.10  33.40  21.80  6.716  6.716  6.329  0.387  0.000  272.6  140.6  132.1    0.0
 1990 324    97  12.20  28.00  21.10  2.838  2.838  2.682  0.156  0.000  275.5  143.3  132.2    0.0
 1990 325    98  30.70  28.70  18.80  7.075  7.075  6.692  0.384  0.000  282.6  150.0  132.6    0.0
 1990 326    99  28.10  28.00  15.30  6.256  6.256  5.925  0.331  0.000  288.8  155.9  132.9    0.0
 1990 327   100  29.80  28.20  14.20  6.592  6.592  6.250  0.343  0.000  295.4  162.1  133.3    0.0
 1990 328   101  25.60  28.70  16.80  5.810  5.810  5.512  0.298  0.000  301.2  167.6  133.6    0.0
 1990 329   102  20.10  29.20  18.20  4.635  4.635  4.401  0.234  0.000  305.8  172.0  133.8    0.0
 1990 330   103  22.90  24.90  15.80  4.933  4.933  4.689  0.244  0.000  310.8  176.7  134.0    0.0
 1990 331   104  30.40  21.20  10.00  5.958  5.958  5.654  0.304  0.000  316.7  182.4  134.4    0.0
 1990 332   105  30.90  24.60   9.00  6.275  6.275  5.943  0.331  0.000  323.0  188.3  134.7    0.0
 1990 333   106  31.00  27.10  12.20  6.666  6.666  6.305  0.360  0.000  329.7  194.6  135.0    0.0
 1990 334   107  14.90  26.80  14.90  3.262  3.262  3.082  0.180  0.000  332.9  197.7  135.2    0.0
 1990 335   108  23.40  26.40  14.70  5.091  5.091  4.804  0.287  0.000  338.0  202.5  135.5    0.0
 1990 336   109   9.00  23.50  14.10  1.882  1.882  1.774  0.108  0.000  339.9  204.3  135.6    0.0
 1990 337   110  30.10  22.90  11.40  6.109  6.109  5.752  0.358  0.000  346.0  210.0  136.0    0.0
 1990 338   111  28.70  27.90  10.60  6.156  6.156  5.789  0.366  0.000  352.2  215.8  136.3    0.0
 1990 339   112  16.80  32.30  20.30  4.074  4.074  3.828  0.246  0.000  356.2  219.7  136.6    0.0
 1990 340   113  16.80  25.60  17.50  3.704  3.704  3.477  0.227  0.000  360.0  223.1  136.8    0.0
 1990 341   114  26.90  25.20  16.00  5.834  5.834  5.472  0.362  0.000  365.8  228.6  137.2    0.0
 1990 342   115  30.30  25.00  12.00  6.348  6.348  5.950  0.399  0.000  372.1  234.6  137.6    0.0
 1990 343   116   9.00  19.70  14.20  1.797  1.797  1.683  0.114  0.000  373.9  236.2  137.7    0.0
 1990 344   117   9.10  19.50  15.90  1.839  1.839  1.721  0.118  0.000  375.8  238.0  137.8    0.0
 1990 345   118  24.70  25.00  14.70  5.291  5.291  4.948  0.343  0.000  381.1  242.9  138.2    0.0
 1990 346   119  14.70  22.00  10.50  2.929  2.929  2.738  0.191  0.000  384.0  245.6  138.3    0.0
 1990 347   120  19.00  24.00  14.30  4.008  4.008  3.745  0.264  0.000  388.0  249.4  138.6    0.0
 1990 348   121  29.20  21.90  10.30  5.802  5.802  5.417  0.386  0.000  393.8  254.8  139.0    0.0
 1990 349   122  31.80  27.30  10.90  6.795  6.795  6.338  0.457  0.000  400.6  261.1  139.5    0.0
 1990 350   123  28.70  30.20  13.70  6.486  6.486  6.044  0.442  0.000  407.1  267.2  139.9    0.0
 1990 351   124  14.40  30.10  18.00  3.357  3.357  3.126  0.232  0.000  410.4  270.3  140.1    0.0
 1990 352   125  27.40  25.60  17.30  6.038  6.038  5.615  0.423  0.000  416.5  275.9  140.5    0.0
 1990 353   126  31.40  25.60  14.40  6.764  6.764  6.282  0.483  0.000  423.2  282.2  141.0    0.0
 1990 354   127  31.60  27.10  14.00  6.909  6.909  6.406  0.503  0.000  430.2  288.6  141.5    0.0
 1990 355   128  25.60  29.80  15.90  5.861  5.861  5.424  0.437  0.000  436.0  294.0  142.0    0.0
 1990 356   129  10.00  25.70  19.00  2.237  2.237  2.067  0.171  0.000  438.3  296.1  142.1    0.0
 1990 357   130  19.50  28.40  17.80  4.460  4.460  4.110  0.349  0.000  442.7  300.2  142.5    0.0
 1990 358   131  13.10  24.40  15.50  2.810  2.810  2.583  0.227  0.000  445.5  302.8  142.7    0.0
 1990 359   132  29.40  25.70  12.70  6.265  6.265  5.744  0.521  0.000  451.8  308.5  143.2    0.0
 1990 360   133  31.40  31.30  15.30  7.289  7.289  6.662  0.627  0.000  459.1  315.2  143.9    0.0
 1990 361   134  31.40  31.50  18.00  7.454  7.454  6.791  0.663  0.000  466.5  322.0  144.5    0.0
 1990 362   135  31.40  21.00  13.30  6.351  6.351  5.764  0.586  0.000  472.9  327.8  145.1    0.0
 1990 363   136  29.60  23.30   9.40  5.967  5.967  5.393  0.573  0.000  478.8  333.2  145.7    0.0
 1990 364   137  30.80  27.20  11.40  6.629  6.629  5.966  0.663  0.000  485.5  339.1  146.3    0.0
 1990 365   138  31.50  29.40  14.80  7.148  7.148  6.405  0.743  0.000  492.6  345.5  147.1    0.0
 1991 001   139  24.30  31.60  17.10  5.753  5.753  5.130  0.623  0.000  498.4  350.7  147.7    0.0
 1991 002   140  24.10  29.20  20.30  5.692  5.692  5.050  0.643  0.000  504.1  355.7  148.4    0.0
 1991 003   141  26.70  29.10  17.40  6.170  5.932  5.442  0.489  0.000  510.0  361.2  148.8    0.0
 1991 004   142  31.30  28.60  13.40  6.981  6.981  6.119  0.862  0.000  517.0  367.3  149.7    0.0
 1991 005   143  31.30  28.20  13.80  6.976  6.976  6.073  0.903  0.000  524.0  373.3  150.6    0.0
 1991 006   144  31.30  30.20  13.00  7.102  7.102  6.137  0.965  0.000  531.1  379.5  151.6    0.0
 1991 007   145  29.60  32.40  17.10  7.103  7.103  6.089  1.014  0.000  538.2  385.6  152.6    0.0
 1991 008   146  29.90  34.30  19.30  7.445  7.445  6.328  1.117  0.000  545.6  391.9  153.7    0.0
 1991 009   147   9.90  24.30  21.30  2.244  2.244  1.889  0.354  0.000  547.8  393.8  154.1    0.0
 1991 010   148  27.90  30.80  19.20  6.703  6.703  5.587  1.116  0.000  554.6  399.4  155.2    0.0
 1991 011   149  25.10  27.80  15.90  5.697  5.697  4.696  1.000  0.000  560.2  404.1  156.2    0.0
 1991 012   150  29.50  26.40  13.00  6.447  6.447  5.254  1.193  0.000  566.7  409.3  157.4    0.0
 1991 013   151  19.30  27.00  12.90  4.251  4.251  3.421  0.830  0.000  570.9  412.7  158.2    0.0
 1991 014   152  30.50  28.00  14.60  6.899  6.899  5.477  1.422  0.000  577.8  418.2  159.6    0.0
 1991 015   153  29.90  31.70  14.10  7.040  6.603  5.508  1.095  0.000  584.4  423.7  160.7    0.0
 1991 016   154  22.10  22.50  13.00  4.634  4.634  3.570  1.064  0.000  589.1  427.3  161.8    0.0
 1991 017   155  30.40  24.40   7.10  6.222  6.222  4.714  1.509  0.000  595.3  432.0  163.3    0.0
 1991 018   156  30.70  27.70  11.00  6.776  6.776  5.043  1.732  0.000  602.1  437.1  165.0    0.0
 1991 019   157  27.80  29.60  11.80  6.327  6.327  4.624  1.703  0.000  608.4  441.7  166.7    0.0
 1991 020   158  22.10  32.20  11.60  5.185  5.020  3.717  1.303  0.000  613.4  445.4  168.0    0.0
 1991 021   159  10.90  24.10  18.70  2.465  2.465  1.731  0.734  0.000  615.9  447.1  168.8    0.0
 1991 022   160  30.70  28.90  15.50  7.177  7.177  4.933  2.245  0.000  623.1  452.1  171.0    0.0
 1991 023   161  25.20  29.20  16.90  5.974  5.974  4.106  1.868  0.000  629.0  456.2  172.9    0.0
 1991 024   162   8.80  23.90  18.90  1.993  1.993  1.370  0.623  0.000  631.0  457.5  173.5    0.0

*DSSAT Cropping System Model Ver. 4.0.2.000               Aug 03, 2016; 15:38:15

*RUN   5        : UYMZ                    
 MODEL          : MZCER040 - Maize           
 EXPERIMENT     : UYMZ0131 MZ    late to create DSS                             
 TREATMENT  1   : UYMZ                    

@YEAR DOY   DAS   SRAA   TMXA   TMNA   EOAA   ETAA   EPAA   ESAA   EFAD   ETAC   EPAC   ESAC   EFAC
 1991 227     0  10.70  25.30  15.40  2.658  2.658  0.000  2.658  0.000    2.7    0.0    2.7    0.0
 1991 228     1  12.60  27.30  14.40  3.180  2.552  0.000  2.552  0.000    5.2    0.0    5.2    0.0
 1991 229     2  16.10  24.70  11.80  3.857  2.683  0.000  2.683  0.000    7.9    0.0    7.9    0.0
 1991 230     3   9.30  23.80  13.60  2.236  1.132  0.000  1.132  0.000    9.0    0.0    9.0    0.0
 1991 231     4  12.70  26.00  10.90  3.068  3.068  0.000  3.068  0.000   12.1    0.0   12.1    0.0
 1991 232     5   9.30  26.00  11.80  2.264  2.078  0.000  2.078  0.000   14.2    0.0   14.2    0.0
 1991 233     6  14.70  26.00  11.60  3.572  3.233  0.000  3.233  0.000   17.4    0.0   17.4    0.0
 1991 234     7  13.80  26.40  14.60  3.451  1.447  0.000  1.447  0.000   18.9    0.0   18.9    0.0
 1991 235     8  16.70  21.60  14.50  3.936  1.111  0.000  1.111  0.000   20.0    0.0   20.0    0.0
 1991 236     9  16.20  20.70   9.90  3.628  0.937  0.000  0.937  0.000   20.9    0.0   20.9    0.0
 1991 237    10  14.10  24.70  11.10  3.358  0.826  0.000  0.826  0.000   21.7    0.0   21.7    0.0
 1991 238    11   5.40  16.90  11.90  1.170  0.749  0.002  0.747  0.000   22.5    0.0   22.5    0.0
 1991 239    12   5.30  16.20  10.20  1.119  1.119  0.003  1.116  0.000   23.6    0.0   23.6    0.0
 1991 240    13  10.80  21.40  12.10  2.487  0.768  0.009  0.759  0.000   24.4    0.0   24.3    0.0
 1991 241    14  10.70  22.80  14.40  2.556  0.709  0.013  0.696  0.000   25.1    0.0   25.0    0.0
 1991 242    15   7.30  24.20  16.00  1.796  0.660  0.013  0.647  0.000   25.7    0.0   25.7    0.0
 1991 243    16   5.50  16.80  11.00  1.178  1.178  0.012  1.167  0.000   26.9    0.1   26.9    0.0
 1991 244    17   9.40  16.10   8.10  1.940  1.940  0.022  1.919  0.000   28.8    0.1   28.8    0.0
 1991 245    18   5.50  17.90  11.20  1.198  1.198  0.014  1.184  0.000   30.0    0.1   30.0    0.0
 1991 246    19  10.50  22.80  14.00  2.497  2.497  0.034  2.463  0.000   32.5    0.1   32.4    0.0
 1991 247    20  18.10  25.80  13.20  4.430  2.990  0.096  2.895  0.000   35.5    0.2   35.3    0.0
 1991 248    21  18.40  27.20  13.90  4.598  2.101  0.149  1.953  0.000   37.6    0.4   37.3    0.0
 1991 249    22   5.70  22.50  16.00  1.366  1.349  0.062  1.288  0.000   39.0    0.4   38.6    0.0
 1991 250    23   5.80  17.20  12.80  1.261  1.261  0.072  1.190  0.000   40.2    0.5   39.7    0.0
 1991 251    24   6.40  17.10  10.50  1.359  1.255  0.087  1.167  0.000   41.5    0.6   40.9    0.0
 1991 252    25  15.60  20.00   8.40  3.379  3.379  0.240  3.139  0.000   44.9    0.8   44.1    0.0
 1991 253    26  17.50  22.00  10.20  3.950  1.823  0.312  1.511  0.000   46.7    1.1   45.6    0.0
 1991 254    27  20.20  25.00  10.80  4.752  1.566  0.427  1.139  0.000   48.3    1.6   46.7    0.0
 1991 255    28  19.90  27.80  14.10  4.962  1.472  0.518  0.953  0.000   49.7    2.1   47.7    0.0
 1991 256    29  15.40  30.70  16.10  4.017  1.337  0.501  0.837  0.000   51.1    2.6   48.5    0.0
 1991 257    30   6.10  21.00   7.80  1.316  0.952  0.198  0.755  0.000   52.0    2.8   49.2    0.0
 1991 258    31   6.20  12.30   8.20  1.185  1.185  0.190  0.994  0.000   53.2    3.0   50.2    0.0
 1991 259    32  11.50  23.50  12.40  2.661  2.661  0.437  2.224  0.000   55.9    3.4   52.5    0.0
 1991 260    33   6.30  21.10  17.10  1.467  1.467  0.267  1.200  0.000   57.3    3.7   53.7    0.0
 1991 261    34  18.90  19.70  13.10  4.167  4.167  0.843  3.324  0.000   61.5    4.5   57.0    0.0
 1991 262    35  21.70  17.30   8.80  4.447  4.123  0.960  3.163  0.000   65.6    5.5   60.2    0.0
 1991 263    36  13.10  22.60   8.30  2.867  2.867  0.651  2.216  0.000   68.5    6.1   62.4    0.0
 1991 264    37  11.00  27.50  12.60  2.646  2.359  0.640  1.719  0.000   70.9    6.8   64.1    0.0
 1991 265    38  20.40  20.30  10.30  4.380  2.390  1.173  1.217  0.000   73.2    7.9   65.3    0.0
 1991 266    39  21.60  16.90   3.20  4.128  2.173  1.175  0.998  0.000   75.4    9.1   66.3    0.0
 1991 267    40  22.30  19.00   4.90  4.474  2.086  1.219  0.866  0.000   77.5   10.3   67.2    0.0
 1991 268    41  20.30  21.10   8.70  4.334  1.997  1.221  0.776  0.000   79.5   11.6   67.9    0.0
 1991 269    42  21.70  23.40   7.80  4.725  2.128  1.419  0.709  0.000   81.6   13.0   68.7    0.0
 1991 270    43  17.70  27.80  13.80  4.258  2.043  1.385  0.657  0.000   83.7   14.4   69.3    0.0
 1991 271    44  22.20  16.10   9.00  4.383  2.212  1.597  0.615  0.000   85.9   16.0   69.9    0.0
 1991 272    45  21.80  18.00   7.50  4.349  2.228  1.648  0.580  0.000   88.1   17.6   70.5    0.0
 1991 273    46  21.10  20.20   9.70  4.415  2.295  1.744  0.551  0.000   90.4   19.4   71.1    0.0
 1991 274    47  19.70  18.40   7.00  3.914  2.141  1.615  0.525  0.000   92.5   21.0   71.6    0.0
 1991 275    48  22.00  18.40   5.70  4.308  2.342  1.839  0.503  0.000   94.9   22.8   72.1    0.0
 1991 276    49  23.00  19.80   3.80  4.504  2.465  1.981  0.484  0.000   97.4   24.8   72.6    0.0
 1991 277    50  19.10  21.70   6.30  3.930  2.188  1.722  0.466  0.000   99.5   26.5   73.0    0.0
 1991 278    51   7.10  13.60  10.60  1.354  1.354  0.619  0.735  0.000  100.9   27.1   73.8    0.0
 1991 279    52  13.30  12.50   7.00  2.404  2.404  1.123  1.281  0.000  103.3   28.3   75.1    0.0
 1991 280    53  14.80  14.20   4.00  2.661  2.661  1.255  1.406  0.000  106.0   29.5   76.5    0.0
 1991 281    54  23.60  16.90   3.90  4.420  4.420  2.048  2.373  0.000  110.4   31.6   78.8    0.0
 1991 282    55  20.30  20.90   7.30  4.158  4.141  1.895  2.246  0.000  114.5   33.4   81.1    0.0
 1991 283    56  24.30  23.10   7.20  5.108  5.108  2.414  2.693  0.000  119.6   35.9   83.8    0.0
 1991 284    57  24.30  25.00   8.70  5.286  4.317  2.604  1.713  0.000  124.0   38.5   85.5    0.0
 1991 285    58  24.40  29.20  12.20  5.725  4.176  2.960  1.215  0.000  128.1   41.4   86.7    0.0
 1991 286    59  21.90  33.00  20.00  5.645  4.137  3.140  0.997  0.000  132.3   44.6   87.7    0.0
 1991 287    60  11.80  32.00  21.10  3.009  2.680  1.830  0.850  0.000  134.9   46.4   88.5    0.0
 1991 288    61   7.50  23.50  17.60  1.683  1.683  1.091  0.593  0.000  136.6   47.5   89.1    0.0
 1991 289    62   7.60  17.80  11.60  1.502  1.502  1.008  0.494  0.000  138.1   48.5   89.6    0.0
 1991 290    63  15.50  16.00   8.40  2.895  2.895  1.982  0.913  0.000  141.0   50.5   90.5    0.0
 1991 291    64  26.30  21.50   8.40  5.295  5.295  3.650  1.645  0.000  146.3   54.1   92.2    0.0
 1991 292    65  26.30  24.60  11.00  5.624  5.624  3.945  1.679  0.000  151.9   58.1   93.9    0.0
 1991 293    66  26.30  24.90  12.50  5.700  5.569  4.104  1.465  0.000  157.5   62.2   95.3    0.0
 1991 294    67  24.40  29.60  14.20  5.650  5.650  4.175  1.475  0.000  163.2   66.4   96.8    0.0
 1991 295    68  20.20  29.90  19.80  4.877  4.877  3.715  1.162  0.000  168.0   70.1   98.0    0.0
 1991 296    69   8.30  19.10  12.60  1.656  1.582  1.303  0.279  0.000  169.6   71.4   98.2    0.0
 1991 297    70   7.90  17.40  10.20  1.505  1.505  1.200  0.305  0.000  171.1   72.6   98.6    0.0
 1991 298    71   7.90  21.30  15.40  1.656  1.656  1.332  0.324  0.000  172.8   73.9   98.9    0.0
 1991 299    72  22.70  24.90  16.30  5.002  5.002  4.076  0.926  0.000  177.8   78.0   99.8    0.0
 1991 300    73  12.20  23.30  14.70  2.598  2.598  2.155  0.443  0.000  180.4   80.1  100.2    0.0
 1991 301    74   8.00  20.10  14.90  1.637  1.637  1.377  0.260  0.000  182.0   81.5  100.5    0.0
 1991 302    75   8.00  16.80  15.20  1.570  1.570  1.333  0.237  0.000  183.6   82.8  100.7    0.0
 1991 303    76   8.10  18.00  14.60  1.605  1.605  1.374  0.231  0.000  185.2   84.2  101.0    0.0
 1991 304    77   8.10  20.70  14.60  1.660  1.660  1.432  0.228  0.000  186.9   85.7  101.2    0.0
 1991 305    78  17.90  22.30  13.70  3.713  3.713  3.224  0.488  0.000  190.6   88.9  101.7    0.0
 1991 306    79  25.50  22.30  12.20  5.217  5.217  4.573  0.644  0.000  195.8   93.4  102.3    0.0
 1991 307    80  20.80  22.80  12.80  4.300  4.300  3.799  0.501  0.000  200.1   97.2  102.8    0.0
 1991 308    81  27.90  25.00  11.90  5.878  5.878  5.234  0.644  0.000  206.0  102.5  103.5    0.0
 1991 309    82  20.90  25.90  13.20  4.491  4.491  4.059  0.432  0.000  210.5  106.5  103.9    0.0
 1991 310    83  11.60  24.30  16.20  2.501  2.501  2.283  0.218  0.000  213.0  108.8  104.1    0.0
 1991 311    84  21.40  22.80  13.70  4.437  4.437  4.067  0.370  0.000  217.4  112.9  104.5    0.0
 1991 312    85  20.00  21.40  12.40  4.028  4.028  3.707  0.320  0.000  221.4  116.6  104.8    0.0
 1991 313    86  27.20  23.90   9.20  5.501  5.501  5.078  0.423  0.000  226.9  121.7  105.2    0.0
 1991 314    87  17.60  25.70  11.30  3.704  3.704  3.427  0.277  0.000  230.6  125.1  105.5    0.0
 1991 315    88  18.50  19.00  10.10  3.534  3.534  3.277  0.257  0.000  234.2  128.4  105.8    0.0
 1991 316    89  27.30  19.00   6.40  5.042  5.042  4.678  0.364  0.000  239.2  133.1  106.1    0.0
 1991 317    90  18.50  21.00   8.40  3.576  3.576  3.317  0.259  0.000  242.8  136.4  106.4    0.0
 1991 318    91   8.50  19.90  12.10  1.673  1.673  1.552  0.121  0.000  244.4  137.9  106.5    0.0
 1991 319    92  11.90  22.20  14.00  2.451  2.451  2.276  0.176  0.000  246.9  140.2  106.7    0.0
 1991 320    93  19.50  23.20  12.10  4.003  4.003  3.720  0.283  0.000  250.9  143.9  107.0    0.0
 1991 321    94  21.50  23.00  11.30  4.372  4.372  4.067  0.306  0.000  255.3  148.0  107.3    0.0
 1991 322    95  23.70  27.00  13.30  5.145  5.145  4.788  0.357  0.000  260.4  152.8  107.6    0.0
 1991 323    96  29.90  21.30  13.80  6.077  6.077  5.661  0.416  0.000  266.5  158.4  108.1    0.0
 1991 324    97  24.60  24.40  13.00  5.162  5.162  4.810  0.352  0.000  271.7  163.2  108.4    0.0
 1991 325    98  29.40  28.60  12.50  6.462  6.462  6.024  0.438  0.000  278.1  169.3  108.9    0.0
 1991 326    99  28.60  33.30  13.80  6.696  6.696  6.247  0.449  0.000  284.8  175.5  109.3    0.0
 1991 327   100  24.90  35.20  18.50  6.208  6.208  5.799  0.409  0.000  291.0  181.3  109.7    0.0
 1991 328   101   8.80  19.10  13.80  1.737  1.737  1.626  0.111  0.000  292.8  182.9  109.8    0.0
 1991 329   102   8.80  18.80  14.20  1.737  1.737  1.625  0.112  0.000  294.5  184.6  109.9    0.0
 1991 330   103  14.10  20.20  12.60  2.795  2.795  2.613  0.182  0.000  297.3  187.2  110.1    0.0
 1991 331   104  22.40  24.20  10.70  4.600  4.600  4.290  0.310  0.000  301.9  191.5  110.4    0.0
 1991 332   105  22.30  29.00  14.90  5.018  5.018  4.668  0.349  0.000  306.9  196.1  110.8    0.0
 1991 333   106  16.00  25.60  19.00  3.573  3.573  3.319  0.255  0.000  310.5  199.5  111.0    0.0
 1991 334   107  30.00  28.20  17.50  6.825  6.825  6.328  0.498  0.000  317.3  205.8  111.5    0.0
 1991 335   108  24.30  27.80  14.60  5.383  5.383  4.983  0.401  0.000  322.7  210.8  111.9    0.0
 1991 336   109  29.40  30.10  14.90  6.704  6.704  6.195  0.509  0.000  329.4  217.0  112.4    0.0
 1991 337   110  15.40  27.50  18.00  3.491  3.491  3.221  0.270  0.000  332.9  220.2  112.7    0.0
 1991 338   111  29.90  31.50  16.10  6.990  6.990  6.442  0.549  0.000  339.9  226.6  113.3    0.0
 1991 339   112  14.60  27.30  18.30  3.311  3.311  3.047  0.264  0.000  343.2  229.7  113.5    0.0
 1991 340   113  29.40  31.80  18.90  7.040  7.040  6.471  0.569  0.000  350.2  236.1  114.1    0.0
 1991 341   114  16.80  27.80  19.00  3.853  3.853  3.538  0.315  0.000  354.1  239.7  114.4    0.0
 1991 342   115  28.30  29.80  17.70  6.574  6.574  6.030  0.544  0.000  360.7  245.7  114.9    0.0
 1991 343   116   9.00  22.80  18.90  1.947  1.947  1.783  0.164  0.000  362.6  247.5  115.1    0.0
 1991 344   117  24.70  27.00  18.80  5.608  5.608  5.128  0.480  0.000  368.2  252.6  115.6    0.0
 1991 345   118  19.50  27.60  17.30  4.408  4.408  4.023  0.385  0.000  372.6  256.6  116.0    0.0
 1991 346   119   9.40  23.80  16.60  2.022  2.022  1.842  0.180  0.000  374.6  258.5  116.2    0.0
 1991 347   120  29.90  28.40  15.10  6.711  6.711  6.099  0.612  0.000  381.4  264.6  116.8    0.0
 1991 348   121   9.40  21.90  16.70  1.978  1.978  1.794  0.185  0.000  383.3  266.4  117.0    0.0
 1991 349   122   9.10  23.50  16.70  1.954  1.954  1.767  0.187  0.000  385.3  268.1  117.1    0.0
 1991 350   123  20.20  26.90  17.10  4.530  4.530  4.084  0.445  0.000  389.8  272.2  117.6    0.0
 1991 351   124  27.60  27.80  17.90  6.294  6.294  5.658  0.636  0.000  396.1  277.9  118.2    0.0
 1991 352   125  26.20  31.10  17.80  6.196  6.196  5.552  0.644  0.000  402.3  283.4  118.9    0.0
 1991 353   126  21.60  31.20  17.50  5.105  5.105  4.558  0.547  0.000  407.4  288.0  119.4    0.0
 1991 354   127  28.80  31.00  18.00  6.820  6.820  6.066  0.755  0.000  414.2  294.1  120.2    0.0
 1991 355   128  23.90  32.40  19.90  5.828  5.828  5.161  0.667  0.000  420.1  299.2  120.8    0.0
 1991 356   129  11.20  27.10  20.30  2.586  2.586  2.280  0.306  0.000  422.6  301.5  121.1    0.0
 1991 357   130  23.80  30.00  19.50  5.646  5.646  4.953  0.693  0.000  428.3  306.5  121.8    0.0
 1991 358   131  27.30  30.80  20.60  6.589  6.589  5.750  0.839  0.000  434.9  312.2  122.7    0.0
 1991 359   132  21.00  25.60  17.40  4.671  4.671  4.054  0.617  0.000  439.5  316.3  123.3    0.0
 1991 360   133  23.90  22.70  13.40  4.974  4.974  4.291  0.683  0.000  444.5  320.6  124.0    0.0
 1991 361   134  29.90  25.20  12.40  6.370  6.370  5.459  0.911  0.000  450.9  326.0  124.9    0.0
 1991 362   135  28.80  26.60  14.90  6.371  6.371  5.422  0.949  0.000  457.3  331.4  125.8    0.0
 1991 363   136  30.80  29.30  14.60  7.021  7.021  5.931  1.090  0.000  464.3  337.4  126.9    0.0
 1991 364   137  23.60  30.40  17.40  5.567  5.567  4.667  0.900  0.000  469.9  342.0  127.8    0.0
 1991 365   138  19.50  33.00  21.10  4.863  4.863  4.043  0.820  0.000  474.7  346.1  128.6    0.0
 1992 001   139  10.80  28.00  20.30  2.540  2.540  2.093  0.447  0.000  477.3  348.2  129.1    0.0
 1992 002   140  19.00  28.60  19.10  4.463  4.463  3.643  0.820  0.000  481.7  351.8  129.9    0.0
 1992 003   141  28.00  23.20  14.20  5.949  5.949  4.806  1.142  0.000  487.7  356.6  131.0    0.0
 1992 004   142  31.30  26.80  14.90  6.993  6.993  5.589  1.403  0.000  494.7  362.2  132.5    0.0
 1992 005   143  30.40  28.90  13.10  6.872  6.872  5.431  1.441  0.000  501.5  367.6  133.9    0.0
 1992 006   144  20.50  27.20  15.70  4.643  4.643  3.624  1.019  0.000  506.2  371.3  134.9    0.0
 1992 007   145  25.30  29.60  15.90  5.907  5.435  4.551  0.883  0.000  511.6  375.8  135.8    0.0
 1992 008   146  27.90  31.00  20.10  6.834  6.834  5.193  1.641  0.000  518.4  381.0  137.4    0.0
 1992 009   147  23.60  31.00  20.00  5.786  5.786  4.332  1.454  0.000  524.2  385.3  138.9    0.0
 1992 010   148  21.00  30.00  20.90  5.135  5.135  3.785  1.351  0.000  529.4  389.1  140.2    0.0
 1992 011   149  31.30  27.00  14.90  7.086  6.211  5.136  1.076  0.000  535.6  394.3  141.3    0.0
 1992 012   150  26.60  28.30  13.80  6.073  5.240  4.324  0.916  0.000  540.8  398.6  142.2    0.0
 1992 013   151  31.20  28.00  15.60  7.212  5.851  5.040  0.811  0.000  546.7  403.6  143.0    0.0
 1992 014   152  22.70  28.00  15.50  5.254  4.336  3.600  0.736  0.000  551.0  407.2  143.8    0.0
 1992 015   153  29.40  20.20  10.40  5.925  5.925  4.060  1.865  0.000  556.9  411.3  145.6    0.0
 1992 016   154  29.40  23.40   8.90  6.098  6.098  4.178  1.920  0.000  563.0  415.5  147.6    0.0
 1992 017   155  30.40  27.50  12.20  6.817  6.817  4.671  2.146  0.000  569.8  420.1  149.7    0.0
 1992 018   156  29.50  30.30  13.40  6.899  6.058  4.727  1.331  0.000  575.9  424.9  151.0    0.0

*DSSAT Cropping System Model Ver. 4.0.2.000               Aug 03, 2016; 15:38:15

*RUN   6        : UYMZ                    
 MODEL          : MZCER040 - Maize           
 EXPERIMENT     : UYMZ0131 MZ    late to create DSS                             
 TREATMENT  1   : UYMZ                    

@YEAR DOY   DAS   SRAA   TMXA   TMNA   EOAA   ETAA   EPAA   ESAA   EFAD   ETAC   EPAC   ESAC   EFAC
 1992 227     0  14.70  18.40   3.00  2.992  2.598  0.000  2.598  0.000    2.6    0.0    2.6    0.0
 1992 228     1   9.50  19.20   5.70  2.007  2.007  0.000  2.007  0.000    4.6    0.0    4.6    0.0
 1992 229     2  15.30  22.20   8.70  3.458  1.761  0.000  1.761  0.000    6.4    0.0    6.4    0.0
 1992 230     3  12.30  23.20   9.70  2.841  2.656  0.000  2.656  0.000    9.0    0.0    9.0    0.0
 1992 231     4  14.00  20.80   9.20  3.120  3.120  0.000  3.120  0.000   12.1    0.0   12.1    0.0
 1992 232     5  13.40  19.60   7.90  2.904  1.832  0.000  1.832  0.000   14.0    0.0   14.0    0.0
 1992 233     6  13.30  19.40   6.20  2.830  2.243  0.000  2.243  0.000   16.2    0.0   16.2    0.0
 1992 234     7  16.90  23.10   9.50  3.891  1.353  0.000  1.353  0.000   17.6    0.0   17.6    0.0
 1992 235     8   7.80  20.10  13.90  1.795  1.200  0.000  1.200  0.000   18.8    0.0   18.8    0.0
 1992 236     9  17.00  19.30   9.60  3.727  2.634  0.000  2.634  0.000   21.4    0.0   21.4    0.0
 1992 237    10  17.80  21.00   7.10  3.904  2.226  0.000  2.226  0.000   23.6    0.0   23.6    0.0
 1992 238    11  18.00  21.20   5.80  3.912  1.349  0.000  1.349  0.000   25.0    0.0   25.0    0.0
 1992 239    12  17.90  20.30   6.20  3.857  1.066  0.000  1.066  0.000   26.0    0.0   26.0    0.0
 1992 240    13  17.60  25.40   6.30  4.061  0.909  0.000  0.909  0.000   27.0    0.0   27.0    0.0
 1992 241    14  11.50  18.80  11.40  2.544  0.811  0.004  0.807  0.000   27.8    0.0   27.8    0.0
 1992 242    15  14.20  24.40  11.00  3.365  0.742  0.009  0.732  0.000   28.5    0.0   28.5    0.0
 1992 243    16   5.50  20.90  15.20  1.292  0.681  0.006  0.676  0.000   29.2    0.0   29.2    0.0
 1992 244    17   7.20  13.80   9.60  1.460  1.460  0.009  1.450  0.000   30.6    0.0   30.6    0.0
 1992 245    18   7.50  14.00   7.20  1.489  1.141  0.010  1.130  0.000   31.8    0.0   31.8    0.0
 1992 246    19   5.70  14.80   8.60  1.161  0.957  0.009  0.948  0.000   32.7    0.0   32.7    0.0
 1992 247    20  14.90  17.40   7.30  3.111  0.859  0.026  0.833  0.000   33.6    0.1   33.5    0.0
 1992 248    21  18.80  18.80   6.80  3.984  0.789  0.037  0.752  0.000   34.4    0.1   34.3    0.0
 1992 249    22  18.30  21.20   6.10  3.982  0.732  0.041  0.691  0.000   35.1    0.2   35.0    0.0
 1992 250    23  18.30  18.80   8.70  3.945  0.690  0.047  0.643  0.000   35.8    0.2   35.6    0.0
 1992 251    24  17.80  20.60   9.70  3.966  0.656  0.053  0.603  0.000   36.5    0.3   36.2    0.0
 1992 252    25   5.90  20.10  13.60  1.350  0.596  0.026  0.570  0.000   37.1    0.3   36.8    0.0
 1992 253    26  11.20  20.00  13.40  2.552  0.609  0.067  0.542  0.000   37.7    0.3   37.3    0.0
 1992 254    27  12.60  21.60  13.10  2.920  0.616  0.099  0.518  0.000   38.3    0.4   37.9    0.0
 1992 255    28   8.60  21.20  14.90  2.011  2.011  0.086  1.924  0.000   40.3    0.5   39.8    0.0
 1992 256    29  16.90  19.30  12.30  3.765  1.320  0.200  1.120  0.000   41.6    0.7   40.9    0.0
 1992 257    30  10.20  16.70   8.80  2.121  0.742  0.132  0.610  0.000   42.4    0.9   41.5    0.0
 1992 258    31  17.10  20.10   6.20  3.637  0.822  0.246  0.576  0.000   43.2    1.1   42.1    0.0
 1992 259    32  19.70  21.30   9.00  4.363  0.872  0.325  0.547  0.000   44.1    1.4   42.6    0.0
 1992 260    33  12.60  22.60  12.60  2.923  0.769  0.246  0.522  0.000   44.8    1.7   43.2    0.0
 1992 261    34  14.90  26.70  15.20  3.703  0.860  0.360  0.501  0.000   45.7    2.0   43.7    0.0
 1992 262    35  19.80  16.60   9.30  4.098  3.675  0.475  3.200  0.000   49.4    2.5   46.9    0.0
 1992 263    36  21.60  19.30   5.20  4.464  1.066  0.553  0.513  0.000   50.4    3.1   47.4    0.0
 1992 264    37  21.40  25.60   5.90  4.838  1.128  0.636  0.492  0.000   51.6    3.7   47.9    0.0
 1992 265    38  21.20  30.00  10.20  5.228  5.228  0.767  4.461  0.000   56.8    4.5   52.3    0.0
 1992 266    39   6.50  12.70   8.80  1.255  1.255  0.213  1.042  0.000   58.0    4.7   53.4    0.0
 1992 267    40  16.00  18.60   6.50  3.289  3.289  0.575  2.714  0.000   61.3    5.3   56.1    0.0
 1992 268    41   6.60  13.20  10.60  1.304  1.304  0.237  1.067  0.000   62.6    5.5   57.1    0.0
 1992 269    42  21.20  12.50   4.50  3.896  3.896  0.730  3.166  0.000   66.5    6.2   60.3    0.0
 1992 270    43  20.60  14.20   0.80  3.741  3.656  0.693  2.963  0.000   70.2    6.9   63.3    0.0
 1992 271    44  21.70  20.00   4.50  4.488  4.006  0.632  3.374  0.000   74.2    7.5   66.6    0.0
 1992 272    45  23.00  21.40   5.30  4.880  2.173  0.723  1.449  0.000   76.4    8.3   68.1    0.0
 1992 273    46  23.30  23.20   6.10  5.091  1.936  0.824  1.112  0.000   78.3    9.1   69.2    0.0
 1992 274    47  22.50  26.20  10.30  5.279  1.887  0.949  0.938  0.000   80.2   10.0   70.1    0.0
 1992 275    48  12.50  26.40  11.00  2.945  1.434  0.607  0.826  0.000   81.6   10.7   71.0    0.0
 1992 276    49  11.80  21.80  13.00  2.659  2.219  0.619  1.600  0.000   83.8   11.3   72.6    0.0
 1992 277    50  17.90  20.60  11.10  3.893  1.779  0.996  0.783  0.000   85.6   12.3   73.4    0.0
 1992 278    51  18.00  25.50  11.70  4.174  1.869  1.154  0.715  0.000   87.5   13.4   74.1    0.0
 1992 279    52   7.10  18.20  11.80  1.493  1.125  0.463  0.662  0.000   88.6   13.9   74.7    0.0
 1992 280    53  24.40  15.90   7.40  4.755  4.446  1.571  2.876  0.000   93.1   15.5   77.6    0.0
 1992 281    54  21.30  15.60   4.20  3.997  3.997  1.373  2.624  0.000   97.1   16.8   80.2    0.0
 1992 282    55  24.30  19.00   3.40  4.756  3.210  1.630  1.580  0.000  100.3   18.5   81.8    0.0
 1992 283    56  24.30  21.00   6.60  5.045  2.853  1.687  1.167  0.000  103.1   20.1   83.0    0.0
 1992 284    57  25.10  25.30   7.30  5.531  2.931  1.961  0.969  0.000  106.1   22.1   83.9    0.0
 1992 285    58  16.70  27.20   9.20  3.811  2.310  1.463  0.848  0.000  108.4   23.6   84.8    0.0
 1992 286    59  22.70  24.00  12.40  5.088  2.880  2.117  0.763  0.000  111.2   25.7   85.6    0.0
 1992 287    60  25.10  25.60   8.60  5.534  3.179  2.480  0.699  0.000  114.4   28.2   86.3    0.0
 1992 288    61  24.70  29.50  11.40  5.818  3.403  2.754  0.649  0.000  117.8   30.9   86.9    0.0
 1992 289    62   7.60  31.50  15.50  1.879  1.564  0.955  0.609  0.000  119.4   31.9   87.5    0.0
 1992 290    63   9.30  20.50  15.70  2.013  2.013  1.087  0.925  0.000  121.4   33.0   88.4    0.0
 1992 291    64  23.40  21.20  12.00  4.930  4.930  2.810  2.119  0.000  126.3   35.8   90.6    0.0
 1992 292    65  25.90  21.20   7.50  5.226  5.226  3.103  2.123  0.000  131.6   38.9   92.7    0.0
 1992 293    66   9.10  19.80  11.20  1.858  1.858  1.134  0.724  0.000  133.4   40.0   93.4    0.0
 1992 294    67  24.10  18.60  10.30  4.790  4.790  3.012  1.778  0.000  138.2   43.0   95.2    0.0
 1992 295    68  26.10  21.30   5.50  5.141  5.141  3.310  1.830  0.000  143.3   46.3   97.0    0.0
 1992 296    69  24.90  24.50   7.60  5.202  5.202  3.417  1.785  0.000  148.5   49.7   98.8    0.0
 1992 297    70  25.00  27.30  12.00  5.593  5.107  3.772  1.335  0.000  153.7   53.5  100.1    0.0
 1992 298    71  24.60  30.90  14.60  5.833  5.833  4.075  1.758  0.000  159.5   57.6  101.9    0.0
 1992 299    72   9.50  26.40  17.60  2.180  2.180  1.584  0.596  0.000  161.7   59.2  102.5    0.0
 1992 300    73  26.70  27.40  17.30  6.166  6.166  4.606  1.560  0.000  167.8   63.8  104.0    0.0
 1992 301    74  27.40  30.00  15.80  6.422  6.116  4.945  1.172  0.000  173.9   68.7  105.2    0.0
 1992 302    75  10.50  15.30   6.40  1.875  1.875  1.484  0.391  0.000  175.8   70.2  105.6    0.0
 1992 303    76  27.70  21.90   3.90  5.302  5.302  4.215  1.087  0.000  181.1   74.4  106.7    0.0
 1992 304    77  26.80  21.80   6.40  5.245  5.245  4.135  1.110  0.000  186.4   78.6  107.8    0.0
 1992 305    78  26.90  23.80   6.80  5.418  5.418  4.315  1.103  0.000  191.8   82.9  108.9    0.0
 1992 306    79  27.10  27.10   9.00  5.790  5.790  4.665  1.125  0.000  197.6   87.5  110.0    0.0
 1992 307    80  27.30  30.20  13.00  6.235  6.235  5.100  1.136  0.000  203.8   92.6  111.2    0.0
 1992 308    81  21.90  19.80   9.40  4.258  4.258  3.548  0.710  0.000  208.1   96.2  111.9    0.0
 1992 309    82  27.20  14.10   6.50  4.742  4.742  3.983  0.759  0.000  212.8  100.2  112.6    0.0
 1992 310    83  24.50  16.40   2.70  4.255  4.255  3.582  0.672  0.000  217.1  103.8  113.3    0.0
 1992 311    84  27.00  19.20   4.80  5.008  5.008  4.058  0.950  0.000  222.1  107.8  114.3    0.0
 1992 312    85  27.40  21.50   7.30  5.366  5.366  4.355  1.010  0.000  227.4  112.2  115.3    0.0
 1992 313    86  28.00  25.20   8.30  5.798  5.798  4.748  1.049  0.000  233.2  116.9  116.3    0.0
 1992 314    87  28.20  29.80  10.00  6.254  6.165  5.183  0.982  0.000  239.4  122.1  117.3    0.0
 1992 315    88   8.60  22.00  16.00  1.818  1.818  1.530  0.288  0.000  241.2  123.6  117.6    0.0
 1992 316    89  23.60  28.40  16.10  5.381  5.381  4.577  0.805  0.000  246.6  128.2  118.4    0.0
 1992 317    90  28.00  29.50  15.30  6.410  6.410  5.564  0.847  0.000  253.0  133.8  119.2    0.0
 1992 318    91  28.50  27.90  12.90  6.276  6.276  5.527  0.749  0.000  259.3  139.3  120.0    0.0
 1992 319    92  19.40  31.40  14.40  4.494  4.494  3.994  0.500  0.000  263.8  143.3  120.5    0.0
 1992 320    93  23.00  25.50  17.30  5.086  5.086  4.557  0.529  0.000  268.9  147.9  121.0    0.0
 1992 321    94  28.80  20.40  11.50  5.696  5.696  5.134  0.561  0.000  274.6  153.0  121.6    0.0
 1992 322    95  28.20  21.50   7.70  5.471  5.471  4.943  0.527  0.000  280.0  157.9  122.1    0.0
 1992 323    96  28.80  23.90   7.20  5.740  5.740  5.193  0.547  0.000  285.8  163.1  122.7    0.0
 1992 324    97  29.50  28.10  11.20  6.403  6.403  5.801  0.601  0.000  292.2  168.9  123.3    0.0
 1992 325    98  22.20  30.00  13.80  5.025  5.025  4.566  0.459  0.000  297.2  173.5  123.7    0.0
 1992 326    99   8.70  21.20  13.60  1.768  1.768  1.611  0.156  0.000  299.0  175.1  123.9    0.0
 1992 327   100  25.70  19.30  10.00  4.936  4.936  4.502  0.434  0.000  303.9  179.6  124.3    0.0
 1992 328   101  22.10  20.60   6.40  4.181  4.181  3.814  0.367  0.000  308.1  183.4  124.7    0.0
 1992 329   102  24.00  26.00  11.10  5.070  5.070  4.624  0.447  0.000  313.2  188.0  125.1    0.0
 1992 330   103  21.90  23.90  15.40  4.669  4.669  4.263  0.406  0.000  317.8  192.3  125.5    0.0
 1992 331   104  19.00  26.00  14.30  4.117  4.117  3.765  0.353  0.000  321.9  196.1  125.9    0.0
 1992 332   105  30.10  27.20  12.90  6.542  6.542  5.990  0.552  0.000  328.5  202.1  126.4    0.0
 1992 333   106  21.00  27.70  13.50  4.613  4.613  4.229  0.384  0.000  333.1  206.3  126.8    0.0
 1992 334   107  19.80  29.80  16.90  4.572  4.572  4.196  0.375  0.000  337.7  210.5  127.2    0.0
 1992 335   108  21.90  28.00  18.70  5.021  5.021  4.618  0.404  0.000  342.7  215.1  127.6    0.0
 1992 336   109  29.50  23.90  14.00  6.215  6.215  5.702  0.513  0.000  348.9  220.8  128.1    0.0
 1992 337   110  30.20  24.80   8.90  6.169  6.169  5.646  0.523  0.000  355.1  226.4  128.6    0.0
 1992 338   111  26.20  27.40   9.70  5.565  5.565  5.084  0.481  0.000  360.6  231.5  129.1    0.0
 1992 339   112  30.30  29.10  13.50  6.769  6.769  6.173  0.596  0.000  367.4  237.7  129.7    0.0
 1992 340   113  18.70  28.20  13.80  4.145  4.145  3.774  0.371  0.000  371.6  241.5  130.1    0.0
 1992 341   114  25.20  29.60  18.90  5.899  5.899  5.362  0.537  0.000  377.5  246.8  130.6    0.0
 1992 342   115  23.30  26.40  15.40  5.122  5.122  4.649  0.473  0.000  382.6  251.5  131.1    0.0
 1992 343   116  25.40  27.90  14.80  5.657  5.657  5.127  0.530  0.000  388.2  256.6  131.6    0.0
 1992 344   117  21.00  26.70  16.50  4.674  4.674  4.231  0.443  0.000  392.9  260.9  132.1    0.0
 1992 345   118  22.70  27.30  18.10  5.151  5.151  4.657  0.494  0.000  398.1  265.5  132.6    0.0
 1992 346   119  23.20  26.50  15.70  5.121  5.121  4.624  0.497  0.000  403.2  270.1  133.1    0.0
 1992 347   120  29.50  27.30  13.40  6.457  6.457  5.824  0.633  0.000  409.6  276.0  133.7    0.0
 1992 348   121  30.90  30.20  14.90  7.076  7.076  6.376  0.700  0.000  416.7  282.3  134.4    0.0
 1992 349   122  28.90  28.40  15.70  6.524  6.524  5.872  0.652  0.000  423.2  288.2  135.0    0.0
 1992 350   123  30.30  28.00  10.00  6.512  6.512  5.852  0.660  0.000  429.8  294.1  135.7    0.0
 1992 351   124  24.80  29.80  12.50  5.554  5.554  4.982  0.572  0.000  435.3  299.0  136.3    0.0
 1992 352   125  19.40  27.60  17.70  4.410  4.410  3.947  0.463  0.000  439.7  303.0  136.7    0.0
 1992 353   126  29.70  30.40  14.50  6.804  6.804  6.076  0.728  0.000  446.5  309.1  137.5    0.0
 1992 354   127  18.00  30.80  14.60  4.147  4.147  3.693  0.453  0.000  450.7  312.8  137.9    0.0
 1992 355   128  31.80  33.80  18.10  7.768  7.768  6.899  0.870  0.000  458.4  319.7  138.8    0.0
 1992 356   129  25.50  32.40  15.70  6.033  6.033  5.340  0.693  0.000  464.5  325.0  139.5    0.0
 1992 357   130  11.20  29.40  18.60  2.620  2.620  2.311  0.309  0.000  467.1  327.3  139.8    0.0
 1992 358   131  11.20  27.70  20.80  2.615  2.615  2.297  0.318  0.000  469.7  329.6  140.1    0.0
 1992 359   132  27.80  28.90  17.70  6.431  6.431  5.623  0.807  0.000  476.1  335.2  140.9    0.0
 1992 360   133  22.90  27.40  15.10  5.108  5.108  4.446  0.662  0.000  481.2  339.7  141.6    0.0
 1992 361   134  31.40  27.40  13.20  6.905  6.905  5.980  0.925  0.000  488.1  345.7  142.5    0.0
 1992 362   135  31.00  28.00  12.60  6.838  6.838  5.888  0.950  0.000  495.0  351.5  143.4    0.0
 1992 363   136  30.00  32.00  13.10  6.961  6.961  5.956  1.005  0.000  501.9  357.5  144.5    0.0
 1992 364   137   9.10  25.60  19.70  2.066  2.066  1.755  0.310  0.000  504.0  359.2  144.8    0.0
 1992 365   138   9.10  23.30  19.60  2.011  2.011  1.696  0.315  0.000  506.0  360.9  145.1    0.0
 1992 366   139   9.10  20.20  19.20  1.933  1.933  1.617  0.316  0.000  508.0  362.6  145.4    0.0
 1993 001   140   9.10  21.20  19.60  1.965  1.965  1.630  0.335  0.000  509.9  364.2  145.7    0.0
 1993 002   141   9.10  21.80  19.40  1.979  1.979  1.627  0.352  0.000  511.9  365.8  146.1    0.0
 1993 003   142   9.10  21.90  19.70  1.988  1.988  1.619  0.369  0.000  513.9  367.4  146.4    0.0
 1993 004   143  14.90  28.90  19.80  3.535  3.535  2.851  0.684  0.000  517.4  370.3  147.1    0.0
 1993 005   144  23.60  30.80  21.50  5.794  5.794  4.625  1.169  0.000  523.2  374.9  148.3    0.0
 1993 006   145  29.90  32.00  19.70  7.350  7.350  5.804  1.546  0.000  530.6  380.7  149.8    0.0
 1993 007   146  12.50  27.20  20.30  2.932  2.932  2.288  0.644  0.000  533.5  383.0  150.5    0.0
 1993 008   147  20.20  26.60  20.10  4.706  4.706  3.626  1.080  0.000  538.2  386.6  151.6    0.0
 1993 009   148  30.70  26.90  16.00  6.966  6.966  5.292  1.673  0.000  545.2  391.9  153.2    0.0
 1993 010   149  30.90  31.10  16.00  7.366  7.366  5.514  1.852  0.000  552.5  397.4  155.1    0.0
 1993 011   150  31.30  32.20  17.60  7.654  7.406  5.640  1.766  0.000  559.9  403.1  156.9    0.0
 1993 012   151  30.90  32.70  19.60  7.720  7.720  5.593  2.128  0.000  567.7  408.7  159.0    0.0
 1993 013   152  22.70  33.00  20.70  5.745  5.745  4.086  1.659  0.000  573.4  412.8  160.6    0.0
 1993 014   153  17.40  30.10  22.30  4.328  4.295  3.018  1.277  0.000  577.7  415.8  161.9    0.0
 1993 015   154  26.90  30.80  22.50  6.765  6.765  4.621  2.143  0.000  584.5  420.4  164.1    0.0
 1993 016   155  17.50  28.50  22.00  4.287  4.287  2.867  1.420  0.000  588.8  423.3  165.5    0.0
 1993 017   156  25.50  23.30  16.60  5.658  5.658  3.701  1.957  0.000  594.4  427.0  167.4    0.0
 1993 018   157  25.10  24.80  11.70  5.462  4.866  3.492  1.374  0.000  599.3  430.5  168.8    0.0
 1993 019   158  26.40  26.50  15.60  6.064  6.064  3.788  2.276  0.000  605.3  434.2  171.1    0.0
 1993 020   159  29.90  30.10  16.60  7.212  6.057  4.505  1.552  0.000  611.4  438.8  172.6    0.0
 1993 021   160  30.10  31.80  16.50  7.392  5.774  4.618  1.156  0.000  617.2  443.4  173.8    0.0
