*SIMULATION OVERVIEW FILE

*DSSAT Cropping System Model Ver. 4.0.2.000               Aug 03, 2016; 15:38:15
                                                                                
*RUN   1        : UYMZ                                                          
 MODEL          : MZCER040 - MAIZE                                              
 EXPERIMENT     : UYMZ0131 SN late to create DSS                                
 TREATMENT  1   : UYMZ                                                          
                                                                                
 CROP           : MAIZE          CULTIVAR : CMEDIO UY        ECOTYPE :IB0001    
 STARTING DATE  : AUG 15 1987                                                   
 PLANTING DATE  : AUG 18 1987    PLANTS/m2 :  7.0     ROW SPACING :  15.cm      
 WEATHER        : UYTA   1987                                                   
 SOIL           : UYSS0N2002     TEXTURE :       -  N20-02    SNIA CLAY RISS    
 SOIL INITIAL C : DEPTH:125cm EXTR. H2O:186.3mm  NO3: 74.8kg/ha  NH4: 23.9kg/ha 
 WATER BALANCE  : AUTOMATIC IRRIGATION - REFILL PROFILE                         
 IRRIGATION     : AUTOMATIC - PLANTING -> MATURITY [ SOIL DEPTH:30.00m 50.%]    
 NITROGEN BAL.  : SOIL-N & N-UPTAKE SIMULATION; NO N-FIXATION                   
 N-FERTILIZER   :       25 kg/ha IN     3 APPLICATIONS                          
 RESIDUE/MANURE : INITIAL :     0 kg/ha ;       0 kg/ha IN     0 APPLICATIONS   
 ENVIRONM. OPT. : DAYL=    0.00  SRAD=    0.00  TMAX=    0.00  TMIN=    0.00    
                  RAIN=    0.00  CO2 = R330.00  DEW =    0.00  WIND=    0.00    
 SIMULATION OPT : WATER   :Y  NITROGEN:Y  N-FIX:N  PHOSPH :N  PESTS  :N         
                  PHOTO   :C  ET      :R  INFIL:S  HYDROL :R  SOM    :G         
 MANAGEMENT OPT : PLANTING:R  IRRIG   :A  FERT :D  RESIDUE:N  HARVEST:M  WTH:M  
                                                                                
*SUMMARY OF SOIL AND GENETIC INPUT PARAMETERS                                   
                                                                                
   SOIL LOWER UPPER   SAT  EXTR  INIT   ROOT   BULK     pH    NO3    NH4    ORG 
  DEPTH LIMIT LIMIT    SW    SW    SW   DIST   DENS                          C  
   cm   cm3/cm3    cm3/cm3    cm3/cm3         g/cm3         ugN/g  ugN/g     %  
------------------------------------------------------------------------------- 
  0-  5 0.331 0.542 0.585 0.211 0.394   1.00   1.11   6.50  15.00   1.50   2.74 
  5- 15 0.331 0.542 0.585 0.211 0.394   1.00   1.11   6.50  15.00   1.50   2.74 
 15- 30 0.331 0.542 0.585 0.211 0.394   1.00   1.11   6.50  15.00   1.50   2.74 
 30- 45 0.290 0.438 0.491 0.148 0.334   0.43   1.26   6.50   8.50   1.50   1.07 
 45- 60 0.292 0.431 0.480 0.138 0.375   0.39   1.29   6.27   4.53   1.50   0.90 
 60- 90 0.293 0.419 0.466 0.126 0.419   0.32   1.34   6.00   0.00   1.50   0.64 
 90-108 0.286 0.408 0.460 0.122 0.408   0.23   1.36   6.00   0.00   1.50   0.35 
108-125 0.276 0.395 0.456 0.119 0.395   0.12   1.38   6.00   0.00   1.50   0.14 
                                                                                
TOT-125  37.3  55.9  62.1  18.6  49.1  <--cm   -  kg/ha-->   74.8   23.9 166127 
SOIL ALBEDO    : 0.09      EVAPORATION LIMIT : 6.00         MIN. FACTOR  : 1.00 
RUNOFF CURVE # :10.00      DRAINAGE RATE     : 0.40         FERT. FACTOR : 1.00 
                                                                                
 MAIZE      CULTIVAR :UY0370-CMEDIO UY          ECOTYPE :IB0001                 
 P1     : 280.00  P2     : 0.0000  P5     : 750.00                              
 G2     : 800.00  G3     :  7.500  PHINT  : 38.900                              
                                                                                
                                                                                
                                                                                
*SIMULATED CROP AND SOIL STATUS AT MAIN DEVELOPMENT STAGES

 RUN NO.     1     UYMZ                    

        CROP GROWTH   BIOMASS         LEAF   CROP N     STRESS  
   DATE  AGE STAGE      kg/ha    LAI   NUM  kg/ha  %   H2O    N 
 ------  --- ---------- -----  -----  ----  ---  ---  ----  ----
 15 AUG    0 Start Sim      0   0.00   0.0    0  0.0  0.00  0.00
 18 AUG    0 Sowing         0   0.00   0.0    0  0.0  0.00  0.00
 19 AUG    1 Germinate      0   0.00   0.0    0  0.0  0.00  0.00
  1 SEP   14 Emergence     28   0.00   1.7    1  4.4  0.00  0.00
 15 OCT   58 End Juveni   311   0.57   9.5   12  3.9  0.00  0.00
 19 OCT   62 Floral Ini   439   0.76  10.4   16  3.7  0.00  0.01
  2 DEC  106 75% Silkin  8699   4.38  21.9  128  1.5  0.00  0.03
 16 DEC  120 Beg Gr Fil 11037   4.05  21.9  136  1.2  0.00  0.04
 23 JAN  158 End Gr Fil 19617   1.97  21.9  155  0.8  0.00  0.20
 26 JAN  161 Maturity   19617   1.97  21.9  155  0.8  0.00  0.48
 26 JAN  161 Harvest    19617   1.97  21.9  155  0.8  0.00  0.00


*MAIN GROWTH AND DEVELOPMENT VARIABLES

@     VARIABLE                          SIMULATED     MEASURED
      --------                          ---------     --------
      Anthesis day (dap)                      106          -99
      Physiological maturity day (dap)        161          -99
      Yield at harvest maturity (kg [dm]/    9441          -99
      Number at maturity (no/m2)             3690          -99
      Unit wt at maturity (g [dm]/unit)    0.2558          -99
      Number at maturity (no/unit)          527.2          -99
      Tops weight at maturity (kg [dm]/ha   19617          -99
      By-product produced (stalk) at matu   10257          -99
      Leaf area index, maximum               4.42          -99
      Harvest index at maturity             0.481          -99
      Grain N at maturity (kg/ha)             113          -99
      Tops N at maturity (kg/ha)              155          -99
      Stem N at maturity (kg/ha)               42          -99
      Grain N at maturity (%)                 1.2          -99
      Tops weight at anthesis (kg [dm]/ha    8437          -99
      Tops N at anthesis (kg/ha)              127          -99
      Leaf number per stem at maturity      21.86          -99


*ENVIRONMENTAL AND STRESS FACTORS

 |-----Development Phase------|-------------Environment--------------|---------Stress----------|
                              |--------Average-------|---Cumulative--|  (0=Min, 1=Max Stress)  |
                         Time  Temp  Temp Solar Photop         Evapo |----Water---|--Nitrogen--|
                         Span   Max   Min   Rad  [day]   Rain  Trans  Photo         Photo
                         days    øC    øC MJ/m2     hr     mm     mm  synth Growth  synth Growth
------------------------------------------------------------------------------------------------
 Emergence-End Juvenile    44  19.3   7.3  16.8  12.02  103.8   67.0  0.000  0.000  0.002  0.001
 End Juvenil-Floral Init    4  19.1   8.9  16.2  12.81   13.0   15.3  0.000  0.000  0.001  0.000
 Floral Init-End Lf Grow   44  25.5  13.5  21.3  13.46  210.8  193.1  0.000  0.000  0.081  0.033
 End Lf Grth-Beg Grn Fil   14  26.5  15.3  23.1  14.00  103.0   69.0  0.000  0.000  0.123  0.049
 Grain Filling Phase       38  27.9  16.8  22.6  13.98  389.0  196.6  0.000  0.000  0.377  0.185

                     Maize YIELD :     9441 kg/ha    [Dry weight] 

************************************************************************************************

*DSSAT Cropping System Model Ver. 4.0.2.000               Aug 03, 2016; 15:38:15
                                                                                
*RUN   2        : UYMZ                                                          
 MODEL          : MZCER040 - MAIZE                                              
 EXPERIMENT     : UYMZ0131 SN late to create DSS                                
 TREATMENT  1   : UYMZ                                                          
                                                                                
 CROP           : MAIZE          CULTIVAR : CMEDIO UY        ECOTYPE :IB0001    
 STARTING DATE  : AUG 15 1987                                                   
 PLANTING DATE  : AUG 18 1987    PLANTS/m2 :  7.0     ROW SPACING :  15.cm      
 WEATHER        : UYTA   1987                                                   
 SOIL           : UYSS0N2002     TEXTURE :       -  N20-02    SNIA CLAY RISS    
 SOIL INITIAL C : DEPTH:125cm EXTR. H2O:186.3mm  NO3: 74.8kg/ha  NH4: 23.9kg/ha 
 WATER BALANCE  : AUTOMATIC IRRIGATION - REFILL PROFILE                         
 IRRIGATION     : AUTOMATIC - PLANTING -> MATURITY [ SOIL DEPTH:30.00m 50.%]    
 NITROGEN BAL.  : SOIL-N & N-UPTAKE SIMULATION; NO N-FIXATION                   
 N-FERTILIZER   :       25 kg/ha IN     3 APPLICATIONS                          
 RESIDUE/MANURE : INITIAL :     0 kg/ha ;       0 kg/ha IN     0 APPLICATIONS   
 ENVIRONM. OPT. : DAYL=    0.00  SRAD=    0.00  TMAX=    0.00  TMIN=    0.00    
                  RAIN=    0.00  CO2 = R330.00  DEW =    0.00  WIND=    0.00    
 SIMULATION OPT : WATER   :Y  NITROGEN:Y  N-FIX:N  PHOSPH :N  PESTS  :N         
                  PHOTO   :C  ET      :R  INFIL:S  HYDROL :R  SOM    :G         
 MANAGEMENT OPT : PLANTING:R  IRRIG   :A  FERT :D  RESIDUE:N  HARVEST:M  WTH:M  
                                                                                
*SUMMARY OF SOIL AND GENETIC INPUT PARAMETERS                                   
                                                                                
   SOIL LOWER UPPER   SAT  EXTR  INIT   ROOT   BULK     pH    NO3    NH4    ORG 
  DEPTH LIMIT LIMIT    SW    SW    SW   DIST   DENS                          C  
   cm   cm3/cm3    cm3/cm3    cm3/cm3         g/cm3         ugN/g  ugN/g     %  
------------------------------------------------------------------------------- 
  0-  5 0.331 0.542 0.585 0.211 0.394   1.00   1.11   6.50  15.00   1.50   2.74 
  5- 15 0.331 0.542 0.585 0.211 0.394   1.00   1.11   6.50  15.00   1.50   2.74 
 15- 30 0.331 0.542 0.585 0.211 0.394   1.00   1.11   6.50  15.00   1.50   2.74 
 30- 45 0.290 0.438 0.491 0.148 0.334   0.43   1.26   6.50   8.50   1.50   1.07 
 45- 60 0.292 0.431 0.480 0.138 0.375   0.39   1.29   6.27   4.53   1.50   0.90 
 60- 90 0.293 0.419 0.466 0.126 0.419   0.32   1.34   6.00   0.00   1.50   0.64 
 90-108 0.286 0.408 0.460 0.122 0.408   0.23   1.36   6.00   0.00   1.50   0.35 
108-125 0.276 0.395 0.456 0.119 0.395   0.12   1.38   6.00   0.00   1.50   0.14 
                                                                                
TOT-125  37.3  55.9  62.1  18.6  49.1  <--cm   -  kg/ha-->   74.8   23.9 166127 
SOIL ALBEDO    : 0.09      EVAPORATION LIMIT : 6.00         MIN. FACTOR  : 1.00 
RUNOFF CURVE # :10.00      DRAINAGE RATE     : 0.40         FERT. FACTOR : 1.00 
                                                                                
 MAIZE      CULTIVAR :UY0370-CMEDIO UY          ECOTYPE :IB0001                 
 P1     : 280.00  P2     : 0.0000  P5     : 750.00                              
 G2     : 800.00  G3     :  7.500  PHINT  : 38.900                              
                                                                                
                                                                                
                                                                                
*SIMULATED CROP AND SOIL STATUS AT MAIN DEVELOPMENT STAGES

 RUN NO.     2     UYMZ                    

        CROP GROWTH   BIOMASS         LEAF   CROP N     STRESS  
   DATE  AGE STAGE      kg/ha    LAI   NUM  kg/ha  %   H2O    N 
 ------  --- ---------- -----  -----  ----  ---  ---  ----  ----
 14 AUG    0 Start Sim      0   0.00   0.0    0  0.0  0.00  0.00
 17 AUG    0 Sowing         0   0.00   0.0    0  0.0  0.00  0.00
 18 AUG    1 Germinate      0   0.00   0.0    0  0.0  0.00  0.00
 25 AUG    8 Emergence     28   0.00   1.7    1  4.4  0.00  0.00
  8 OCT   52 End Juveni   314   0.55   9.6   12  3.7  0.00  0.00
 12 OCT   56 Floral Ini   471   0.79  10.5   17  3.7  0.00  0.01
  2 DEC  107 75% Silkin  8763   4.04  22.0  120  1.4  0.00  0.04
 14 DEC  119 Beg Gr Fil 11251   3.68  22.0  127  1.1  0.00  0.06
 16 JAN  152 End Gr Fil 19939   1.68  22.0  145  0.7  0.00  0.27
 18 JAN  154 Maturity   19939   1.68  22.0  145  0.7  0.00  0.58
 18 JAN  154 Harvest    19939   1.68  22.0  145  0.7  0.00  0.00


*MAIN GROWTH AND DEVELOPMENT VARIABLES

@     VARIABLE                          SIMULATED     MEASURED
      --------                          ---------     --------
      Anthesis day (dap)                      107          -99
      Physiological maturity day (dap)        154          -99
      Yield at harvest maturity (kg [dm]/    9529          -99
      Number at maturity (no/m2)             3981          -99
      Unit wt at maturity (g [dm]/unit)    0.2394          -99
      Number at maturity (no/unit)          568.7          -99
      Tops weight at maturity (kg [dm]/ha   19939          -99
      By-product produced (stalk) at matu   10495          -99
      Leaf area index, maximum               4.16          -99
      Harvest index at maturity             0.478          -99
      Grain N at maturity (kg/ha)             104          -99
      Tops N at maturity (kg/ha)              145          -99
      Stem N at maturity (kg/ha)               42          -99
      Grain N at maturity (%)                 1.1          -99
      Tops weight at anthesis (kg [dm]/ha    8588          -99
      Tops N at anthesis (kg/ha)              119          -99
      Leaf number per stem at maturity      22.05          -99


*ENVIRONMENTAL AND STRESS FACTORS

 |-----Development Phase------|-------------Environment--------------|---------Stress----------|
                              |--------Average-------|---Cumulative--|  (0=Min, 1=Max Stress)  |
                         Time  Temp  Temp Solar Photop         Evapo |----Water---|--Nitrogen--|
                         Span   Max   Min   Rad  [day]   Rain  Trans  Photo         Photo
                         days    øC    øC MJ/m2     hr     mm     mm  synth Growth  synth Growth
------------------------------------------------------------------------------------------------
 Emergence-End Juvenile    44  19.0   7.5  15.2  11.83  165.6   74.4  0.000  0.000  0.005  0.002
 End Juvenil-Floral Init    4  23.1   8.8  20.3  12.62    0.0    9.6  0.000  0.000  0.001  0.000
 Floral Init-End Lf Grow   51  25.5  11.0  24.5  13.39  110.6  251.9  0.000  0.000  0.107  0.043
 End Lf Grth-Beg Grn Fil   12  30.6  15.4  25.2  14.00    4.0   71.5  0.000  0.000  0.166  0.067
 Grain Filling Phase       33  32.1  16.6  28.0  14.02   37.0  219.7  0.000  0.000  0.474  0.250

                     Maize YIELD :     9529 kg/ha    [Dry weight] 

************************************************************************************************

*DSSAT Cropping System Model Ver. 4.0.2.000               Aug 03, 2016; 15:38:15
                                                                                
*RUN   3        : UYMZ                                                          
 MODEL          : MZCER040 - MAIZE                                              
 EXPERIMENT     : UYMZ0131 SN late to create DSS                                
 TREATMENT  1   : UYMZ                                                          
                                                                                
 CROP           : MAIZE          CULTIVAR : CMEDIO UY        ECOTYPE :IB0001    
 STARTING DATE  : AUG 15 1987                                                   
 PLANTING DATE  : AUG 18 1987    PLANTS/m2 :  7.0     ROW SPACING :  15.cm      
 WEATHER        : UYTA   1987                                                   
 SOIL           : UYSS0N2002     TEXTURE :       -  N20-02    SNIA CLAY RISS    
 SOIL INITIAL C : DEPTH:125cm EXTR. H2O:186.3mm  NO3: 74.8kg/ha  NH4: 23.9kg/ha 
 WATER BALANCE  : AUTOMATIC IRRIGATION - REFILL PROFILE                         
 IRRIGATION     : AUTOMATIC - PLANTING -> MATURITY [ SOIL DEPTH:30.00m 50.%]    
 NITROGEN BAL.  : SOIL-N & N-UPTAKE SIMULATION; NO N-FIXATION                   
 N-FERTILIZER   :       25 kg/ha IN     3 APPLICATIONS                          
 RESIDUE/MANURE : INITIAL :     0 kg/ha ;       0 kg/ha IN     0 APPLICATIONS   
 ENVIRONM. OPT. : DAYL=    0.00  SRAD=    0.00  TMAX=    0.00  TMIN=    0.00    
                  RAIN=    0.00  CO2 = R330.00  DEW =    0.00  WIND=    0.00    
 SIMULATION OPT : WATER   :Y  NITROGEN:Y  N-FIX:N  PHOSPH :N  PESTS  :N         
                  PHOTO   :C  ET      :R  INFIL:S  HYDROL :R  SOM    :G         
 MANAGEMENT OPT : PLANTING:R  IRRIG   :A  FERT :D  RESIDUE:N  HARVEST:M  WTH:M  
                                                                                
*SUMMARY OF SOIL AND GENETIC INPUT PARAMETERS                                   
                                                                                
   SOIL LOWER UPPER   SAT  EXTR  INIT   ROOT   BULK     pH    NO3    NH4    ORG 
  DEPTH LIMIT LIMIT    SW    SW    SW   DIST   DENS                          C  
   cm   cm3/cm3    cm3/cm3    cm3/cm3         g/cm3         ugN/g  ugN/g     %  
------------------------------------------------------------------------------- 
  0-  5 0.331 0.542 0.585 0.211 0.394   1.00   1.11   6.50  15.00   1.50   2.74 
  5- 15 0.331 0.542 0.585 0.211 0.394   1.00   1.11   6.50  15.00   1.50   2.74 
 15- 30 0.331 0.542 0.585 0.211 0.394   1.00   1.11   6.50  15.00   1.50   2.74 
 30- 45 0.290 0.438 0.491 0.148 0.334   0.43   1.26   6.50   8.50   1.50   1.07 
 45- 60 0.292 0.431 0.480 0.138 0.375   0.39   1.29   6.27   4.53   1.50   0.90 
 60- 90 0.293 0.419 0.466 0.126 0.419   0.32   1.34   6.00   0.00   1.50   0.64 
 90-108 0.286 0.408 0.460 0.122 0.408   0.23   1.36   6.00   0.00   1.50   0.35 
108-125 0.276 0.395 0.456 0.119 0.395   0.12   1.38   6.00   0.00   1.50   0.14 
                                                                                
TOT-125  37.3  55.9  62.1  18.6  49.1  <--cm   -  kg/ha-->   74.8   23.9 166127 
SOIL ALBEDO    : 0.09      EVAPORATION LIMIT : 6.00         MIN. FACTOR  : 1.00 
RUNOFF CURVE # :10.00      DRAINAGE RATE     : 0.40         FERT. FACTOR : 1.00 
                                                                                
 MAIZE      CULTIVAR :UY0370-CMEDIO UY          ECOTYPE :IB0001                 
 P1     : 280.00  P2     : 0.0000  P5     : 750.00                              
 G2     : 800.00  G3     :  7.500  PHINT  : 38.900                              
                                                                                
                                                                                
                                                                                
*SIMULATED CROP AND SOIL STATUS AT MAIN DEVELOPMENT STAGES

 RUN NO.     3     UYMZ                    

        CROP GROWTH   BIOMASS         LEAF   CROP N     STRESS  
   DATE  AGE STAGE      kg/ha    LAI   NUM  kg/ha  %   H2O    N 
 ------  --- ---------- -----  -----  ----  ---  ---  ----  ----
 15 AUG    0 Start Sim      0   0.00   0.0    0  0.0  0.00  0.00
 18 AUG    0 Sowing         0   0.00   0.0    0  0.0  0.00  0.00
 19 AUG    1 Germinate      0   0.00   0.0    0  0.0  0.00  0.00
  1 SEP   14 Emergence     28   0.00   1.6    1  4.4  0.00  0.00
 13 OCT   56 End Juveni   312   0.55   9.5   13  4.0  0.00  0.00
 17 OCT   60 Floral Ini   446   0.75  10.4   16  3.7  0.00  0.01
  3 DEC  107 75% Silkin  8732   4.23  21.7  120  1.4  0.00  0.04
 13 DEC  117 Beg Gr Fil 11178   3.91  21.7  128  1.1  0.00  0.06
 17 JAN  152 End Gr Fil 20206   1.69  21.7  150  0.7  0.00  0.27
 20 JAN  155 Maturity   20206   1.69  21.7  150  0.7  0.00  0.56
 20 JAN  155 Harvest    20206   1.69  21.7  150  0.7  0.00  0.00


*MAIN GROWTH AND DEVELOPMENT VARIABLES

@     VARIABLE                          SIMULATED     MEASURED
      --------                          ---------     --------
      Anthesis day (dap)                      107          -99
      Physiological maturity day (dap)        155          -99
      Yield at harvest maturity (kg [dm]/   10009          -99
      Number at maturity (no/m2)             4007          -99
      Unit wt at maturity (g [dm]/unit)    0.2498          -99
      Number at maturity (no/unit)          572.4          -99
      Tops weight at maturity (kg [dm]/ha   20206          -99
      By-product produced (stalk) at matu   10276          -99
      Leaf area index, maximum               4.29          -99
      Harvest index at maturity             0.495          -99
      Grain N at maturity (kg/ha)             108          -99
      Tops N at maturity (kg/ha)              150          -99
      Stem N at maturity (kg/ha)               42          -99
      Grain N at maturity (%)                 1.1          -99
      Tops weight at anthesis (kg [dm]/ha    8557          -99
      Tops N at anthesis (kg/ha)              119          -99
      Leaf number per stem at maturity      21.69          -99


*ENVIRONMENTAL AND STRESS FACTORS

 |-----Development Phase------|-------------Environment--------------|---------Stress----------|
                              |--------Average-------|---Cumulative--|  (0=Min, 1=Max Stress)  |
                         Time  Temp  Temp Solar Photop         Evapo |----Water---|--Nitrogen--|
                         Span   Max   Min   Rad  [day]   Rain  Trans  Photo         Photo
                         days    øC    øC MJ/m2     hr     mm     mm  synth Growth  synth Growth
------------------------------------------------------------------------------------------------
 Emergence-End Juvenile    42  19.5   8.2  16.5  11.99  103.3   74.4  0.000  0.000  0.002  0.001
 End Juvenil-Floral Init    4  18.5   6.8  18.8  12.74    1.3    8.1  0.000  0.000  0.000  0.000
 Floral Init-End Lf Grow   47  25.0  12.9  23.1  13.44  200.4  227.4  0.000  0.000  0.095  0.038
 End Lf Grth-Beg Grn Fil   10  30.1  17.7  24.3  14.00   27.5   59.5  0.000  0.000  0.170  0.068
 Grain Filling Phase       35  30.5  16.9  26.5  14.01   65.0  215.9  0.000  0.000  0.475  0.253

                     Maize YIELD :    10009 kg/ha    [Dry weight] 

************************************************************************************************

*DSSAT Cropping System Model Ver. 4.0.2.000               Aug 03, 2016; 15:38:15
                                                                                
*RUN   4        : UYMZ                                                          
 MODEL          : MZCER040 - MAIZE                                              
 EXPERIMENT     : UYMZ0131 SN late to create DSS                                
 TREATMENT  1   : UYMZ                                                          
                                                                                
 CROP           : MAIZE          CULTIVAR : CMEDIO UY        ECOTYPE :IB0001    
 STARTING DATE  : AUG 15 1987                                                   
 PLANTING DATE  : AUG 18 1987    PLANTS/m2 :  7.0     ROW SPACING :  15.cm      
 WEATHER        : UYTA   1987                                                   
 SOIL           : UYSS0N2002     TEXTURE :       -  N20-02    SNIA CLAY RISS    
 SOIL INITIAL C : DEPTH:125cm EXTR. H2O:186.3mm  NO3: 74.8kg/ha  NH4: 23.9kg/ha 
 WATER BALANCE  : AUTOMATIC IRRIGATION - REFILL PROFILE                         
 IRRIGATION     : AUTOMATIC - PLANTING -> MATURITY [ SOIL DEPTH:30.00m 50.%]    
 NITROGEN BAL.  : SOIL-N & N-UPTAKE SIMULATION; NO N-FIXATION                   
 N-FERTILIZER   :       25 kg/ha IN     3 APPLICATIONS                          
 RESIDUE/MANURE : INITIAL :     0 kg/ha ;       0 kg/ha IN     0 APPLICATIONS   
 ENVIRONM. OPT. : DAYL=    0.00  SRAD=    0.00  TMAX=    0.00  TMIN=    0.00    
                  RAIN=    0.00  CO2 = R330.00  DEW =    0.00  WIND=    0.00    
 SIMULATION OPT : WATER   :Y  NITROGEN:Y  N-FIX:N  PHOSPH :N  PESTS  :N         
                  PHOTO   :C  ET      :R  INFIL:S  HYDROL :R  SOM    :G         
 MANAGEMENT OPT : PLANTING:R  IRRIG   :A  FERT :D  RESIDUE:N  HARVEST:M  WTH:M  
                                                                                
*SUMMARY OF SOIL AND GENETIC INPUT PARAMETERS                                   
                                                                                
   SOIL LOWER UPPER   SAT  EXTR  INIT   ROOT   BULK     pH    NO3    NH4    ORG 
  DEPTH LIMIT LIMIT    SW    SW    SW   DIST   DENS                          C  
   cm   cm3/cm3    cm3/cm3    cm3/cm3         g/cm3         ugN/g  ugN/g     %  
------------------------------------------------------------------------------- 
  0-  5 0.331 0.542 0.585 0.211 0.394   1.00   1.11   6.50  15.00   1.50   2.74 
  5- 15 0.331 0.542 0.585 0.211 0.394   1.00   1.11   6.50  15.00   1.50   2.74 
 15- 30 0.331 0.542 0.585 0.211 0.394   1.00   1.11   6.50  15.00   1.50   2.74 
 30- 45 0.290 0.438 0.491 0.148 0.334   0.43   1.26   6.50   8.50   1.50   1.07 
 45- 60 0.292 0.431 0.480 0.138 0.375   0.39   1.29   6.27   4.53   1.50   0.90 
 60- 90 0.293 0.419 0.466 0.126 0.419   0.32   1.34   6.00   0.00   1.50   0.64 
 90-108 0.286 0.408 0.460 0.122 0.408   0.23   1.36   6.00   0.00   1.50   0.35 
108-125 0.276 0.395 0.456 0.119 0.395   0.12   1.38   6.00   0.00   1.50   0.14 
                                                                                
TOT-125  37.3  55.9  62.1  18.6  49.1  <--cm   -  kg/ha-->   74.8   23.9 166127 
SOIL ALBEDO    : 0.09      EVAPORATION LIMIT : 6.00         MIN. FACTOR  : 1.00 
RUNOFF CURVE # :10.00      DRAINAGE RATE     : 0.40         FERT. FACTOR : 1.00 
                                                                                
 MAIZE      CULTIVAR :UY0370-CMEDIO UY          ECOTYPE :IB0001                 
 P1     : 280.00  P2     : 0.0000  P5     : 750.00                              
 G2     : 800.00  G3     :  7.500  PHINT  : 38.900                              
                                                                                
                                                                                
                                                                                
*SIMULATED CROP AND SOIL STATUS AT MAIN DEVELOPMENT STAGES

 RUN NO.     4     UYMZ                    

        CROP GROWTH   BIOMASS         LEAF   CROP N     STRESS  
   DATE  AGE STAGE      kg/ha    LAI   NUM  kg/ha  %   H2O    N 
 ------  --- ---------- -----  -----  ----  ---  ---  ----  ----
 15 AUG    0 Start Sim      0   0.00   0.0    0  0.0  0.00  0.00
 18 AUG    0 Sowing         0   0.00   0.0    0  0.0  0.00  0.00
 19 AUG    1 Germinate      0   0.00   0.0    0  0.0  0.00  0.00
  2 SEP   15 Emergence     28   0.00   1.5    1  4.4  0.00  0.00
  9 OCT   52 End Juveni   298   0.55   9.5   11  3.9  0.00  0.00
 13 OCT   56 Floral Ini   443   0.77  10.5   16  3.7  0.00  0.01
 26 NOV  100 75% Silkin  8412   4.34  22.0  124  1.5  0.00  0.03
 11 DEC  115 Beg Gr Fil 10596   3.98  22.0  133  1.3  0.00  0.05
 22 JAN  157 End Gr Fil 19658   1.70  22.0  153  0.8  0.00  0.22
 24 JAN  159 Maturity   19658   1.70  22.0  153  0.8  0.00  0.58
 24 JAN  159 Harvest    19658   1.70  22.0  153  0.8  0.00  0.00


*MAIN GROWTH AND DEVELOPMENT VARIABLES

@     VARIABLE                          SIMULATED     MEASURED
      --------                          ---------     --------
      Anthesis day (dap)                      100          -99
      Physiological maturity day (dap)        159          -99
      Yield at harvest maturity (kg [dm]/    9534          -99
      Number at maturity (no/m2)             3569          -99
      Unit wt at maturity (g [dm]/unit)    0.2672          -99
      Number at maturity (no/unit)          509.8          -99
      Tops weight at maturity (kg [dm]/ha   19658          -99
      By-product produced (stalk) at matu   10203          -99
      Leaf area index, maximum               4.38          -99
      Harvest index at maturity             0.485          -99
      Grain N at maturity (kg/ha)             112          -99
      Tops N at maturity (kg/ha)              153          -99
      Stem N at maturity (kg/ha)               41          -99
      Grain N at maturity (%)                 1.2          -99
      Tops weight at anthesis (kg [dm]/ha    8243          -99
      Tops N at anthesis (kg/ha)              123          -99
      Leaf number per stem at maturity      22.05          -99


*ENVIRONMENTAL AND STRESS FACTORS

 |-----Development Phase------|-------------Environment--------------|---------Stress----------|
                              |--------Average-------|---Cumulative--|  (0=Min, 1=Max Stress)  |
                         Time  Temp  Temp Solar Photop         Evapo |----Water---|--Nitrogen--|
                         Span   Max   Min   Rad  [day]   Rain  Trans  Photo         Photo
                         days    øC    øC MJ/m2     hr     mm     mm  synth Growth  synth Growth
------------------------------------------------------------------------------------------------
 Emergence-End Juvenile    37  19.3   9.3  14.8  11.94  115.0   59.2  0.000  0.000  0.002  0.001
 End Juvenil-Floral Init    4  21.8  12.2  16.2  12.62   39.4   16.1  0.000  0.000  0.001  0.000
 Floral Init-End Lf Grow   44  25.1  14.4  21.2  13.31  171.5  194.7  0.000  0.000  0.083  0.033
 End Lf Grth-Beg Grn Fil   15  25.5  14.1  22.7  13.94  135.7   69.9  0.000  0.000  0.124  0.050
 Grain Filling Phase       42  27.4  14.6  25.7  13.99  154.5  240.1  0.000  0.000  0.402  0.211

                     Maize YIELD :     9534 kg/ha    [Dry weight] 

************************************************************************************************

*DSSAT Cropping System Model Ver. 4.0.2.000               Aug 03, 2016; 15:38:15
                                                                                
*RUN   5        : UYMZ                                                          
 MODEL          : MZCER040 - MAIZE                                              
 EXPERIMENT     : UYMZ0131 SN late to create DSS                                
 TREATMENT  1   : UYMZ                                                          
                                                                                
 CROP           : MAIZE          CULTIVAR : CMEDIO UY        ECOTYPE :IB0001    
 STARTING DATE  : AUG 15 1987                                                   
 PLANTING DATE  : AUG 18 1987    PLANTS/m2 :  7.0     ROW SPACING :  15.cm      
 WEATHER        : UYTA   1987                                                   
 SOIL           : UYSS0N2002     TEXTURE :       -  N20-02    SNIA CLAY RISS    
 SOIL INITIAL C : DEPTH:125cm EXTR. H2O:186.3mm  NO3: 74.8kg/ha  NH4: 23.9kg/ha 
 WATER BALANCE  : AUTOMATIC IRRIGATION - REFILL PROFILE                         
 IRRIGATION     : AUTOMATIC - PLANTING -> MATURITY [ SOIL DEPTH:30.00m 50.%]    
 NITROGEN BAL.  : SOIL-N & N-UPTAKE SIMULATION; NO N-FIXATION                   
 N-FERTILIZER   :       25 kg/ha IN     3 APPLICATIONS                          
 RESIDUE/MANURE : INITIAL :     0 kg/ha ;       0 kg/ha IN     0 APPLICATIONS   
 ENVIRONM. OPT. : DAYL=    0.00  SRAD=    0.00  TMAX=    0.00  TMIN=    0.00    
                  RAIN=    0.00  CO2 = R330.00  DEW =    0.00  WIND=    0.00    
 SIMULATION OPT : WATER   :Y  NITROGEN:Y  N-FIX:N  PHOSPH :N  PESTS  :N         
                  PHOTO   :C  ET      :R  INFIL:S  HYDROL :R  SOM    :G         
 MANAGEMENT OPT : PLANTING:R  IRRIG   :A  FERT :D  RESIDUE:N  HARVEST:M  WTH:M  
                                                                                
*SUMMARY OF SOIL AND GENETIC INPUT PARAMETERS                                   
                                                                                
   SOIL LOWER UPPER   SAT  EXTR  INIT   ROOT   BULK     pH    NO3    NH4    ORG 
  DEPTH LIMIT LIMIT    SW    SW    SW   DIST   DENS                          C  
   cm   cm3/cm3    cm3/cm3    cm3/cm3         g/cm3         ugN/g  ugN/g     %  
------------------------------------------------------------------------------- 
  0-  5 0.331 0.542 0.585 0.211 0.394   1.00   1.11   6.50  15.00   1.50   2.74 
  5- 15 0.331 0.542 0.585 0.211 0.394   1.00   1.11   6.50  15.00   1.50   2.74 
 15- 30 0.331 0.542 0.585 0.211 0.394   1.00   1.11   6.50  15.00   1.50   2.74 
 30- 45 0.290 0.438 0.491 0.148 0.334   0.43   1.26   6.50   8.50   1.50   1.07 
 45- 60 0.292 0.431 0.480 0.138 0.375   0.39   1.29   6.27   4.53   1.50   0.90 
 60- 90 0.293 0.419 0.466 0.126 0.419   0.32   1.34   6.00   0.00   1.50   0.64 
 90-108 0.286 0.408 0.460 0.122 0.408   0.23   1.36   6.00   0.00   1.50   0.35 
108-125 0.276 0.395 0.456 0.119 0.395   0.12   1.38   6.00   0.00   1.50   0.14 
                                                                                
TOT-125  37.3  55.9  62.1  18.6  49.1  <--cm   -  kg/ha-->   74.8   23.9 166127 
SOIL ALBEDO    : 0.09      EVAPORATION LIMIT : 6.00         MIN. FACTOR  : 1.00 
RUNOFF CURVE # :10.00      DRAINAGE RATE     : 0.40         FERT. FACTOR : 1.00 
                                                                                
 MAIZE      CULTIVAR :UY0370-CMEDIO UY          ECOTYPE :IB0001                 
 P1     : 280.00  P2     : 0.0000  P5     : 750.00                              
 G2     : 800.00  G3     :  7.500  PHINT  : 38.900                              
                                                                                
                                                                                
                                                                                
*SIMULATED CROP AND SOIL STATUS AT MAIN DEVELOPMENT STAGES

 RUN NO.     5     UYMZ                    

        CROP GROWTH   BIOMASS         LEAF   CROP N     STRESS  
   DATE  AGE STAGE      kg/ha    LAI   NUM  kg/ha  %   H2O    N 
 ------  --- ---------- -----  -----  ----  ---  ---  ----  ----
 15 AUG    0 Start Sim      0   0.00   0.0    0  0.0  0.00  0.00
 18 AUG    0 Sowing         0   0.00   0.0    0  0.0  0.00  0.00
 19 AUG    1 Germinate      0   0.00   0.0    0  0.0  0.00  0.00
 25 AUG    7 Emergence     28   0.00   1.9    1  4.4  0.00  0.00
 26 SEP   39 End Juveni   332   0.57   9.7   13  3.8  0.00  0.00
 30 SEP   43 Floral Ini   470   0.78  10.5   17  3.7  0.00  0.01
 26 NOV  100 75% Silkin  8535   3.94  22.1  122  1.4  0.00  0.04
  8 DEC  112 Beg Gr Fil 10983   3.61  22.1  129  1.2  0.00  0.06
 14 JAN  149 End Gr Fil 19712   1.69  22.1  151  0.8  0.00  0.21
 18 JAN  153 Maturity   19712   1.69  22.1  151  0.8  0.00  0.49
 18 JAN  153 Harvest    19712   1.69  22.1  151  0.8  0.00  0.00


*MAIN GROWTH AND DEVELOPMENT VARIABLES

@     VARIABLE                          SIMULATED     MEASURED
      --------                          ---------     --------
      Anthesis day (dap)                      100          -99
      Physiological maturity day (dap)        153          -99
      Yield at harvest maturity (kg [dm]/    9020          -99
      Number at maturity (no/m2)             3513          -99
      Unit wt at maturity (g [dm]/unit)    0.2568          -99
      Number at maturity (no/unit)          501.8          -99
      Tops weight at maturity (kg [dm]/ha   19712          -99
      By-product produced (stalk) at matu   10771          -99
      Leaf area index, maximum               4.01          -99
      Harvest index at maturity             0.458          -99
      Grain N at maturity (kg/ha)             105          -99
      Tops N at maturity (kg/ha)              151          -99
      Stem N at maturity (kg/ha)               45          -99
      Grain N at maturity (%)                 1.2          -99
      Tops weight at anthesis (kg [dm]/ha    8440          -99
      Tops N at anthesis (kg/ha)              121          -99
      Leaf number per stem at maturity      22.08          -99


*ENVIRONMENTAL AND STRESS FACTORS

 |-----Development Phase------|-------------Environment--------------|---------Stress----------|
                              |--------Average-------|---Cumulative--|  (0=Min, 1=Max Stress)  |
                         Time  Temp  Temp Solar Photop         Evapo |----Water---|--Nitrogen--|
                         Span   Max   Min   Rad  [day]   Rain  Trans  Photo         Photo
                         days    øC    øC MJ/m2     hr     mm     mm  synth Growth  synth Growth
------------------------------------------------------------------------------------------------
 Emergence-End Juvenile    32  21.2  11.3  12.6  11.60  117.9   58.6  0.000  0.000  0.002  0.001
 End Juvenil-Floral Init    4  22.1   9.8  20.5  12.19    0.0    8.6  0.000  0.000  0.001  0.000
 Floral Init-End Lf Grow   57  22.4  11.8  18.7  13.12  193.3  206.4  0.000  0.000  0.095  0.038
 End Lf Grth-Beg Grn Fil   12  26.8  15.8  21.4  13.92  139.1   59.6  0.000  0.000  0.152  0.061
 Grain Filling Phase       37  27.9  17.3  22.7  14.03  167.0  192.6  0.000  0.000  0.410  0.197

                     Maize YIELD :     9020 kg/ha    [Dry weight] 

************************************************************************************************

*DSSAT Cropping System Model Ver. 4.0.2.000               Aug 03, 2016; 15:38:15
                                                                                
*RUN   6        : UYMZ                                                          
 MODEL          : MZCER040 - MAIZE                                              
 EXPERIMENT     : UYMZ0131 SN late to create DSS                                
 TREATMENT  1   : UYMZ                                                          
                                                                                
 CROP           : MAIZE          CULTIVAR : CMEDIO UY        ECOTYPE :IB0001    
 STARTING DATE  : AUG 15 1987                                                   
 PLANTING DATE  : AUG 18 1987    PLANTS/m2 :  7.0     ROW SPACING :  15.cm      
 WEATHER        : UYTA   1987                                                   
 SOIL           : UYSS0N2002     TEXTURE :       -  N20-02    SNIA CLAY RISS    
 SOIL INITIAL C : DEPTH:125cm EXTR. H2O:186.3mm  NO3: 74.8kg/ha  NH4: 23.9kg/ha 
 WATER BALANCE  : AUTOMATIC IRRIGATION - REFILL PROFILE                         
 IRRIGATION     : AUTOMATIC - PLANTING -> MATURITY [ SOIL DEPTH:30.00m 50.%]    
 NITROGEN BAL.  : SOIL-N & N-UPTAKE SIMULATION; NO N-FIXATION                   
 N-FERTILIZER   :       25 kg/ha IN     3 APPLICATIONS                          
 RESIDUE/MANURE : INITIAL :     0 kg/ha ;       0 kg/ha IN     0 APPLICATIONS   
 ENVIRONM. OPT. : DAYL=    0.00  SRAD=    0.00  TMAX=    0.00  TMIN=    0.00    
                  RAIN=    0.00  CO2 = R330.00  DEW =    0.00  WIND=    0.00    
 SIMULATION OPT : WATER   :Y  NITROGEN:Y  N-FIX:N  PHOSPH :N  PESTS  :N         
                  PHOTO   :C  ET      :R  INFIL:S  HYDROL :R  SOM    :G         
 MANAGEMENT OPT : PLANTING:R  IRRIG   :A  FERT :D  RESIDUE:N  HARVEST:M  WTH:M  
                                                                                
*SUMMARY OF SOIL AND GENETIC INPUT PARAMETERS                                   
                                                                                
   SOIL LOWER UPPER   SAT  EXTR  INIT   ROOT   BULK     pH    NO3    NH4    ORG 
  DEPTH LIMIT LIMIT    SW    SW    SW   DIST   DENS                          C  
   cm   cm3/cm3    cm3/cm3    cm3/cm3         g/cm3         ugN/g  ugN/g     %  
------------------------------------------------------------------------------- 
  0-  5 0.331 0.542 0.585 0.211 0.394   1.00   1.11   6.50  15.00   1.50   2.74 
  5- 15 0.331 0.542 0.585 0.211 0.394   1.00   1.11   6.50  15.00   1.50   2.74 
 15- 30 0.331 0.542 0.585 0.211 0.394   1.00   1.11   6.50  15.00   1.50   2.74 
 30- 45 0.290 0.438 0.491 0.148 0.334   0.43   1.26   6.50   8.50   1.50   1.07 
 45- 60 0.292 0.431 0.480 0.138 0.375   0.39   1.29   6.27   4.53   1.50   0.90 
 60- 90 0.293 0.419 0.466 0.126 0.419   0.32   1.34   6.00   0.00   1.50   0.64 
 90-108 0.286 0.408 0.460 0.122 0.408   0.23   1.36   6.00   0.00   1.50   0.35 
108-125 0.276 0.395 0.456 0.119 0.395   0.12   1.38   6.00   0.00   1.50   0.14 
                                                                                
TOT-125  37.3  55.9  62.1  18.6  49.1  <--cm   -  kg/ha-->   74.8   23.9 166127 
SOIL ALBEDO    : 0.09      EVAPORATION LIMIT : 6.00         MIN. FACTOR  : 1.00 
RUNOFF CURVE # :10.00      DRAINAGE RATE     : 0.40         FERT. FACTOR : 1.00 
                                                                                
 MAIZE      CULTIVAR :UY0370-CMEDIO UY          ECOTYPE :IB0001                 
 P1     : 280.00  P2     : 0.0000  P5     : 750.00                              
 G2     : 800.00  G3     :  7.500  PHINT  : 38.900                              
                                                                                
                                                                                
                                                                                
*SIMULATED CROP AND SOIL STATUS AT MAIN DEVELOPMENT STAGES

 RUN NO.     6     UYMZ                    

        CROP GROWTH   BIOMASS         LEAF   CROP N     STRESS  
   DATE  AGE STAGE      kg/ha    LAI   NUM  kg/ha  %   H2O    N 
 ------  --- ---------- -----  -----  ----  ---  ---  ----  ----
 14 AUG    0 Start Sim      0   0.00   0.0    0  0.0  0.00  0.00
 17 AUG    0 Sowing         0   0.00   0.0    0  0.0  0.00  0.00
 18 AUG    1 Germinate      0   0.00   0.0    0  0.0  0.00  0.00
 27 AUG   10 Emergence     28   0.00   1.9    1  4.4  0.00  0.00
  4 OCT   48 End Juveni   339   0.54   9.7   12  3.7  0.00  0.00
  8 OCT   52 Floral Ini   418   0.59  10.2   15  3.7  0.00  0.01
 30 NOV  105 75% Silkin  8446   3.64  21.6  123  1.5  0.00  0.03
 13 DEC  118 Beg Gr Fil 10933   3.36  21.6  129  1.2  0.00  0.05
 19 JAN  155 End Gr Fil 19433   1.43  21.6  149  0.8  0.00  0.25
 21 JAN  157 Maturity   19433   1.43  21.6  149  0.8  0.00  0.53
 21 JAN  157 Harvest    19433   1.43  21.6  149  0.8  0.00  0.00


*MAIN GROWTH AND DEVELOPMENT VARIABLES

@     VARIABLE                          SIMULATED     MEASURED
      --------                          ---------     --------
      Anthesis day (dap)                      105          -99
      Physiological maturity day (dap)        157          -99
      Yield at harvest maturity (kg [dm]/   10208          -99
      Number at maturity (no/m2)             3946          -99
      Unit wt at maturity (g [dm]/unit)    0.2587          -99
      Number at maturity (no/unit)          563.7          -99
      Tops weight at maturity (kg [dm]/ha   19433          -99
      By-product produced (stalk) at matu    9302          -99
      Leaf area index, maximum               3.68          -99
      Harvest index at maturity             0.525          -99
      Grain N at maturity (kg/ha)             114          -99
      Tops N at maturity (kg/ha)              149          -99
      Stem N at maturity (kg/ha)               35          -99
      Grain N at maturity (%)                 1.1          -99
      Tops weight at anthesis (kg [dm]/ha    8225          -99
      Tops N at anthesis (kg/ha)              122          -99
      Leaf number per stem at maturity      21.55          -99


*ENVIRONMENTAL AND STRESS FACTORS

 |-----Development Phase------|-------------Environment--------------|---------Stress----------|
                              |--------Average-------|---Cumulative--|  (0=Min, 1=Max Stress)  |
                         Time  Temp  Temp Solar Photop         Evapo |----Water---|--Nitrogen--|
                         Span   Max   Min   Rad  [day]   Rain  Trans  Photo         Photo
                         days    øC    øC MJ/m2     hr     mm     mm  synth Growth  synth Growth
------------------------------------------------------------------------------------------------
 Emergence-End Juvenile    38  20.0   9.1  15.1  11.79   56.2   59.6  0.000  0.000  0.002  0.001
 End Juvenil-Floral Init    4  20.1  10.5  16.9  12.49   12.0   11.4  0.000  0.000  0.002  0.001
 Floral Init-End Lf Grow   53  24.0  10.6  23.0  13.31   95.6  240.6  0.000  0.000  0.083  0.033
 End Lf Grth-Beg Grn Fil   13  27.4  15.0  24.4  13.99   64.0   72.0  0.000  0.000  0.132  0.053
 Grain Filling Phase       37  28.3  17.6  22.3  14.00  297.1  189.6  0.000  0.000  0.458  0.240

                     Maize YIELD :    10208 kg/ha    [Dry weight] 

************************************************************************************************
