*GROWTH ASPECTS OUTPUT FILE

*DSSAT Cropping System Model Ver. 4.0.2.000               Aug 03, 2016; 15:38:15

*RUN   1        : UYMZ                    
 MODEL          : MZCER040 - Maize           
 EXPERIMENT     : UYMZ0131 MZ    late to create DSS                             
 TREATMENT  1   : UYMZ                    

@YEAR DOY   DAS   DAP   L#SD   GSTD   LAID   LWAD   SWAD   GWAD   RWAD   CWAD   G#AD   GWGD   HIAD   PWAD   P#AD   WSPD   WSGD   NSTD   EWSD   LN%D   SH%D   HIPD   PWDD   PWTD     SLAD   CHTD   CWID   RDPD   RL1D   RL2D   RL3D   RL4D   RL5D   RL6D   RL7D   RL8D   RL9D   RL10   CDAD   LDAD   SDAD   SNW0C   SNW1C
 1987 230     3     0    0.0      0   0.00      0      0      0      0      0      0    0.0  0.000      0      0  0.000  0.000  0.000  0.000   0.00   0.00   0.00      0      0      0.0   0.00   0.00   0.03   0.00   0.00   0.00   0.00   0.00   0.00   0.00   0.00   0.00   0.00      0      0      0       0       0
 1987 231     4     1    0.0      0   0.00      0      0      0      0      0      0    0.0  0.000      0      0  0.000  0.000  0.000  0.000   0.00   0.00   0.00      0      0      0.0   0.00   0.00   0.03   0.00   0.00   0.00   0.00   0.00   0.00   0.00   0.00   0.00   0.00      0      0      0       0       0
 1987 232     5     2    0.0      0   0.00      0      0      0      0      0      0    0.0  0.000      0      0  0.000  0.000  0.000  0.000   0.00   0.00   0.00      0      0      0.0   0.00   0.00   0.03   0.00   0.00   0.00   0.00   0.00   0.00   0.00   0.00   0.00   0.00      0      0      0       0       0
 1987 233     6     3    0.0      0   0.00      0      0      0      0      0      0    0.0  0.000      0      0  0.000  0.000  0.000  0.000   0.00   0.00   0.00      0      0      0.0   0.00   0.00   0.03   0.00   0.00   0.00   0.00   0.00   0.00   0.00   0.00   0.00   0.00      0      0      0       0       0
 1987 234     7     4    0.0      0   0.00      0      0      0      0      0      0    0.0  0.000      0      0  0.000  0.000  0.000  0.000   0.00   0.00   0.00      0      0      0.0   0.00   0.00   0.04   0.00   0.00   0.00   0.00   0.00   0.00   0.00   0.00   0.00   0.00      0      0      0       0       0
 1987 235     8     5    0.0      0   0.00      0      0      0      0      0      0    0.0  0.000      0      0  0.000  0.000  0.000  0.000   0.00   0.00   0.00      0      0      0.0   0.00   0.00   0.05   0.00   0.00   0.00   0.00   0.00   0.00   0.00   0.00   0.00   0.00      0      0      0       0       0
 1987 236     9     6    0.0      0   0.00      0      0      0      0      0      0    0.0  0.000      0      0  0.000  0.000  0.000  0.000   0.00   0.00   0.00      0      0      0.0   0.00   0.00   0.05   0.00   0.00   0.00   0.00   0.00   0.00   0.00   0.00   0.00   0.00      0      0      0       0       0
 1987 237    10     7    0.0      0   0.00      0      0      0      0      0      0    0.0  0.000      0      0  0.000  0.000  0.000  0.000   0.00   0.00   0.00      0      0      0.0   0.00   0.00   0.07   0.00   0.00   0.00   0.00   0.00   0.00   0.00   0.00   0.00   0.00      0      0      0       0       0
 1987 238    11     8    0.0      0   0.00      0      0      0      0      0      0    0.0  0.000      0      0  0.000  0.000  0.000  0.000   0.00   0.00   0.00      0      0      0.0   0.00   0.00   0.08   0.00   0.00   0.00   0.00   0.00   0.00   0.00   0.00   0.00   0.00      0      0      0       0       0
 1987 239    12     9    0.0      0   0.00      0      0      0      0      0      0    0.0  0.000      0      0  0.000  0.000  0.000  0.000   0.00   0.00   0.00      0      0      0.0   0.00   0.00   0.09   0.00   0.00   0.00   0.00   0.00   0.00   0.00   0.00   0.00   0.00      0      0      0       0       0
 1987 240    13    10    0.0      0   0.00      0      0      0      0      0      0    0.0  0.000      0      0  0.000  0.000  0.000  0.000   0.00   0.00   0.00      0      0      0.0   0.00   0.00   0.10   0.00   0.00   0.00   0.00   0.00   0.00   0.00   0.00   0.00   0.00      0      0      0       0       0
 1987 241    14    11    0.0      0   0.00      0      0      0      0      0      0    0.0  0.000      0      0  0.000  0.000  0.000  0.000   0.00   0.00   0.00      0      0      0.0   0.00   0.00   0.11   0.00   0.00   0.00   0.00   0.00   0.00   0.00   0.00   0.00   0.00      0      0      0       0       0
 1987 242    15    12    0.0      0   0.00      0      0      0      0      0      0    0.0  0.000      0      0  0.000  0.000  0.000  0.000   0.00   0.00   0.00      0      0      0.0   0.00   0.00   0.11   0.00   0.00   0.00   0.00   0.00   0.00   0.00   0.00   0.00   0.00      0      0      0       0       0
 1987 243    16    13    0.0      0   0.00      0      0      0      0      0      0    0.0  0.000      0      0  0.000  0.000  0.000  0.000   0.00   0.00   0.00      0      0      0.0   0.00   0.00   0.11   0.00   0.00   0.00   0.00   0.00   0.00   0.00   0.00   0.00   0.00      0      0      0       0       0
 1987 244    17    14    1.0      1   0.00     14     14      0     14     28      0    0.0  0.000      0      0  0.000  0.000  0.012  0.000   4.40   0.00   0.00      0      0     10.1   0.00   0.00   0.12   0.28   0.09   0.00   0.00   0.00   0.00   0.00   0.00   0.00   0.00      0      0      0       0       0
 1987 245    18    15    1.0      1   0.00     14     14      0     14     28      0    0.0  0.000      0      0  0.000  0.000  0.019  0.000   4.55   0.00   0.00      0      0     15.1   0.00   0.00   0.12   0.28   0.09   0.00   0.00   0.00   0.00   0.00   0.00   0.00   0.00      0      0      0       0       0
 1987 246    19    16    1.0      1   0.00     14     14      0     14     28      0    0.0  0.000      0      0  0.000  0.000  0.000  0.000   4.54   0.00   0.00      0      0     21.4   0.00   0.00   0.13   0.28   0.09   0.00   0.00   0.00   0.00   0.00   0.00   0.00   0.00      0      0      0       0       0
 1987 247    20    17    2.0      1   0.00     14     14      0     14     28      0    0.0  0.000      0      0  0.000  0.000  0.000  0.000   4.54   0.00   0.00      0      0     22.7   0.00   0.00   0.13   0.28   0.10   0.00   0.00   0.00   0.00   0.00   0.00   0.00   0.00      0      0      0       0       0
 1987 248    21    18    2.0      1   0.00     14     14      0     15     28      0    0.0  0.000      0      0  0.000  0.000  0.000  0.000   4.54   0.00   0.00      0      0     21.8   0.00   0.00   0.13   0.28   0.10   0.00   0.00   0.00   0.00   0.00   0.00   0.00   0.00      0      0      0       0       0
 1987 249    22    19    2.0      1   0.00     14     14      0     15     28      0    0.0  0.000      0      0  0.000  0.000  0.000  0.000   4.53   0.00   0.00      0      0     21.9   0.00   0.00   0.13   0.28   0.10   0.00   0.00   0.00   0.00   0.00   0.00   0.00   0.00      0      0      0       0       0
 1987 250    23    20    2.0      1   0.00     14     14      0     15     28      0    0.0  0.000      0      0  0.000  0.000  0.000  0.000   4.53   0.00   0.00      0      0     27.2   0.00   0.00   0.14   0.28   0.11   0.00   0.00   0.00   0.00   0.00   0.00   0.00   0.00      0      0      0       0       0
 1987 251    24    21    2.0      1   0.01     14     14      0     15     28      0    0.0  0.000      0      0  0.000  0.000  0.000  0.000   4.53   0.00   0.00      0      0     40.6   0.00   0.00   0.14   0.28   0.11   0.00   0.00   0.00   0.00   0.00   0.00   0.00   0.00      0      0      0       0       0
 1987 252    25    22    2.0      1   0.01     14     14      0     16     28      0    0.0  0.000      0      0  0.000  0.000  0.000  0.000   4.53   0.00   0.00      0      0     58.0   0.00   0.00   0.15   0.29   0.11   0.00   0.00   0.00   0.00   0.00   0.00   0.00   0.00      0      0      0       0       0
 1987 253    26    23    3.0      1   0.01     14     14      0     16     28      0    0.0  0.000      0      0  0.000  0.000  0.000  0.000   4.46   0.00   0.00      0      0     67.0   0.00   0.00   0.16   0.30   0.12   0.00   0.00   0.00   0.00   0.00   0.00   0.00   0.00      0      0      0       0       0
 1987 254    27    24    3.0      1   0.01     14     14      0     18     28      0    0.0  0.000      0      0  0.000  0.000  0.000  0.000   4.45   0.00   0.00      0      0     73.9   0.00   0.00   0.16   0.32   0.14   0.00   0.00   0.00   0.00   0.00   0.00   0.00   0.00      0      0      0       0       0
 1987 255    28    25    3.0      1   0.01     14     14      0     19     28      0    0.0  0.000      0      0  0.000  0.000  0.000  0.000   4.44   0.00   0.00      0      0     76.4   0.00   0.00   0.17   0.34   0.15   0.00   0.00   0.00   0.00   0.00   0.00   0.00   0.00      0      0      0       0       0
 1987 256    29    26    3.0      1   0.01     14     14      0     21     28      0    0.0  0.000      0      0  0.000  0.000  0.000  0.000   4.42   0.00   0.00      0      0     96.9   0.00   0.00   0.18   0.36   0.17   0.01   0.00   0.00   0.00   0.00   0.00   0.00   0.00      0      0      0       0       1
 1987 257    30    27    3.0      1   0.02     14     14      0     22     28      0    0.0  0.000      0      0  0.000  0.000  0.000  0.000   4.42   0.00   0.00      0      0    118.3   0.00   0.00   0.18   0.37   0.17   0.01   0.00   0.00   0.00   0.00   0.00   0.00   0.00      0      0      0       0       1
 1987 258    31    28    4.0      1   0.02     14     14      0     23     28      0    0.0  0.000      0      0  0.000  0.000  0.000  0.000   4.38   0.00   0.00      0      0    150.0   0.00   0.00   0.19   0.35   0.18   0.01   0.00   0.00   0.00   0.00   0.00   0.00   0.00      0      0      0       0       1
 1987 259    32    29    4.0      1   0.02     14     14      0     24     28      0    0.0  0.000      0      0  0.000  0.000  0.000  0.000   4.38   0.00   0.00      0      0    145.3   0.00   0.00   0.19   0.35   0.18   0.01   0.00   0.00   0.00   0.00   0.00   0.00   0.00      0      0      0       0       1
 1987 260    33    30    4.0      1   0.02     14     14      0     26     28      0    0.0  0.000      0      0  0.000  0.000  0.000  0.013   4.38   0.00   0.00      0      0    173.8   0.00   0.00   0.19   0.36   0.20   0.02   0.00   0.00   0.00   0.00   0.00   0.00   0.00      0      0      0       0       1
 1987 261    34    31    4.0      1   0.03     14     14      0     28     28      0    0.0  0.000      0      0  0.000  0.000  0.000  0.007   4.36   0.00   0.00      0      0    206.2   0.00   0.00   0.20   0.38   0.22   0.03   0.00   0.00   0.00   0.00   0.00   0.00   0.00      0      0      0       0       1
 1987 262    35    32    4.0      1   0.03     14     14      0     31     28      0    0.0  0.000      0      0  0.000  0.000  0.000  0.001   4.35   0.00   0.00      0      0    213.3   0.00   0.00   0.20   0.40   0.24   0.03   0.00   0.00   0.00   0.00   0.00   0.00   0.00      0      0      0       0       1
 1987 263    36    33    4.0      1   0.03     14     14      0     35     28      0    0.0  0.000      0      0  0.000  0.000  0.000  0.000   4.35   0.00   0.00      0      0    190.6   0.00   0.00   0.20   0.44   0.27   0.05   0.00   0.00   0.00   0.00   0.00   0.00   0.00      0      0      0       0       1
 1987 264    37    34    4.0      1   0.03     14     14      0     36     28      0    0.0  0.000      0      0  0.000  0.000  0.000  0.000   4.35   0.00   0.00      0      0    197.8   0.00   0.00   0.20   0.45   0.29   0.05   0.00   0.00   0.00   0.00   0.00   0.00   0.00      0      0      0       0       1
 1987 265    38    35    4.0      1   0.02     14     14      0     38     28      0    0.0  0.000      0      0  0.000  0.000  0.000  0.000   4.34   0.00   0.00      0      0    165.3   0.00   0.00   0.21   0.47   0.30   0.06   0.00   0.00   0.00   0.00   0.00   0.00   0.00      0      0      0       0       1
 1987 266    39    36    4.0      1   0.03     14     14      0     40     28      0    0.0  0.000      0      0  0.000  0.000  0.000  0.000   4.29   0.00   0.00      0      0    199.8   0.00   0.00   0.21   0.49   0.32   0.07   0.00   0.00   0.00   0.00   0.00   0.00   0.00      0      0      0       0       1
 1987 267    40    37    4.0      1   0.04     17     14      0     44     31      0    0.0  0.000      0      0  0.000  0.000  0.000  0.000   3.90   0.00   0.00      0      0    208.0   0.00   0.00   0.22   0.52   0.36   0.08   0.00   0.00   0.00   0.00   0.00   0.00   0.00      0      0      0       0       2
 1987 268    41    38    5.0      1   0.05     22     14      0     48     36      0    0.0  0.000      0      0  0.000  0.000  0.000  0.000   3.70   0.00   0.00      0      0    219.3   0.00   0.00   0.23   0.56   0.39   0.10   0.00   0.00   0.00   0.00   0.00   0.00   0.00      0      0      0       0       2
 1987 269    42    39    5.0      1   0.07     30     14      0     51     44      0    0.0  0.000      0      0  0.000  0.000  0.000  0.000   3.48   0.00   0.00      0      0    226.1   0.00   0.00   0.24   0.58   0.41   0.11   0.00   0.00   0.00   0.00   0.00   0.00   0.00      0      0      0       0       2
 1987 270    43    40    5.0      1   0.08     37     14      0     58     51      0    0.0  0.000      0      0  0.000  0.000  0.000  0.000   3.71   0.00   0.00      0      0    227.3   0.00   0.00   0.25   0.63   0.47   0.15   0.00   0.00   0.00   0.00   0.00   0.00   0.00      0      0      0       0       2
 1987 271    44    41    5.0      1   0.10     42     14      0     70     56      0    0.0  0.000      0      0  0.000  0.000  0.000  0.000   3.80   0.00   0.00      0      0    227.1   0.00   0.00   0.25   0.73   0.56   0.22   0.00   0.00   0.00   0.00   0.00   0.00   0.00      0      0      0       0       3
 1987 272    45    42    6.0      1   0.11     51     14      0     81     65      0    0.0  0.000      0      0  0.000  0.000  0.000  0.000   3.65   0.00   0.00      0      0    225.6   0.00   0.00   0.26   0.81   0.63   0.28   0.00   0.00   0.00   0.00   0.00   0.00   0.00      0      0      0       0       3
 1987 273    46    43    6.0      1   0.13     59     14      0     83     73      0    0.0  0.000      0      0  0.000  0.000  0.000  0.000   3.72   0.00   0.00      0      0    223.7   0.00   0.00   0.27   0.83   0.65   0.29   0.00   0.00   0.00   0.00   0.00   0.00   0.00      0      0      0       0       3
 1987 274    47    44    6.0      1   0.15     66     14      0    104     80      0    0.0  0.000      0      0  0.000  0.000  0.000  0.000   3.79   0.00   0.00      0      0    221.7   0.00   0.00   0.28   0.97   0.80   0.42   0.00   0.00   0.00   0.00   0.00   0.00   0.00      0      0      0       0       4
 1987 275    48    45    6.0      1   0.16     71     14      0    121     85      0    0.0  0.000      0      0  0.000  0.000  0.000  0.000   3.90   0.00   0.00      0      0    220.3   0.00   0.00   0.28   1.08   0.91   0.53   0.00   0.00   0.00   0.00   0.00   0.00   0.00      0      0      0       0       4
 1987 276    49    46    6.0      1   0.17     78     14      0    137     92      0    0.0  0.000      0      0  0.000  0.000  0.000  0.000   3.85   0.00   0.00      0      0    217.7   0.00   0.00   0.29   1.18   1.02   0.63   0.00   0.00   0.00   0.00   0.00   0.00   0.00      0      0      0       0       5
 1987 277    50    47    6.0      1   0.20     91     14      0    162    105      0    0.0  0.000      0      0  0.000  0.000  0.000  0.000   3.61   0.00   0.00      0      0    214.3   0.00   0.00   0.30   1.34   1.18   0.80   0.00   0.00   0.00   0.00   0.00   0.00   0.00      0      0      0       0       6
 1987 278    51    48    7.0      1   0.23    108     14      0    191    122      0    0.0  0.000      0      0  0.000  0.000  0.000  0.000   3.54   0.00   0.00      0      0    210.2   0.00   0.00   0.31   1.51   1.36   1.00   0.00   0.00   0.00   0.00   0.00   0.00   0.00      0      0      0       0       6
 1987 279    52    49    7.0      1   0.26    124     14      0    210    138      0    0.0  0.000      0      0  0.000  0.000  0.000  0.000   3.59   0.00   0.00      0      0    206.5   0.00   0.00   0.31   1.63   1.48   1.12   0.00   0.00   0.00   0.00   0.00   0.00   0.00      0      0      0       0       7
 1987 280    53    50    7.0      1   0.29    141     14      0    217    155      0    0.0  0.000      0      0  0.000  0.000  0.000  0.000   3.61   0.00   0.00      0      0    203.0   0.00   0.00   0.32   1.66   1.52   1.16   0.01   0.00   0.00   0.00   0.00   0.00   0.00      0      0      0       0       8
 1987 281    54    51    7.0      1   0.31    157     14      0    240    171      0    0.0  0.000      0      0  0.000  0.000  0.000  0.000   3.64   0.00   0.00      0      0    199.9   0.00   0.00   0.33   1.81   1.66   1.32   0.02   0.00   0.00   0.00   0.00   0.00   0.00      0      0      0       0       9
 1987 282    55    52    8.0      1   0.34    175     14      0    287    189      0    0.0  0.000      0      0  0.000  0.000  0.000  0.000   3.64   0.00   0.00      0      0    196.8   0.00   0.00   0.34   2.08   1.95   1.61   0.05   0.00   0.00   0.00   0.00   0.00   0.00      0      0      0       0      11
 1987 283    56    53    8.0      1   0.40    211     14      0    320    225      0    0.0  0.000      0      0  0.000  0.000  0.000  0.000   3.34   0.00   0.00      0      0    191.4   0.00   0.00   0.36   2.28   2.14   1.81   0.09   0.00   0.00   0.00   0.00   0.00   0.00      0      0      0       0      12
 1987 284    57    54    8.0      1   0.45    243     14      0    349    257      0    0.0  0.000      0      0  0.000  0.000  0.000  0.000   3.46   0.00   0.00      0      0    187.1   0.00   0.00   0.38   2.40   2.31   2.00   0.13   0.00   0.00   0.00   0.00   0.00   0.00      0      0      0       0      14
 1987 285    58    55    9.0      1   0.50    272     14      0    410    286      0    0.0  0.000      0      0  0.000  0.000  0.000  0.000   3.53   0.00   0.00      0      0    183.8   0.00   0.00   0.39   2.51   2.56   2.29   0.22   0.00   0.00   0.00   0.00   0.00   0.00      0      0      0       0      15
 1987 286    59    56    9.0      1   0.52    287     14      0    468    301      0    0.0  0.000      0      0  0.000  0.000  0.000  0.142   3.72   0.00   0.00      0      0    182.1   0.00   0.00   0.40   2.64   2.83   2.60   0.31   0.00   0.00   0.00   0.00   0.00   0.00      0      0      0       0      18
 1987 287    60    57    9.0      1   0.54    300     14      0    500    314      0    0.0  0.000      0      0  0.000  0.000  0.000  0.060   3.73   0.00   0.00      0      0    179.9   0.00   0.00   0.40   2.72   2.99   2.78   0.37   0.00   0.00   0.00   0.00   0.00   0.00      0      0      0       0      20
 1987 288    61    58    9.0      2   0.57    297     14      0    529    311      0    0.0  0.000      0      0  0.000  0.000  0.000  0.131   3.93   0.00   0.00      0      0    193.1   0.00   0.00   0.41   2.77   3.11   2.92   0.42   0.00   0.00   0.00   0.00   0.00   0.00      0      0      0       0      22
 1987 289    62    59    9.0      2   0.62    323     14      0    585    337      0    0.0  0.000      0      0  0.000  0.000  0.001  0.074   3.60   0.00   0.00      0      0    190.5   0.00   0.00   0.42   2.91   3.41   3.26   0.54   0.00   0.00   0.00   0.00   0.00   0.00      0      0      0       0      25
 1987 290    63    60    9.0      2   0.66    354     14      0    678    368      0    0.0  0.000      0      0  0.000  0.000  0.000  0.009   3.49   0.00   0.00      0      0    187.5   0.00   0.00   0.43   3.17   3.93   3.84   0.75   0.00   0.00   0.00   0.00   0.00   0.00      0      0      0       0      28
 1987 291    64    61   10.0      2   0.72    389     14      0    781    403      0    0.0  0.000      0      0  0.000  0.000  0.000  0.000   3.78   0.00   0.00      0      0    184.6   0.00   0.00   0.44   3.47   4.00   4.00   1.00   0.00   0.00   0.00   0.00   0.00   0.00      0      0      0       0      31
 1987 292    65    62   10.0      3   0.76    425     14      0    862    439      0    0.0  0.000      0      0  0.000  0.000  0.022  0.000   3.68   0.00   0.00      0      0    179.9   0.00   0.00   0.46   3.70   4.00   4.00   1.22   0.00   0.00   0.00   0.00   0.00   0.00      0      0      0       0      35
 1987 293    66    63   10.0      3   0.83    473     14      0    965    487      0    0.0  0.000      0      0  0.000  0.000  0.022  0.000   3.57   0.00   0.00      0      0    176.1   0.00   0.00   0.47   3.98   4.00   4.00   1.46   0.03   0.00   0.00   0.00   0.00   0.00      0      0      0       0      40
 1987 294    67    64   10.0      3   0.91    532     15      0   1056    546      0    0.0  0.000      0      0  0.000  0.000  0.022  0.000   3.53   0.00   0.00      0      0    172.1   0.00   0.00   0.48   4.00   4.00   4.00   1.68   0.08   0.00   0.00   0.00   0.00   0.00      0      0      0       0      44
 1987 295    68    65   11.0      3   0.99    588     16      0   1138    604      0    0.0  0.000      0      0  0.000  0.000  0.022  0.000   3.50   0.00   0.00      0      0    168.6   0.00   0.00   0.50   4.00   4.00   4.00   1.88   0.13   0.00   0.00   0.00   0.00   0.00      0      0      0       0      50
 1987 296    69    66   11.0      3   1.09    663     19      0   1233    682      0    0.0  0.000      0      0  0.000  0.000  0.022  0.000   3.46   0.00   0.00      0      0    164.7   0.00   0.00   0.51   4.00   4.00   4.00   2.11   0.22   0.00   0.00   0.00   0.00   0.00      0      0      0       0      55
 1987 297    70    67   11.0      3   1.20    744     23      0   1308    767      0    0.0  0.000      0      0  0.000  0.000  0.022  0.000   3.42   0.00   0.00      0      0    161.0   0.00   0.00   0.53   4.00   4.00   4.00   2.29   0.32   0.00   0.00   0.00   0.00   0.00      0      0      0       0      61
 1987 298    71    68   12.0      3   1.31    831     30      0   1329    861      0    0.0  0.000      0      0  0.000  0.000  0.022  0.000   3.38   0.00   0.00      0      0    157.5   0.00   0.00   0.54   4.00   4.00   4.00   2.34   0.35   0.00   0.00   0.00   0.00   0.00      0      0      0       0      68
 1987 299    72    69   12.0      3   1.44    934     41      0   1331    975      0    0.0  0.000      0      0  0.000  0.000  0.022  0.000   3.34   0.00   0.00      0      0    153.9   0.00   0.00   0.56   4.00   4.00   4.00   2.35   0.36   0.00   0.00   0.00   0.00   0.00      0      0      0       0      75
 1987 300    73    70   12.0      3   1.54   1015     51      0   1344   1067      0    0.0  0.000      0      0  0.000  0.000  0.022  0.000   3.31   0.00   0.00      0      0    151.3   0.00   0.00   0.57   4.00   4.00   4.00   2.38   0.40   0.00   0.00   0.00   0.00   0.00      0      0      0       0      81
 1987 301    74    71   13.0      3   1.64   1101     65      0   1425   1165      0    0.0  0.000      0      0  0.000  0.000  0.022  0.000   3.28   0.00   0.00      0      0    148.8   0.00   0.00   0.59   4.00   4.00   4.00   2.58   0.57   0.00   0.00   0.00   0.00   0.00      0      0      0       0      88
 1987 302    75    72   13.0      3   1.75   1195     82      0   1578   1277      0    0.0  0.000      0      0  0.000  0.000  0.022  0.000   3.24   0.00   0.00      0      0    146.3   0.00   0.00   0.60   4.00   4.00   4.00   2.96   0.93   0.00   0.00   0.00   0.00   0.00      0      0      0       0      95
 1987 303    76    73   13.0      3   1.88   1313    110      0   1712   1423      0    0.0  0.000      0      0  0.000  0.000  0.022  0.000   3.20   0.00   0.00      0      0    143.5   0.00   0.00   0.62   4.00   4.00   4.00   3.27   1.24   0.01   0.00   0.00   0.00   0.00      0      0      0       0     103
 1987 304    77    74   14.0      3   2.02   1436    145      0   1850   1581      0    0.0  0.000      0      0  0.000  0.000  0.022  0.000   3.16   0.00   0.00      0      0    140.9   0.00   0.00   0.63   4.00   4.00   4.00   3.60   1.57   0.03   0.00   0.00   0.00   0.00      0      0      0       0     112
 1987 305    78    75   14.0      3   2.15   1550    183      0   1891   1733      0    0.0  0.000      0      0  0.000  0.000  0.022  0.000   3.12   0.00   0.00      0      0    138.7   0.00   0.00   0.65   3.96   4.00   4.00   3.68   1.67   0.05   0.00   0.00   0.00   0.00      0      0      0       0     121
 1987 306    79    76   14.0      3   2.29   1676    233      0   1905   1909      0    0.0  0.000      0      0  0.000  0.000  0.022  0.001   3.08   0.00   0.00      0      0    136.5   0.00   0.00   0.66   3.91   4.00   4.00   3.69   1.71   0.05   0.00   0.00   0.00   0.00      0      0      0       0     130
 1987 307    80    77   15.0      3   2.41   1788    284      0   1931   2072      0    0.0  0.000      0      0  0.000  0.000  0.022  0.001   3.05   0.00   0.00      0      0    134.6   0.00   0.00   0.68   3.87   4.00   4.00   3.74   1.78   0.07   0.00   0.00   0.00   0.00      0      0      0       0     140
 1987 308    81    78   15.0      3   2.50   1877    329      0   1928   2206      0    0.0  0.000      0      0  0.000  0.000  0.022  0.001   3.01   0.00   0.00      0      0    133.1   0.00   0.00   0.69   3.82   3.97   3.98   3.71   1.78   0.07   0.00   0.00   0.00   0.00      0      0      0       0     150
 1987 309    82    79   15.0      3   2.59   1965    380      0   1926   2345      0    0.0  0.000      0      0  0.000  0.000  0.022  0.001   2.98   0.00   0.00      0      0    131.7   0.00   0.00   0.71   3.77   3.94   3.96   3.69   1.78   0.08   0.00   0.00   0.00   0.00      0      0      0       0     159
 1987 310    83    80   15.0      3   2.69   2060    439      0   1945   2500      0    0.0  0.000      0      0  0.000  0.000  0.022  0.001   2.95   0.00   0.00      0      0    130.3   0.00   0.00   0.72   3.73   3.96   4.00   3.74   1.84   0.10   0.00   0.00   0.00   0.00      0      0      0       0     169
 1987 311    84    81   16.0      3   2.78   2151    502      0   2130   2653      0    0.0  0.000      0      0  0.000  0.000  0.022  0.012   2.93   0.00   0.00      0      0    129.1   0.00   0.00   0.73   3.72   4.00   4.00   4.00   2.40   0.28   0.00   0.00   0.00   0.00      0      0      0       0     179
 1987 312    85    82   16.0      3   2.86   2238    565      0   2268   2803      0    0.0  0.000      0      0  0.000  0.000  0.022  0.001   2.90   0.00   0.00      0      0    127.9   0.00   0.00   0.74   3.71   4.00   4.00   4.00   2.89   0.46   0.00   0.00   0.00   0.00      0      0      0       0     189
 1987 313    86    83   16.0      3   2.91   2294    609      0   2481   2902      0    0.0  0.000      0      0  0.000  0.000  0.022  0.000   2.88   0.00   0.00      0      0    127.0   0.00   0.00   0.75   3.73   4.00   4.00   4.00   3.70   0.77   0.00   0.00   0.00   0.00      0      0      0       0     200
 1987 314    87    84   16.0      3   2.98   2368    670      0   2674   3038      0    0.0  0.000      0      0  0.000  0.000  0.022  0.000   2.86   0.00   0.00      0      0    126.0   0.00   0.00   0.75   3.76   4.00   4.00   4.00   4.00   1.11   0.00   0.00   0.00   0.00      0      0      0       0     213
 1987 315    88    85   17.0      3   3.09   2473    763      0   2829   3236      0    0.0  0.000      0      0  0.000  0.000  0.022  0.000   2.84   0.00   0.00      0      0    124.8   0.00   0.00   0.77   3.79   4.00   4.00   4.00   4.00   1.43   0.00   0.00   0.00   0.00      0      0      0       0     226
 1987 316    89    86   17.0      3   3.20   2593    880      0   2907   3472      0    0.0  0.000      0      0  0.000  0.000  0.022  0.000   2.80   0.00   0.00      0      0    123.5   0.00   0.00   0.78   3.80   4.00   4.00   4.00   4.00   1.62   0.00   0.00   0.00   0.00      0      0      0       0     240
 1987 317    90    87   17.0      3   3.33   2729   1026      0   2986   3756      0    0.0  0.000      0      0  0.000  0.000  0.022  0.000   2.70   0.00   0.00      0      0    122.1   0.00   0.00   0.80   3.81   4.00   4.00   4.00   4.00   1.83   0.00   0.00   0.00   0.00      0      0      0       0     255
 1987 318    91    88   18.0      3   3.47   2874   1197      0   3045   4071      0    0.0  0.000      0      0  0.000  0.000  0.022  0.000   2.55   0.00   0.00      0      0    120.8   0.00   0.00   0.81   3.65   3.83   3.83   3.90   4.00   1.96   0.00   0.00   0.00   0.00      0      0      0       0     270
 1987 319    92    89   18.0      3   3.70   3106   1401      0   3054   4508      0    0.0  0.000      0      0  0.000  0.000  0.022  0.000   2.37   0.00   0.00      0      0    119.0   0.00   0.00   0.83   3.56   3.73   3.73   3.82   3.97   1.99   0.00   0.00   0.00   0.00      0      0      0       0     285
 1987 320    93    90   18.0      3   3.79   3210   1523      0   3217   4733      0    0.0  0.000      0      0  0.000  0.000  0.024  0.268   2.31   0.00   0.00      0      0    118.0   0.00   0.00   0.84   3.62   3.80   3.80   3.86   4.00   2.60   0.00   0.00   0.00   0.00      0      0      0       0     300
 1987 321    94    91   19.0      3   3.90   3342   1717      0   3331   5059      0    0.0  0.000      0      0  0.000  0.000  0.032  0.078   2.20   0.00   0.00      0      0    116.8   0.00   0.00   0.85   3.73   3.90   3.90   3.89   4.00   3.10   0.00   0.00   0.00   0.00      0      0      0       0     316
 1987 322    95    92   19.0      3   3.97   3429   1867      0   3328   5296      0    0.0  0.000      0      0  0.000  0.000  0.034  0.035   2.14   0.00   0.00      0      0    115.8   0.00   0.00   0.87   3.73   3.90   3.90   3.88   4.00   3.14   0.00   0.00   0.00   0.00      0      0      0       0     333
 1987 323    96    93   19.0      3   4.04   3514   2031      0   3325   5545      0    0.0  0.000      0      0  0.000  0.000  0.039  0.170   2.06   0.00   0.00      0      0    114.8   0.00   0.00   0.88   3.52   3.68   3.68   3.65   3.76   3.00   0.00   0.00   0.00   0.00      0      0      0       0     350
 1987 324    97    94   20.0      3   4.07   3577   2160      0   3319   5737      0    0.0  0.000      0      0  0.000  0.000  0.044  0.111   2.01   0.00   0.00      0      0    113.9   0.00   0.00   0.89   3.41   3.57   3.57   3.52   3.63   2.93   0.00   0.00   0.00   0.00      0      0      0       0     366
 1987 325    98    95   20.0      3   4.09   3623   2261      0   3525   5883      0    0.0  0.000      0      0  0.000  0.000  0.048  0.244   1.97   0.00   0.00      0      0    113.0   0.00   0.00   0.90   3.88   4.00   4.00   3.68   3.77   3.55   0.00   0.00   0.00   0.00      0      0      0       0     383
 1987 326    99    96   20.0      3   4.11   3670   2368      0   3723   6038      0    0.0  0.000      0      0  0.000  0.000  0.052  0.073   1.94   0.00   0.00      0      0    112.1   0.00   0.00   0.91   4.00   4.00   4.00   3.87   3.92   3.87   0.18   0.00   0.00   0.00      0      0      0       0     401
 1987 327   100    97   20.0      3   4.13   3721   2489      0   3735   6210      0    0.0  0.000      0      0  0.000  0.000  0.053  0.043   1.91   0.00   0.00      0      0    111.1   0.00   0.00   0.92   4.00   4.00   4.00   3.85   3.90   3.85   0.23   0.00   0.00   0.00      0      0      0       0     419
 1987 328   101    98   20.0      3   4.17   3790   2663      0   3734   6452      0    0.0  0.000      0      0  0.000  0.000  0.054  0.018   1.86   0.00   0.00      0      0    110.1   0.00   0.00   0.93   4.00   4.00   4.00   3.85   3.89   3.83   0.27   0.00   0.00   0.00      0      0      0       0     438
 1987 329   102    99   21.0      3   4.21   3860   2848      0   3762   6708      0    0.0  0.000      0      0  0.000  0.000  0.054  0.010   1.80   0.00   0.00      0      0    109.1   0.00   0.00   0.94   4.00   4.00   4.00   3.88   3.92   3.86   0.40   0.00   0.00   0.00      0      0      0       0     457
 1987 330   103   100   21.0      3   4.24   3919   3012      0   3793   6932      0    0.0  0.000      0      0  0.000  0.000  0.058  0.007   1.76   0.00   0.00      0      0    108.1   0.00   0.00   0.95   4.00   4.00   4.00   3.92   3.96   3.88   0.54   0.00   0.00   0.00      0      0      0       0     475
 1987 331   104   101   21.0      3   4.26   3975   3174      0   3917   7149      0    0.0  0.000      0      0  0.000  0.000  0.062  0.000   1.72   0.00   0.00      0      0    107.1   0.00   0.00   0.96   4.00   4.00   4.00   4.00   4.00   3.98   0.97   0.00   0.00   0.00      0      0      0       0     494
 1987 332   105   102   21.0      3   4.29   4042   3366      0   4055   7408      0    0.0  0.000      0      0  0.000  0.000  0.064  0.000   1.67   0.00   0.00      0      0    106.0   0.00   0.00   0.98   4.00   4.00   4.00   4.00   4.00   4.00   1.43   0.00   0.00   0.00      0      0      0       0     514
 1987 333   106   103   21.0      3   4.33   4124   3600      0   4165   7724      0    0.0  0.000      0      0  0.000  0.000  0.066  0.000   1.62   0.00   0.00      0      0    104.9   0.00   0.00   0.99   4.00   4.00   4.00   4.00   4.00   4.00   1.81   0.00   0.00   0.00      0      0      0       0     534
 1987 334   107   104   21.0      3   4.37   4212   3851      0   4256   8063      0    0.0  0.000      0      0  0.000  0.000  0.069  0.000   1.56   0.00   0.00      0      0    103.8   0.00   0.00   1.01   4.00   4.00   4.00   4.00   4.00   4.00   2.12   0.00   0.00   0.00      0      0      0       0     555
 1987 335   108   105   21.0      3   4.42   4310   4127      0   4330   8437      0    0.0  0.000      0      0  0.000  0.000  0.073  0.000   1.50   0.00   0.00      0      0    102.6   0.00   0.00   1.03   4.00   4.00   4.00   4.00   4.00   4.00   2.35   0.00   0.00   0.00      0      0      0       0     576
 1987 336   109   106   21.0      4   4.38   4267   3525      0   4324   8699      0    0.0  0.000    907      0  0.000  0.000  0.078  0.000   1.64   0.00   0.10      0    907    102.7   0.00   0.00   1.05   4.00   4.00   4.00   4.00   4.00   3.99   2.37   0.00   0.00   0.00      0      0      0       0     598
 1987 337   110   107   21.0      4   4.33   4221   3571      0   4310   8814      0    0.0  0.000   1022      0  0.000  0.000  0.084  0.000   1.65   0.00   0.12      0   1022    102.7   0.00   0.00   1.06   4.00   4.00   4.00   3.99   3.99   3.98   2.37   0.00   0.00   0.00      0      0      0       0     620
 1987 338   111   108   21.0      4   4.30   4173   3619      0   4314   8934      0    0.0  0.000   1142      0  0.000  0.000  0.061  0.000   1.66   0.00   0.13      0   1142    103.1   0.00   0.00   1.07   4.00   4.00   4.00   4.00   4.00   3.99   2.39   0.00   0.00   0.00      0      0      0       0     641
 1987 339   112   109   21.0      4   4.27   4123   3675      0   4486   9081      0    0.0  0.000   1282      0  0.000  0.000  0.058  0.000   1.66   0.00   0.14      0   1282    103.6   0.00   0.00   1.08   4.00   4.00   4.00   4.00   4.00   4.00   2.52   0.00   0.00   0.00      0      0      0       0     663
 1987 340   113   110   21.0      4   4.24   4070   3740      0   4637   9255      0    0.0  0.000   1445      0  0.000  0.000  0.054  0.127   1.67   0.00   0.16      0   1445    104.2   0.00   0.00   1.09   4.00   4.00   4.00   4.00   4.00   4.00   2.65   0.00   0.00   0.00      0      0      0       0     685
 1987 341   114   111   21.0      4   4.21   4015   3797      0   4622   9398      0    0.0  0.000   1587      0  0.000  0.000  0.051  0.056   1.68   0.00   0.17      0   1587    105.0   0.00   0.00   1.10   4.00   4.00   4.00   3.99   3.99   3.99   2.64   0.01   0.00   0.00      0      0      0       0     708
 1987 342   115   112   21.0      4   4.19   3958   3859      0   4737   9559      0    0.0  0.000   1742      0  0.000  0.000  0.048  0.081   1.68   0.00   0.18      0   1742    105.8   0.00   0.00   1.11   4.00   4.00   4.00   4.00   4.00   4.00   2.73   0.14   0.00   0.00      0      0      0       0     731
 1987 343   116   113   21.0      4   4.17   3898   3920      0   4890   9713      0    0.0  0.000   1895      0  0.000  0.000  0.045  0.032   1.69   0.00   0.20      0   1895    106.9   0.00   0.00   1.11   4.00   4.00   4.00   4.00   4.00   4.00   2.84   0.36   0.00   0.00      0      0      0       0     755
 1987 344   117   114   21.0      4   4.14   3835   3998      0   5035   9922      0    0.0  0.000   2089      0  0.000  0.000  0.042  0.004   1.69   0.00   0.21      0   2089    108.1   0.00   0.00   1.12   4.00   4.00   4.00   4.00   4.00   4.00   2.95   0.60   0.00   0.00      0      0      0       0     780
 1987 345   118   115   21.0      4   4.12   3769   4075      0   5072  10126      0    0.0  0.000   2282      0  0.000  0.000  0.038  0.000   1.70   0.00   0.23      0   2282    109.4   0.00   0.00   1.13   4.00   4.00   4.00   4.00   4.00   4.00   2.97   0.70   0.00   0.00      0      0      0       0     805
 1987 346   119   116   21.0      4   4.11   3701   4133      0   5245  10264      0    0.0  0.000   2429      0  0.000  0.000  0.036  0.000   1.71   0.00   0.24      0   2429    110.9   0.00   0.00   1.14   4.00   4.00   4.00   4.00   4.00   4.00   3.10   1.03   0.00   0.00      0      0      0       0     830
 1987 347   120   117   21.0      4   4.09   3631   4193      0   5422  10403      0    0.0  0.000   2578      0  0.000  0.000  0.034  0.000   1.72   0.00   0.25      0   2578    112.6   0.00   0.00   1.15   4.00   4.00   4.00   4.00   4.00   4.00   3.22   1.37   0.00   0.00      0      0      0       0     856
 1987 348   121   118   21.0      4   4.07   3558   4263      0   5439  10575      0    0.0  0.000   2754      0  0.000  0.000  0.031  0.000   1.72   0.00   0.26      0   2754    114.4   0.00   0.00   1.16   4.00   4.00   4.00   4.00   4.00   4.00   3.23   1.44   0.00   0.00      0      0      0       0     883
 1987 349   122   119   21.0      4   4.06   3482   4357      0   5482  10827      0    0.0  0.000   2988      0  0.000  0.000  0.028  0.000   1.72   0.00   0.28      0   2988    116.5   0.00   0.00   1.17   4.00   4.00   4.00   4.00   4.00   4.00   3.27   1.55   0.00   0.00      0      0      0       0     911
 1987 350   123   120   21.0      5   4.05   3482   4307    260   5454  11037   3690    7.0  0.024   3248      7  0.000  0.000  0.019  0.000   1.69   8.00   0.29      0   3248    116.3   0.00   0.00   1.17   4.00   4.00   4.00   4.00   4.00   4.00   3.27   1.55   0.00   0.00      0      0      0       0     938
 1987 351   124   121   21.0      5   4.03   3482   4357    471   5516  11299   3690   12.8  0.042   3459      7  0.000  0.000  0.033  0.000   1.64  13.63   0.31      0   3459    115.8   0.00   0.00   1.18   4.00   4.00   4.00   4.00   4.00   4.00   3.31   1.68   0.00   0.00      0      0      0       0     965
 1987 352   125   122   21.0      5   4.01   3482   4357    656   5563  11483   3690   17.8  0.057   3644      7  0.000  0.000  0.036  0.121   1.60  18.00   0.32      0   3644    115.3   0.00   0.00   1.18   4.00   4.00   4.00   4.00   4.00   4.00   3.35   1.78   0.00   0.00      0      0      0       0     993
 1987 353   126   123   21.0      5   3.99   3482   4357    846   5628  11673   3690   22.9  0.072   3834      7  0.000  0.000  0.043  0.029   1.57  22.07   0.33      0   3834    114.6   0.00   0.00   1.19   4.00   4.00   4.00   4.00   4.00   4.00   3.39   1.88   0.00   0.00      0      0      0       0    1021
 1987 354   127   124   21.0      5   3.97   3482   4357   1064   5665  11891   3690   28.8  0.090   4052      7  0.000  0.000  0.046  0.002   1.54  26.27   0.34      0   4052    114.0   0.00   0.00   1.20   4.00   4.00   4.00   4.00   4.00   4.00   3.42   1.95   0.00   0.00      0      0      0       0    1049
 1987 355   128   125   21.0      5   3.94   3482   4357   1239   5746  12066   3690   33.6  0.103   4227      7  0.000  0.000  0.052  0.000   1.51  29.31   0.35      0   4227    113.2   0.00   0.00   1.21   4.00   4.00   4.00   4.00   4.00   4.00   3.49   2.05   0.00   0.00      0      0      0       0    1077
 1987 356   129   126   21.0      5   3.92   3482   4357   1418   5785  12245   3690   38.4  0.116   4405      7  0.000  0.000  0.056  0.000   1.48  32.18   0.36      0   4405    112.4   0.00   0.00   1.21   4.00   4.00   4.00   4.00   4.00   4.00   3.52   2.10   0.00   0.00      0      0      0       0    1106
 1987 357   130   127   21.0      5   3.89   3482   4357   1618   5828  12445   3690   43.8  0.130   4606      7  0.000  0.000  0.059  0.000   1.45  35.13   0.37      0   4606    111.6   0.00   0.00   1.22   4.00   4.00   4.00   4.00   4.00   4.00   3.56   2.13   0.00   0.00      0      0      0       0    1135
 1987 358   131   128   21.0      5   3.86   3482   4357   1840   5894  12667   3690   49.8  0.145   4827      7  0.000  0.000  0.064  0.000   1.41  38.11   0.38      0   4827    110.7   0.00   0.00   1.23   4.00   4.00   4.00   4.00   4.00   4.00   3.61   2.17   0.00   0.00      0      0      0       0    1164
 1987 359   132   129   21.0      5   3.82   3482   4316   2066   5864  12851   3690   56.0  0.161   5054      7  0.000  0.000  0.069  0.000   1.38  40.88   0.39      0   5054    109.8   0.00   0.00   1.23   4.00   4.00   4.00   4.00   4.00   4.00   3.61   2.17   0.00   0.00      0      0      0       0    1193
 1987 360   133   130   21.0      5   3.79   3482   4312   2343   5835  13125   3690   63.5  0.178   5330      7  0.000  0.000  0.074  0.000   1.34  43.95   0.41      0   5330    108.7   0.00   0.00   1.23   4.00   4.00   4.00   4.00   4.00   4.00   3.61   2.17   0.00   0.00      0      0      0       0    1223
 1987 361   134   131   21.0      5   3.75   3482   4357   2619   5842  13446   3690   71.0  0.195   5607      7  0.000  0.000  0.080  0.000   1.28  46.71   0.42      0   5607    107.7   0.00   0.00   1.24   4.00   4.00   4.00   4.00   4.00   4.00   3.62   2.17   0.00   0.00      0      0      0       0    1252
 1987 362   135   132   21.0      5   3.71   3482   4357   2896   5830  13723   3690   78.5  0.211   5884      7  0.000  0.000  0.087  0.000   1.24  49.22   0.43      0   5884    106.5   0.00   0.00   1.25   4.00   4.00   4.00   4.00   4.00   4.00   3.62   2.17   0.00   0.00      0      0      0       0    1281
 1987 363   136   133   21.0      5   3.66   3482   4261   3157   5800  13888   3690   85.5  0.227   6145      7  0.000  0.000  0.100  0.187   1.21  51.38   0.44      0   6145    105.2   0.00   0.00   1.25   4.00   4.00   4.00   4.00   4.00   4.00   3.62   2.17   0.00   0.00      0      0      0       0    1310
 1987 364   137   134   21.0      5   3.61   3482   4242   3434   5771  14146   3690   93.0  0.243   6422      7  0.000  0.000  0.109  0.200   1.17  53.47   0.45      0   6422    103.7   0.00   0.00   1.25   4.00   4.00   4.00   4.00   4.00   4.00   3.62   2.17   0.00   0.00      0      0      0       0    1339
 1987 365   138   135   21.0      5   3.56   3482   4320   3711   5782  14501   3690  100.5  0.256   6698      7  0.000  0.000  0.113  0.276   1.12  55.40   0.46      0   6698    102.3   0.00   0.00   1.25   4.00   4.00   4.00   4.00   4.00   4.00   3.63   2.17   0.00   0.00      0      0      0       0    1368
 1988 001   139   136   21.0      5   3.51   3482   4357   3987   5815  14815   3690  108.0  0.269   6975      7  0.000  0.000  0.121  0.130   1.07  57.17   0.47      0   6975    100.7   0.00   0.00   1.25   4.00   4.00   4.00   4.00   4.00   4.00   3.66   2.18   0.00   0.00      0      0      0       0    1397
 1988 002   140   137   21.0      5   3.45   3482   4357   4264   5850  15091   3690  115.5  0.283   7252      7  0.000  0.000  0.135  0.039   1.04  58.80   0.48      0   7252     99.0   0.00   0.00   1.25   4.00   4.00   4.00   4.00   4.00   4.00   3.69   2.20   0.00   0.00      0      0      0       0    1426
 1988 003   141   138   21.0      5   3.39   3482   4357   4541   5874  15368   3690  123.0  0.295   7529      7  0.000  0.000  0.144  0.009   1.00  60.31   0.49      0   7529     97.2   0.00   0.00   1.25   4.00   4.00   4.00   4.00   4.00   4.00   3.71   2.21   0.00   0.00      0      0      0       0    1455
 1988 004   142   139   21.0      5   3.32   3482   4357   4818   5907  15645   3690  130.5  0.308   7806      7  0.000  0.000  0.152  0.000   0.97  61.72   0.50      0   7806     95.4   0.00   0.00   1.25   4.00   4.00   4.00   4.00   4.00   4.00   3.74   2.22   0.00   0.00      0      0      0       0    1485
 1988 005   143   140   21.0      5   3.25   3482   4357   5095   5880  15922   3690  138.0  0.320   8082      7  0.000  0.000  0.161  0.000   0.94  63.03   0.51      0   8082     93.5   0.00   0.00   1.25   3.99   3.99   3.99   3.98   3.98   3.98   3.72   2.21   0.00   0.00      0      0      0       0    1514
 1988 006   144   141   21.0      5   3.18   3482   4357   5255   5939  16083   3690  142.4  0.327   8243      7  0.000  0.000  0.173  0.000   0.92  63.75   0.51      0   8243     91.5   0.00   0.00   1.25   4.00   4.00   4.00   4.00   4.00   4.00   3.77   2.24   0.00   0.00      0      0      0       0    1544
 1988 007   145   142   21.0      5   3.11   3482   4357   5450   5988  16277   3690  147.7  0.335   8438      7  0.000  0.000  0.177  0.066   0.90  64.59   0.52      0   8438     89.4   0.00   0.00   1.25   4.00   4.00   4.00   4.00   4.00   4.00   3.81   2.26   0.00   0.00      0      0      0       0    1573
 1988 008   146   143   21.0      5   3.04   3482   4357   5708   6008  16535   3690  154.7  0.345   8696      7  0.000  0.000  0.182  0.016   0.87  65.64   0.53      0   8696     87.4   0.00   0.00   1.25   4.00   4.00   4.00   4.00   4.00   4.00   3.83   2.27   0.00   0.00      0      0      0       0    1603
 1988 009   147   144   21.0      5   2.97   3482   4357   5985   6033  16812   3690  162.2  0.356   8972      7  0.000  0.000  0.188  0.000   0.84  66.70   0.53      0   8972     85.3   0.00   0.00   1.25   4.00   4.00   4.00   4.00   4.00   4.00   3.86   2.28   0.00   0.00      0      0      0       0    1633
 1988 010   148   145   21.0      5   2.90   3482   4357   6261   6035  17088   3690  169.7  0.366   9249      7  0.000  0.000  0.197  0.000   0.81  67.70   0.54      0   9249     83.2   0.00   0.00   1.25   4.00   4.00   4.00   4.00   4.00   4.00   3.86   2.28   0.00   0.00      0      0      0       0    1664
 1988 011   149   146   21.0      5   2.82   3482   4357   6538   6022  17365   3690  177.2  0.377   9526      7  0.000  0.000  0.216  0.000   0.78  68.63   0.55      0   9526     81.1   0.00   0.00   1.25   4.00   4.00   4.00   4.00   4.00   4.00   3.86   2.27   0.00   0.00      0      0      0       0    1694
 1988 012   150   147   21.0      5   2.75   3482   4357   6815   6025  17642   3690  184.7  0.386   9803      7  0.000  0.000  0.243  0.000   0.76  69.52   0.56      0   9803     78.9   0.00   0.00   1.25   4.00   4.00   4.00   4.00   4.00   4.00   3.86   2.27   0.00   0.00      0      0      0       0    1724
 1988 013   151   148   21.0      5   2.67   3482   4263   7079   5995  17813   3690  191.8  0.397  10067      7  0.000  0.000  0.276  0.000   0.74  70.32   0.57      0  10067     76.7   0.00   0.00   1.25   4.00   4.00   4.00   4.00   4.00   4.00   3.86   2.27   0.00   0.00      0      0      0       0    1754
 1988 014   152   149   21.0      5   2.59   3482   4296   7356   5981  18122   3690  199.3  0.406  10344      7  0.000  0.000  0.306  0.000   0.71  71.11   0.57      0  10344     74.5   0.00   0.00   1.25   4.00   4.00   4.00   4.00   4.00   4.00   3.86   2.27   0.00   0.00      0      0      0       0    1784
 1988 015   153   150   21.0      5   2.51   3482   4318   7633   5962  18421   3690  206.8  0.414  10621      7  0.000  0.000  0.325  0.020   0.68  71.87   0.58      0  10621     72.2   0.00   0.00   1.25   4.00   4.00   4.00   3.99   3.99   3.99   3.84   2.26   0.00   0.00      0      0      0       0    1814
 1988 016   154   151   21.0      5   2.43   3482   4290   7910   5932  18670   3690  214.3  0.424  10897      7  0.000  0.000  0.359  0.005   0.66  72.58   0.58      0  10897     69.9   0.00   0.00   1.25   4.00   4.00   4.00   3.99   3.99   3.99   3.84   2.26   0.00   0.00      0      0      0       0    1844
 1988 017   155   152   21.0      5   2.35   3482   4299   8186   5907  18955   3690  221.8  0.432  11174      7  0.000  0.000  0.389  0.000   0.64  73.26   0.59      0  11174     67.6   0.00   0.00   1.25   3.99   3.99   3.99   3.98   3.98   3.97   3.83   2.25   0.00   0.00      0      0      0       0    1873
 1988 018   156   153   21.0      5   2.27   3482   4117   8463   5877  19050   3690  229.3  0.444  11451      7  0.000  0.000  0.413  0.000   0.64  73.91   0.60      0  11451     65.3   0.00   0.00   1.25   3.99   3.99   3.99   3.98   3.98   3.97   3.83   2.25   0.00   0.00      0      0      0       0    1903
 1988 019   157   154   21.0      5   2.19   3482   3962   8707   5848  19139   3690  235.9  0.455  11695      7  0.000  0.000  0.448  0.000   0.63  74.45   0.61      0  11695     63.0   0.00   0.00   1.25   3.99   3.99   3.99   3.98   3.98   3.97   3.83   2.25   0.00   0.00      0      0      0       0    1932
 1988 020   158   155   21.0      5   2.12   3482   3801   8966   5819  19237   3690  243.0  0.466  11954      7  0.000  0.000  0.452  0.449   0.62  75.01   0.62      0  11954     60.8   0.00   0.00   1.25   3.99   3.99   3.99   3.98   3.98   3.97   3.83   2.25   0.00   0.00      0      0      0       0    1961
 1988 021   159   156   21.0      5   2.04   3482   3688   9214   5790  19372   3690  249.7  0.476  12201      7  0.000  0.000  0.466  0.685   0.60  75.51   0.63      0  12201     58.6   0.00   0.00   1.25   3.99   3.99   3.99   3.98   3.98   3.97   3.83   2.25   0.00   0.00      0      0      0       0    1991
 1988 022   160   157   21.0      5   1.97   3482   3707   9441   5770  19617   3690  255.8  0.481  12429      7  0.000  0.000  0.483  0.507   0.58  75.96   0.63      0  12429     56.4   0.00   0.00   1.25   3.83   3.83   3.83   3.80   3.80   3.79   3.65   2.15   0.00   0.00      0      0      0       0    2019
 1988 023   161   158   21.0      5   1.97   3482   3707   9441   5770  19617   3690  255.8  0.481  12429      7  0.000  0.000  0.483  0.507   0.58  75.96   0.63      0  12429     56.4   0.00   0.00   1.25   3.80   3.80   3.80   3.75   3.75   3.74   3.60   2.12   0.00   0.00      0      0      0       0    2019
 1988 024   162   159   21.0      5   1.97   3482   3707   9441   5770  19617   3690  255.8  0.481  12429      7  0.000  0.000  0.483  0.507   0.58  75.96   0.63      0  12429     56.4   0.00   0.00   1.25   3.80   3.81   3.83   3.74   3.74   3.72   3.58   2.11   0.00   0.00      0      0      0       0    2019
 1988 025   163   160   21.0      5   1.97   3482   3707   9441   5770  19617   3690  255.8  0.481  12429      7  0.000  0.000  0.483  0.507   0.58  75.96   0.63      0  12429     56.4   0.00   0.00   1.25   3.79   3.83   3.87   3.73   3.72   3.71   3.57   2.10   0.00   0.00      0      0      0       0    2019
 1988 026   164   161   21.0      5   1.97   3482   3707   9441   5770  19617   3690  255.8  0.481  12429      7  0.000  0.000  0.483  0.507   0.58  75.96   0.63      0  12429     56.4   0.00   0.00   1.25   3.80   3.86   3.91   3.71   3.71   3.69   3.55   2.09   0.00   0.00      0      0      0       0    2019

*DSSAT Cropping System Model Ver. 4.0.2.000               Aug 03, 2016; 15:38:15

*RUN   2        : UYMZ                    
 MODEL          : MZCER040 - Maize           
 EXPERIMENT     : UYMZ0131 MZ    late to create DSS                             
 TREATMENT  1   : UYMZ                    

@YEAR DOY   DAS   DAP   L#SD   GSTD   LAID   LWAD   SWAD   GWAD   RWAD   CWAD   G#AD   GWGD   HIAD   PWAD   P#AD   WSPD   WSGD   NSTD   EWSD   LN%D   SH%D   HIPD   PWDD   PWTD     SLAD   CHTD   CWID   RDPD   RL1D   RL2D   RL3D   RL4D   RL5D   RL6D   RL7D   RL8D   RL9D   RL10   CDAD   LDAD   SDAD   SNW0C   SNW1C
 1988 230     3     0    0.0      0   0.00      0      0      0      0      0      0    0.0  0.000      0      0  0.000  0.000  0.000  0.000   0.00   0.00   0.00      0      0      0.0   0.00   0.00   0.03   0.00   0.00   0.00   0.00   0.00   0.00   0.00   0.00   0.00   0.00      0      0      0       0       0
 1988 231     4     1    0.0      0   0.00      0      0      0      0      0      0    0.0  0.000      0      0  0.000  0.000  0.000  0.000   0.00   0.00   0.00      0      0      0.0   0.00   0.00   0.04   0.00   0.00   0.00   0.00   0.00   0.00   0.00   0.00   0.00   0.00      0      0      0       0       0
 1988 232     5     2    0.0      0   0.00      0      0      0      0      0      0    0.0  0.000      0      0  0.000  0.000  0.000  0.000   0.00   0.00   0.00      0      0      0.0   0.00   0.00   0.06   0.00   0.00   0.00   0.00   0.00   0.00   0.00   0.00   0.00   0.00      0      0      0       0       0
 1988 233     6     3    0.0      0   0.00      0      0      0      0      0      0    0.0  0.000      0      0  0.000  0.000  0.000  0.000   0.00   0.00   0.00      0      0      0.0   0.00   0.00   0.07   0.00   0.00   0.00   0.00   0.00   0.00   0.00   0.00   0.00   0.00      0      0      0       0       0
 1988 234     7     4    0.0      0   0.00      0      0      0      0      0      0    0.0  0.000      0      0  0.000  0.000  0.000  0.000   0.00   0.00   0.00      0      0      0.0   0.00   0.00   0.08   0.00   0.00   0.00   0.00   0.00   0.00   0.00   0.00   0.00   0.00      0      0      0       0       0
 1988 235     8     5    0.0      0   0.00      0      0      0      0      0      0    0.0  0.000      0      0  0.000  0.000  0.000  0.000   0.00   0.00   0.00      0      0      0.0   0.00   0.00   0.09   0.00   0.00   0.00   0.00   0.00   0.00   0.00   0.00   0.00   0.00      0      0      0       0       0
 1988 236     9     6    0.0      0   0.00      0      0      0      0      0      0    0.0  0.000      0      0  0.000  0.000  0.000  0.000   0.00   0.00   0.00      0      0      0.0   0.00   0.00   0.11   0.00   0.00   0.00   0.00   0.00   0.00   0.00   0.00   0.00   0.00      0      0      0       0       0
 1988 237    10     7    0.0      0   0.00      0      0      0      0      0      0    0.0  0.000      0      0  0.000  0.000  0.000  0.000   0.00   0.00   0.00      0      0      0.0   0.00   0.00   0.13   0.00   0.00   0.00   0.00   0.00   0.00   0.00   0.00   0.00   0.00      0      0      0       0       0
 1988 238    11     8    1.0      1   0.00     14     14      0     14     28      0    0.0  0.000      0      0  0.000  0.000  0.012  0.000   4.40   0.00   0.00      0      0     10.0   0.00   0.00   0.13   0.28   0.11   0.00   0.00   0.00   0.00   0.00   0.00   0.00   0.00      0      0      0       0       0
 1988 239    12     9    1.0      1   0.00     14     14      0     14     28      0    0.0  0.000      0      0  0.000  0.000  0.020  0.000   4.56   0.00   0.00      0      0      6.5   0.00   0.00   0.13   0.28   0.11   0.00   0.00   0.00   0.00   0.00   0.00   0.00   0.00      0      0      0       0       0
 1988 240    13    10    1.0      1   0.00     14     14      0     14     28      0    0.0  0.000      0      0  0.000  0.000  0.000  0.000   4.56   0.00   0.00      0      0      2.9   0.00   0.00   0.13   0.28   0.11   0.00   0.00   0.00   0.00   0.00   0.00   0.00   0.00      0      0      0       0       0
 1988 241    14    11    1.0      1   0.00     14     14      0     14     28      0    0.0  0.000      0      0  0.000  0.000  0.000  0.000   4.56   0.00   0.00      0      0      3.3   0.00   0.00   0.13   0.28   0.10   0.00   0.00   0.00   0.00   0.00   0.00   0.00   0.00      0      0      0       0       0
 1988 242    15    12    2.0      1   0.00     14     14      0     14     28      0    0.0  0.000      0      0  0.000  0.000  0.000  0.000   4.56   0.00   0.00      0      0     16.6   0.00   0.00   0.14   0.27   0.10   0.00   0.00   0.00   0.00   0.00   0.00   0.00   0.00      0      0      0       0       0
 1988 243    16    13    2.0      1   0.00     14     14      0     14     28      0    0.0  0.000      0      0  0.000  0.000  0.000  0.000   4.56   0.00   0.00      0      0     26.7   0.00   0.00   0.15   0.28   0.11   0.00   0.00   0.00   0.00   0.00   0.00   0.00   0.00      0      0      0       0       0
 1988 244    17    14    2.0      1   0.01     14     14      0     15     28      0    0.0  0.000      0      0  0.000  0.000  0.000  0.000   4.56   0.00   0.00      0      0     37.1   0.00   0.00   0.15   0.28   0.12   0.00   0.00   0.00   0.00   0.00   0.00   0.00   0.00      0      0      0       0       0
 1988 245    18    15    2.0      1   0.01     14     14      0     15     28      0    0.0  0.000      0      0  0.000  0.000  0.000  0.000   4.50   0.00   0.00      0      0     37.7   0.00   0.00   0.16   0.28   0.12   0.00   0.00   0.00   0.00   0.00   0.00   0.00   0.00      0      0      0       0       0
 1988 246    19    16    2.0      1   0.00     14     14      0     15     28      0    0.0  0.000      0      0  0.000  0.000  0.000  0.000   4.49   0.00   0.00      0      0     19.4   0.00   0.00   0.16   0.28   0.12   0.00   0.00   0.00   0.00   0.00   0.00   0.00   0.00      0      0      0       0       0
 1988 247    20    17    2.0      1   0.00     14     14      0     15     28      0    0.0  0.000      0      0  0.000  0.000  0.000  0.000   4.49   0.00   0.00      0      0     14.3   0.00   0.00   0.16   0.28   0.12   0.00   0.00   0.00   0.00   0.00   0.00   0.00   0.00      0      0      0       0       0
 1988 248    21    18    2.0      1   0.00     14     14      0     16     28      0    0.0  0.000      0      0  0.000  0.000  0.000  0.000   4.49   0.00   0.00      0      0     15.7   0.00   0.00   0.16   0.29   0.13   0.00   0.00   0.00   0.00   0.00   0.00   0.00   0.00      0      0      0       0       0
 1988 249    22    19    3.0      1   0.00     14     14      0     16     28      0    0.0  0.000      0      0  0.000  0.000  0.000  0.000   4.49   0.00   0.00      0      0     33.9   0.00   0.00   0.17   0.29   0.13   0.00   0.00   0.00   0.00   0.00   0.00   0.00   0.00      0      0      0       0       0
 1988 250    23    20    3.0      1   0.01     14     14      0     16     28      0    0.0  0.000      0      0  0.000  0.000  0.000  0.000   4.49   0.00   0.00      0      0     50.4   0.00   0.00   0.18   0.29   0.13   0.00   0.00   0.00   0.00   0.00   0.00   0.00   0.00      0      0      0       0       0
 1988 251    24    21    3.0      1   0.01     14     14      0     16     28      0    0.0  0.000      0      0  0.000  0.000  0.000  0.000   4.49   0.00   0.00      0      0     69.5   0.00   0.00   0.19   0.29   0.14   0.00   0.00   0.00   0.00   0.00   0.00   0.00   0.00      0      0      0       0       0
 1988 252    25    22    4.0      1   0.02     14     14      0     18     28      0    0.0  0.000      0      0  0.000  0.000  0.000  0.000   4.49   0.00   0.00      0      0    159.7   0.00   0.00   0.20   0.30   0.15   0.00   0.00   0.00   0.00   0.00   0.00   0.00   0.00      0      0      0       0       0
 1988 253    26    23    4.0      1   0.03     14     14      0     19     28      0    0.0  0.000      0      0  0.000  0.000  0.000  0.000   4.37   0.00   0.00      0      0    212.1   0.00   0.00   0.21   0.31   0.16   0.01   0.00   0.00   0.00   0.00   0.00   0.00   0.00      0      0      0       0       0
 1988 254    27    24    4.0      1   0.03     14     14      0     20     28      0    0.0  0.000      0      0  0.000  0.000  0.000  0.000   4.36   0.00   0.00      0      0    237.0   0.00   0.00   0.21   0.31   0.16   0.01   0.00   0.00   0.00   0.00   0.00   0.00   0.00      0      0      0       0       0
 1988 255    28    25    4.0      1   0.04     14     14      0     23     28      0    0.0  0.000      0      0  0.000  0.000  0.000  0.166   4.34   0.00   0.00      0      0    290.8   0.00   0.00   0.22   0.34   0.19   0.03   0.00   0.00   0.00   0.00   0.00   0.00   0.00      0      0      0       0       0
 1988 256    29    26    4.0      1   0.05     18     14      0     28     32      0    0.0  0.000      0      0  0.000  0.000  0.000  0.005   3.82   0.00   0.00      0      0    291.6   0.00   0.00   0.23   0.38   0.23   0.05   0.00   0.00   0.00   0.00   0.00   0.00   0.00      0      0      0       0       1
 1988 257    30    27    4.0      1   0.06     22     14      0     35     36      0    0.0  0.000      0      0  0.000  0.000  0.000  0.000   3.80   0.00   0.00      0      0    285.4   0.00   0.00   0.23   0.44   0.29   0.08   0.00   0.00   0.00   0.00   0.00   0.00   0.00      0      0      0       0       1
 1988 258    31    28    5.0      1   0.07     24     14      0     42     38      0    0.0  0.000      0      0  0.000  0.000  0.000  0.000   4.04   0.00   0.00      0      0    276.7   0.00   0.00   0.24   0.50   0.34   0.11   0.00   0.00   0.00   0.00   0.00   0.00   0.00      0      0      0       0       1
 1988 259    32    29    5.0      1   0.05     25     14      0     46     39      0    0.0  0.000      0      0  0.000  0.000  0.000  0.000   4.20   0.00   0.00      0      0    186.1   0.00   0.00   0.24   0.53   0.37   0.13   0.00   0.00   0.00   0.00   0.00   0.00   0.00      0      0      0       0       1
 1988 260    33    30    5.0      1   0.04     26     14      0     48     40      0    0.0  0.000      0      0  0.000  0.000  0.000  0.000   4.10   0.00   0.00      0      0    139.3   0.00   0.00   0.24   0.55   0.39   0.14   0.00   0.00   0.00   0.00   0.00   0.00   0.00      0      0      0       0       1
 1988 261    34    31    5.0      1   0.03     27     14      0     49     41      0    0.0  0.000      0      0  0.000  0.000  0.011  0.000   4.01   0.00   0.00      0      0    120.1   0.00   0.00   0.24   0.56   0.40   0.15   0.00   0.00   0.00   0.00   0.00   0.00   0.00      0      0      0       0       1
 1988 262    35    32    5.0      1   0.04     31     14      0     50     45      0    0.0  0.000      0      0  0.000  0.000  0.021  0.000   3.62   0.00   0.00      0      0    136.4   0.00   0.00   0.25   0.56   0.41   0.16   0.00   0.00   0.00   0.00   0.00   0.00   0.00      0      0      0       0       1
 1988 263    36    33    5.0      1   0.06     38     14      0     52     52      0    0.0  0.000      0      0  0.000  0.000  0.031  0.000   3.71   0.00   0.00      0      0    152.5   0.00   0.00   0.26   0.58   0.42   0.17   0.00   0.00   0.00   0.00   0.00   0.00   0.00      0      0      0       0       1
 1988 264    37    34    5.0      1   0.08     47     14      0     54     61      0    0.0  0.000      0      0  0.000  0.000  0.000  0.000   3.57   0.00   0.00      0      0    166.4   0.00   0.00   0.27   0.59   0.43   0.17   0.00   0.00   0.00   0.00   0.00   0.00   0.00      0      0      0       0       2
 1988 265    38    35    6.0      1   0.10     55     14      0     54     69      0    0.0  0.000      0      0  0.000  0.000  0.000  0.000   3.70   0.00   0.00      0      0    173.6   0.00   0.00   0.28   0.59   0.43   0.18   0.00   0.00   0.00   0.00   0.00   0.00   0.00      0      0      0       0       2
 1988 266    39    36    6.0      1   0.12     65     14      0     56     79      0    0.0  0.000      0      0  0.000  0.000  0.000  0.000   3.64   0.00   0.00      0      0    178.8   0.00   0.00   0.29   0.56   0.41   0.17   0.00   0.00   0.00   0.00   0.00   0.00   0.00      0      0      0       0       2
 1988 267    40    37    6.0      1   0.15     80     14      0     59     94      0    0.0  0.000      0      0  0.000  0.000  0.000  0.000   3.52   0.00   0.00      0      0    182.6   0.00   0.00   0.30   0.53   0.40   0.19   0.00   0.00   0.00   0.00   0.00   0.00   0.00      0      0      0       0       2
 1988 268    41    38    6.0      1   0.16     85     14      0     68     99      0    0.0  0.000      0      0  0.000  0.000  0.000  0.237   3.91   0.00   0.00      0      0    183.4   0.00   0.00   0.30   0.54   0.44   0.24   0.00   0.00   0.00   0.00   0.00   0.00   0.00      0      0      0       0       3
 1988 269    42    39    6.0      1   0.17     90     14      0     72    104      0    0.0  0.000      0      0  0.000  0.000  0.000  0.091   3.91   0.00   0.00      0      0    184.0   0.00   0.00   0.31   0.55   0.46   0.27   0.00   0.00   0.00   0.00   0.00   0.00   0.00      0      0      0       0       3
 1988 270    43    40    6.0      1   0.17     94     14      0     75    108      0    0.0  0.000      0      0  0.000  0.000  0.000  0.206   3.98   0.00   0.00      0      0    184.2   0.00   0.00   0.31   0.52   0.45   0.27   0.00   0.00   0.00   0.00   0.00   0.00   0.00      0      0      0       0       3
 1988 271    44    41    7.0      1   0.19    101     14      0     84    115      0    0.0  0.000      0      0  0.000  0.000  0.000  0.238   3.85   0.00   0.00      0      0    184.5   0.00   0.00   0.31   0.51   0.48   0.32   0.00   0.00   0.00   0.00   0.00   0.00   0.00      0      0      0       0       4
 1988 272    45    42    7.0      1   0.20    107     14      0    107    121      0    0.0  0.000      0      0  0.000  0.000  0.000  0.284   3.87   0.00   0.00      0      0    184.6   0.00   0.00   0.32   0.54   0.61   0.49   0.01   0.00   0.00   0.00   0.00   0.00   0.00      0      0      0       0       4
 1988 273    46    43    7.0      1   0.22    119     14      0    139    133      0    0.0  0.000      0      0  0.000  0.000  0.000  0.104   3.71   0.00   0.00      0      0    184.5   0.00   0.00   0.32   0.60   0.80   0.73   0.02   0.00   0.00   0.00   0.00   0.00   0.00      0      0      0       0       5
 1988 274    47    44    7.0      1   0.25    134     14      0    174    148      0    0.0  0.000      0      0  0.000  0.000  0.000  0.023   3.64   0.00   0.00      0      0    183.9   0.00   0.00   0.33   0.68   1.00   0.98   0.04   0.00   0.00   0.00   0.00   0.00   0.00      0      0      0       0       5
 1988 275    48    45    8.0      1   0.29    158     14      0    200    172      0    0.0  0.000      0      0  0.000  0.000  0.000  0.000   3.46   0.00   0.00      0      0    182.4   0.00   0.00   0.34   0.74   1.15   1.17   0.06   0.00   0.00   0.00   0.00   0.00   0.00      0      0      0       0       6
 1988 276    49    46    8.0      1   0.33    184     14      0    213    198      0    0.0  0.000      0      0  0.000  0.000  0.000  0.000   3.47   0.00   0.00      0      0    180.4   0.00   0.00   0.36   0.78   1.23   1.27   0.08   0.00   0.00   0.00   0.00   0.00   0.00      0      0      0       0       7
 1988 277    50    47    8.0      1   0.35    196     14      0    239    210      0    0.0  0.000      0      0  0.000  0.000  0.000  0.000   3.76   0.00   0.00      0      0    179.5   0.00   0.00   0.36   0.82   1.37   1.46   0.11   0.00   0.00   0.00   0.00   0.00   0.00      0      0      0       0       8
 1988 278    51    48    8.0      1   0.38    215     14      0    294    229      0    0.0  0.000      0      0  0.000  0.000  0.000  0.000   3.63   0.00   0.00      0      0    178.0   0.00   0.00   0.37   0.92   1.68   1.85   0.19   0.00   0.00   0.00   0.00   0.00   0.00      0      0      0       0      10
 1988 279    52    49    8.0      1   0.41    232     14      0    357    246      0    0.0  0.000      0      0  0.000  0.000  0.000  0.023   3.67   0.00   0.00      0      0    176.6   0.00   0.00   0.38   1.04   2.02   2.30   0.30   0.00   0.00   0.00   0.00   0.00   0.00      0      0      0       0      11
 1988 280    53    50    9.0      1   0.44    254     14      0    421    268      0    0.0  0.000      0      0  0.000  0.000  0.000  0.000   3.61   0.00   0.00      0      0    174.9   0.00   0.00   0.39   1.18   2.36   2.76   0.42   0.00   0.00   0.00   0.00   0.00   0.00      0      0      0       0      13
 1988 281    54    51    9.0      1   0.49    283     14      0    487    297      0    0.0  0.000      0      0  0.000  0.000  0.000  0.000   3.54   0.00   0.00      0      0    172.8   0.00   0.00   0.41   1.32   2.70   3.21   0.55   0.00   0.00   0.00   0.00   0.00   0.00      0      0      0       0      15
 1988 282    55    52    9.0      2   0.55    300     14      0    553    314      0    0.0  0.000      0      0  0.000  0.000  0.000  0.000   3.68   0.00   0.00      0      0    184.6   0.00   0.00   0.42   1.48   3.03   3.65   0.70   0.00   0.00   0.00   0.00   0.00   0.00      0      0      0       0      17
 1988 283    56    53    9.0      2   0.60    330     14      0    578    344      0    0.0  0.000      0      0  0.000  0.000  0.001  0.000   3.55   0.00   0.00      0      0    182.2   0.00   0.00   0.43   1.53   3.15   3.82   0.77   0.00   0.00   0.00   0.00   0.00   0.00      0      0      0       0      20
 1988 284    57    54    9.0      2   0.65    363     14      0    656    377      0    0.0  0.000      0      0  0.000  0.000  0.000  0.000   3.48   0.00   0.00      0      0    179.9   0.00   0.00   0.44   1.72   3.52   4.00   0.97   0.00   0.00   0.00   0.00   0.00   0.00      0      0      0       0      23
 1988 285    58    55   10.0      2   0.73    410     14      0    722    424      0    0.0  0.000      0      0  0.000  0.000  0.000  0.000   3.78   0.00   0.00      0      0    176.8   0.00   0.00   0.46   1.88   3.83   4.00   1.16   0.00   0.00   0.00   0.00   0.00   0.00      0      0      0       0      26
 1988 286    59    56   10.0      3   0.79    457     14      0    815    471      0    0.0  0.000      0      0  0.000  0.000  0.022  0.000   3.68   0.00   0.00      0      0    172.2   0.00   0.00   0.47   2.09   4.00   4.00   1.41   0.03   0.00   0.00   0.00   0.00   0.00      0      0      0       0      30
 1988 287    60    57   10.0      3   0.83    488     14      0    897    502      0    0.0  0.000      0      0  0.000  0.000  0.022  0.000   3.58   0.00   0.00      0      0    170.0   0.00   0.00   0.48   2.28   4.00   4.00   1.62   0.07   0.00   0.00   0.00   0.00   0.00      0      0      0       0      34
 1988 288    61    58   10.0      3   0.89    533     15      0    974    547      0    0.0  0.000      0      0  0.000  0.000  0.022  0.000   3.55   0.00   0.00      0      0    167.4   0.00   0.00   0.49   2.45   4.00   4.00   1.83   0.12   0.00   0.00   0.00   0.00   0.00      0      0      0       0      38
 1988 289    62    59   11.0      3   0.89    553     15      0   1050    568      0    0.0  0.000      0      0  0.000  0.000  0.022  0.000   3.57   0.00   0.00      0      0    161.0   0.00   0.00   0.49   2.63   4.00   4.00   2.04   0.17   0.00   0.00   0.00   0.00   0.00      0      0      0       0      43
 1988 290    63    60   11.0      3   0.84    575     15      0   1160    590      0    0.0  0.000      0      0  0.000  0.000  0.022  0.000   3.54   0.00   0.00      0      0    146.8   0.00   0.00   0.50   2.88   4.00   4.00   2.34   0.26   0.00   0.00   0.00   0.00   0.00      0      0      0       0      49
 1988 291    64    61   11.0      3   0.87    608     16      0   1248    623      0    0.0  0.000      0      0  0.000  0.000  0.022  0.000   3.51   0.00   0.00      0      0    143.9   0.00   0.00   0.51   3.08   4.00   4.00   2.58   0.35   0.00   0.00   0.00   0.00   0.00      0      0      0       0      54
 1988 292    65    62   11.0      3   0.95    661     17      0   1347    679      0    0.0  0.000      0      0  0.000  0.000  0.022  0.000   3.48   0.00   0.00      0      0    143.0   0.00   0.00   0.52   3.31   4.00   4.00   2.85   0.46   0.00   0.00   0.00   0.00   0.00      0      0      0       0      61
 1988 293    66    63   11.0      3   1.02    716     20      0   1378    736      0    0.0  0.000      0      0  0.000  0.000  0.022  0.000   3.45   0.00   0.00      0      0    142.0   0.00   0.00   0.53   3.31   4.00   4.00   2.93   0.51   0.00   0.00   0.00   0.00   0.00      0      0      0       0      67
 1988 294    67    64   12.0      3   1.10    781     23      0   1495    805      0    0.0  0.000      0      0  0.000  0.000  0.022  0.000   3.42   0.00   0.00      0      0    140.9   0.00   0.00   0.54   3.37   4.00   4.00   3.26   0.69   0.00   0.00   0.00   0.00   0.00      0      0      0       0      74
 1988 295    68    65   12.0      3   1.19    849     28      0   1600    877      0    0.0  0.000      0      0  0.000  0.000  0.022  0.000   3.40   0.00   0.00      0      0    139.7   0.00   0.00   0.55   3.41   4.00   4.00   3.55   0.88   0.00   0.00   0.00   0.00   0.00      0      0      0       0      82
 1988 296    69    66   12.0      3   1.31    948     38      0   1633    986      0    0.0  0.000      0      0  0.000  0.000  0.022  0.000   3.36   0.00   0.00      0      0    138.1   0.00   0.00   0.57   3.42   4.00   4.00   3.64   0.96   0.00   0.00   0.00   0.00   0.00      0      0      0       0      90
 1988 297    70    67   12.0      3   1.41   1034     48      0   1767   1082      0    0.0  0.000      0      0  0.000  0.000  0.022  0.000   3.33   0.00   0.00      0      0    136.7   0.00   0.00   0.58   3.47   4.00   4.00   4.00   1.26   0.00   0.00   0.00   0.00   0.00      0      0      0       0      98
 1988 298    71    68   13.0      3   1.51   1115     60      0   1897   1174      0    0.0  0.000      0      0  0.000  0.000  0.022  0.000   3.30   0.00   0.00      0      0    135.4   0.00   0.00   0.59   3.51   4.00   4.00   4.00   1.61   0.00   0.00   0.00   0.00   0.00      0      0      0       0     107
 1988 299    72    69   13.0      3   1.57   1169     69      0   1952   1238      0    0.0  0.000      0      0  0.000  0.000  0.022  0.000   3.27   0.00   0.00      0      0    134.4   0.00   0.00   0.60   3.51   4.00   4.00   4.00   1.77   0.00   0.00   0.00   0.00   0.00      0      0      0       0     116
 1988 300    73    70   13.0      3   1.61   1205     75      0   2102   1280      0    0.0  0.000      0      0  0.000  0.000  0.022  0.000   3.28   0.00   0.00      0      0    133.7   0.00   0.00   0.61   3.52   4.00   4.00   4.00   2.18   0.01   0.00   0.00   0.00   0.00      0      0      0       0     126
 1988 301    74    71   13.0      3   1.68   1268     88      0   2265   1356      0    0.0  0.000      0      0  0.000  0.000  0.022  0.000   3.24   0.00   0.00      0      0    132.6   0.00   0.00   0.62   3.52   4.00   4.00   4.00   2.64   0.02   0.00   0.00   0.00   0.00      0      0      0       0     136
 1988 302    75    72   13.0      3   1.78   1358    109      0   2419   1467      0    0.0  0.000      0      0  0.000  0.000  0.022  0.000   3.21   0.00   0.00      0      0    131.4   0.00   0.00   0.63   3.52   4.00   4.00   4.00   3.09   0.05   0.00   0.00   0.00   0.00      0      0      0       0     148
 1988 303    76    73   14.0      3   1.92   1482    144      0   2527   1626      0    0.0  0.000      0      0  0.000  0.000  0.022  0.000   3.17   0.00   0.00      0      0    129.8   0.00   0.00   0.64   3.49   4.00   4.00   4.00   3.43   0.09   0.00   0.00   0.00   0.00      0      0      0       0     160
 1988 304    77    74   14.0      3   2.02   1571    173      0   2536   1743      0    0.0  0.000      0      0  0.000  0.000  0.022  0.001   3.14   0.00   0.00      0      0    128.6   0.00   0.00   0.66   3.46   4.00   4.00   4.00   3.46   0.10   0.00   0.00   0.00   0.00      0      0      0       0     173
 1988 305    78    75   14.0      3   2.09   1639    197      0   2685   1836      0    0.0  0.000      0      0  0.000  0.000  0.022  0.048   3.12   0.00   0.00      0      0    127.7   0.00   0.00   0.66   3.46   4.00   4.00   4.00   3.99   0.18   0.00   0.00   0.00   0.00      0      0      0       0     185
 1988 306    79    76   14.0      3   2.15   1694    218      0   2882   1912      0    0.0  0.000      0      0  0.000  0.000  0.022  0.019   3.10   0.00   0.00      0      0    126.9   0.00   0.00   0.67   3.46   4.00   4.00   4.00   4.00   0.32   0.00   0.00   0.00   0.00      0      0      0       0     199
 1988 307    80    77   14.0      3   2.17   1748    240      0   3080   1988      0    0.0  0.000      0      0  0.000  0.000  0.022  0.000   3.08   0.00   0.00      0      0    124.0   0.00   0.00   0.68   3.48   4.00   4.00   4.00   4.00   0.47   0.00   0.00   0.00   0.00      0      0      0       0     213
 1988 308    81    78   15.0      3   2.25   1832    278      0   3255   2110      0    0.0  0.000      0      0  0.000  0.000  0.022  0.000   3.06   0.00   0.00      0      0    123.1   0.00   0.00   0.69   3.50   4.00   4.00   4.00   4.00   0.64   0.00   0.00   0.00   0.00      0      0      0       0     228
 1988 309    82    79   15.0      3   2.35   1927    326      0   3415   2252      0    0.0  0.000      0      0  0.000  0.000  0.022  0.000   3.03   0.00   0.00      0      0    122.1   0.00   0.00   0.70   3.51   4.00   4.00   4.00   4.00   0.83   0.00   0.00   0.00   0.00      0      0      0       0     245
 1988 310    83    80   15.0      3   2.48   2046    393      0   3564   2440      0    0.0  0.000      0      0  0.000  0.000  0.022  0.000   3.00   0.00   0.00      0      0    121.1   0.00   0.00   0.71   3.54   4.00   4.00   4.00   4.00   1.05   0.00   0.00   0.00   0.00      0      0      0       0     262
 1988 311    84    81   16.0      3   2.61   2177    477      0   3703   2653      0    0.0  0.000      0      0  0.000  0.000  0.022  0.000   2.95   0.00   0.00      0      0    119.9   0.00   0.00   0.73   3.56   4.00   4.00   4.00   4.00   1.30   0.00   0.00   0.00   0.00      0      0      0       0     280
 1988 312    85    82   16.0      3   2.75   2319    581      0   3831   2899      0    0.0  0.000      0      0  0.000  0.000  0.022  0.000   2.87   0.00   0.00      0      0    118.8   0.00   0.00   0.75   3.60   4.00   4.00   4.00   4.00   1.58   0.00   0.00   0.00   0.00      0      0      0       0     298
 1988 313    86    83   16.0      3   2.88   2444    682      0   3907   3126      0    0.0  0.000      0      0  0.000  0.000  0.022  0.000   2.80   0.00   0.00      0      0    117.8   0.00   0.00   0.76   3.62   4.00   4.00   4.00   4.00   1.78   0.00   0.00   0.00   0.00      0      0      0       0     317
 1988 314    87    84   17.0      3   2.99   2555    780      0   4056   3335      0    0.0  0.000      0      0  0.000  0.000  0.022  0.000   2.71   0.00   0.00      0      0    116.9   0.00   0.00   0.78   3.69   4.00   4.00   4.00   4.00   2.17   0.00   0.00   0.00   0.00      0      0      0       0     337
 1988 315    88    85   17.0      3   3.07   2641    861      0   4162   3502      0    0.0  0.000      0      0  0.000  0.000  0.022  0.000   2.65   0.00   0.00      0      0    116.2   0.00   0.00   0.79   3.75   4.00   4.00   4.00   4.00   2.49   0.00   0.00   0.00   0.00      0      0      0       0     357
 1988 316    89    86   17.0      3   3.19   2765    989      0   4195   3754      0    0.0  0.000      0      0  0.000  0.000  0.022  0.000   2.53   0.00   0.00      0      0    115.3   0.00   0.00   0.80   3.78   4.00   4.00   4.00   4.00   2.63   0.00   0.00   0.00   0.00      0      0      0       0     378
 1988 317    90    87   18.0      3   3.30   2883   1122      0   4278   4005      0    0.0  0.000      0      0  0.000  0.000  0.023  0.000   2.42   0.00   0.00      0      0    114.4   0.00   0.00   0.81   3.88   4.00   4.00   4.00   4.00   2.93   0.00   0.00   0.00   0.00      0      0      0       0     399
 1988 318    91    88   18.0      3   3.42   3013   1280      0   4400   4293      0    0.0  0.000      0      0  0.000  0.000  0.028  0.052   2.29   0.00   0.00      0      0    113.4   0.00   0.00   0.83   4.00   4.00   4.00   4.00   4.00   3.36   0.00   0.00   0.00   0.00      0      0      0       0     420
[...]
 1992 325    98    95   20.0      3   3.54   3688   2795      0   5075   6482      0    0.0  0.000      0      0  0.000  0.000  0.056  0.000   1.78   0.00   0.00      0      0     95.9   0.00   0.00   0.93   4.00   4.00   4.00   4.00   4.00   2.35   0.42   0.00   0.00   0.00      0      0      0       0     630
 1992 326    99    96   21.0      3   3.55   3726   2903      0   5057   6629      0    0.0  0.000      0      0  0.000  0.000  0.060  0.000   1.75   0.00   0.00      0      0     95.2   0.00   0.00   0.94   4.00   4.00   4.00   3.99   3.99   2.34   0.44   0.00   0.00   0.00      0      0      0       0     656
 1992 327   100    97   21.0      3   3.55   3758   2996      0   5209   6754      0    0.0  0.000      0      0  0.000  0.000  0.066  0.000   1.74   0.00   0.00      0      0     94.4   0.00   0.00   0.95   4.00   4.00   4.00   4.00   4.00   2.49   0.90   0.00   0.00   0.00      0      0      0       0     681
 1992 328   101    98   21.0      3   3.54   3785   3076      0   5336   6860      0    0.0  0.000      0      0  0.000  0.000  0.068  0.000   1.72   0.00   0.00      0      0     93.7   0.00   0.00   0.95   4.00   4.00   4.00   4.00   4.00   2.62   1.26   0.00   0.00   0.00      0      0      0       0     707
 1992 329   102    99   21.0      3   3.56   3835   3222      0   5434   7057      0    0.0  0.000      0      0  0.000  0.000  0.068  0.000   1.68   0.00   0.00      0      0     92.9   0.00   0.00   0.96   4.00   4.00   4.00   4.00   4.00   2.72   1.55   0.00   0.00   0.00      0      0      0       0     734
 1992 330   103   100   21.0      3   3.58   3890   3384      0   5503   7274      0    0.0  0.000      0      0  0.000  0.000  0.068  0.000   1.64   0.00   0.00      0      0     92.1   0.00   0.00   0.97   4.00   4.00   4.00   4.00   4.00   2.80   1.76   0.00   0.00   0.00      0      0      0       0     761
 1992 331   104   101   21.0      3   3.61   3948   3551      0   5539   7499      0    0.0  0.000      0      0  0.000  0.000  0.071  0.000   1.60   0.00   0.00      0      0     91.4   0.00   0.00   0.99   4.00   4.00   4.00   4.00   4.00   2.85   1.87   0.00   0.00   0.00      0      0      0       0     788
 1992 332   105   102   21.0      3   3.63   4004   3716      0   5680   7720      0    0.0  0.000      0      0  0.000  0.000  0.074  0.000   1.57   0.00   0.00      0      0     90.6   0.00   0.00   1.00   4.00   4.00   4.00   4.00   4.00   3.01   2.14   0.00   0.00   0.00      0      0      0       0     816
 1992 333   106   103   21.0      3   3.65   4063   3886      0   5731   7949      0    0.0  0.000      0      0  0.000  0.000  0.077  0.000   1.53   0.00   0.00      0      0     89.8   0.00   0.00   1.01   4.00   4.00   4.00   4.00   4.00   3.08   2.22   0.00   0.00   0.00      0      0      0       0     844
 1992 334   107   104   21.0      3   3.68   4134   4091      0   5747   8225      0    0.0  0.000      0      0  0.000  0.000  0.080  0.000   1.49   0.00   0.00      0      0     89.0   0.00   0.00   1.02   4.00   4.00   4.00   4.00   4.00   3.11   2.24   0.00   0.00   0.00      0      0      0       0     873
 1992 335   108   105   21.0      4   3.64   4092   3483      0   5789   8446      0    0.0  0.000    871      0  0.000  0.000  0.083  0.000   1.62   0.00   0.10      0    871     88.9   0.00   0.00   1.04   4.00   4.00   4.00   4.00   4.00   3.18   2.27   0.00   0.00   0.00      0      0      0       0     902
 1992 336   109   106   21.0      4   3.60   4048   3536      0   5938   8586      0    0.0  0.000   1003      0  0.000  0.000  0.087  0.000   1.63   0.00   0.12      0   1003     88.9   0.00   0.00   1.05   4.00   4.00   4.00   4.00   4.00   3.36   2.38   0.00   0.00   0.00      0      0      0       0     931
 1992 337   110   107   21.0      4   3.57   4001   3582      0   6112   8700      0    0.0  0.000   1117      0  0.000  0.000  0.064  0.000   1.64   0.00   0.13      0   1117     89.3   0.00   0.00   1.06   4.00   4.00   4.00   4.00   4.00   3.57   2.51   0.00   0.00   0.00      0      0      0       0     960
 1992 338   111   108   21.0      4   3.54   3953   3637      0   6231   8845      0    0.0  0.000   1255      0  0.000  0.000  0.060  0.000   1.64   0.00   0.14      0   1255     89.7   0.00   0.00   1.07   4.00   4.00   4.00   4.00   4.00   3.72   2.61   0.00   0.00   0.00      0      0      0       0     991
 1992 339   112   109   21.0      4   3.52   3902   3707      0   6363   9040      0    0.0  0.000   1431      0  0.000  0.000  0.056  0.000   1.65   0.00   0.16      0   1431     90.2   0.00   0.00   1.08   4.00   4.00   4.00   4.00   4.00   3.88   2.73   0.00   0.00   0.00      0      0      0       0    1022
 1992 340   113   110   21.0      4   3.50   3848   3777      0   6387   9230      0    0.0  0.000   1605      0  0.000  0.000  0.053  0.000   1.65   0.00   0.17      0   1605     90.9   0.00   0.00   1.09   4.00   4.00   4.00   4.00   4.00   3.92   2.76   0.02   0.00   0.00      0      0      0       0    1054
 1992 341   114   111   21.0      4   3.47   3791   3865      0   6440   9480      0    0.0  0.000   1825      0  0.000  0.000  0.049  0.000   1.65   0.00   0.19      0   1825     91.7   0.00   0.00   1.10   4.00   4.00   4.00   4.00   4.00   3.99   2.81   0.07   0.00   0.00      0      0      0       0    1086
 1992 342   115   112   21.0      4   3.46   3731   3935      0   6507   9667      0    0.0  0.000   2001      0  0.000  0.000  0.046  0.000   1.65   0.00   0.21      0   2001     92.6   0.00   0.00   1.11   4.00   4.00   4.00   4.00   4.00   4.00   2.87   0.16   0.00   0.00      0      0      0       0    1118
 1992 343   116   113   21.0      4   3.44   3669   4008      0   6588   9861      0    0.0  0.000   2184      0  0.000  0.000  0.043  0.000   1.66   0.00   0.22      0   2184     93.7   0.00   0.00   1.12   4.00   4.00   4.00   4.00   4.00   4.00   2.93   0.28   0.00   0.00      0      0      0       0    1151
 1992 344   117   114   21.0      4   3.42   3604   4083      0   6624  10059      0    0.0  0.000   2372      0  0.000  0.000  0.040  0.000   1.66   0.00   0.24      0   2372     94.9   0.00   0.00   1.13   4.00   4.00   4.00   4.00   4.00   4.00   2.97   0.36   0.00   0.00      0      0      0       0    1184
 1992 345   118   115   21.0      4   3.40   3536   4166      0   6664  10279      0    0.0  0.000   2577      0  0.000  0.000  0.037  0.000   1.67   0.00   0.25      0   2577     96.2   0.00   0.00   1.14   4.00   4.00   4.00   4.00   4.00   4.00   3.01   0.46   0.00   0.00      0      0      0       0    1217
 1992 346   119   116   21.0      4   3.39   3465   4239      0   6725  10466      0    0.0  0.000   2762      0  0.000  0.000  0.035  0.000   1.67   0.00   0.26      0   2762     97.8   0.00   0.00   1.15   4.00   4.00   4.00   4.00   4.00   4.00   3.06   0.58   0.00   0.00      0      0      0       0    1250
 1992 347   120   117   21.0      4   3.37   3392   4309      0   6852  10637      0    0.0  0.000   2937      0  0.000  0.000  0.032  0.000   1.68   0.00   0.28      0   2937     99.5   0.00   0.00   1.16   4.00   4.00   4.00   4.00   4.00   4.00   3.16   0.79   0.00   0.00      0      0      0       0    1284
 1992 348   121   118   21.0      5   3.36   3392   4309    296   6892  10933   3946    7.5  0.027   3233      7  0.000  0.000  0.035  0.000   1.62   9.15   0.30      0   3233     99.1   0.00   0.00   1.17   4.00   4.00   4.00   4.00   4.00   4.00   3.19   0.87   0.00   0.00      0      0      0       0    1318
 1992 349   122   119   21.0      5   3.34   3392   4309    581   6923  11219   3946   14.7  0.052   3518      7  0.000  0.000  0.049  0.000   1.57  16.52   0.31      0   3518     98.5   0.00   0.00   1.18   4.00   4.00   4.00   4.00   4.00   4.00   3.22   0.94   0.00   0.00      0      0      0       0    1352
 1992 350   123   120   21.0      5   3.32   3392   4309    793   6976  11430   3946   20.1  0.069   3729      7  0.000  0.000  0.058  0.000   1.53  21.26   0.33      0   3729     97.7   0.00   0.00   1.18   4.00   4.00   4.00   4.00   4.00   4.00   3.27   1.03   0.00   0.00      0      0      0       0    1387
 1992 351   124   121   21.0      5   3.29   3392   4309   1056   6991  11694   3946   26.8  0.090   3993      7  0.000  0.000  0.062  0.000   1.49  26.45   0.34      0   3993     97.0   0.00   0.00   1.19   4.00   4.00   4.00   4.00   4.00   4.00   3.29   1.07   0.00   0.00      0      0      0       0    1422
 1992 352   125   122   21.0      5   3.26   3392   4309   1352   6971  11990   3946   34.3  0.113   4289      7  0.000  0.000  0.069  0.000   1.44  31.53   0.36      0   4289     96.2   0.00   0.00   1.20   4.00   4.00   4.00   4.00   4.00   4.00   3.29   1.07   0.00   0.00      0      0      0       0    1457
 1992 353   126   123   21.0      5   3.23   3392   4309   1647   6998  12284   3946   41.7  0.134   4584      7  0.000  0.000  0.078  0.000   1.39  35.93   0.37      0   4584     95.2   0.00   0.00   1.21   4.00   4.00   4.00   4.00   4.00   4.00   3.32   1.09   0.00   0.00      0      0      0       0    1492
 1992 354   127   124   21.0      5   3.19   3392   4309   1943   6970  12580   3946   49.2  0.154   4879      7  0.000  0.000  0.086  0.000   1.34  39.82   0.39      0   4879     94.2   0.00   0.00   1.22   4.00   4.00   4.00   3.99   3.99   3.99   3.31   1.09   0.00   0.00      0      0      0       0    1527
 1992 355   128   125   21.0      5   3.16   3392   4309   2239   7003  12876   3946   56.7  0.174   5175      7  0.000  0.000  0.094  0.000   1.29  43.26   0.40      0   5175     93.1   0.00   0.00   1.23   4.00   4.00   4.00   4.00   4.00   4.00   3.34   1.11   0.00   0.00      0      0      0       0    1562
 1992 356   129   126   21.0      5   3.12   3392   4309   2535   7006  13172   3946   64.2  0.192   5471      7  0.000  0.000  0.102  0.000   1.25  46.33   0.42      0   5471     91.9   0.00   0.00   1.25   4.00   4.00   4.00   4.00   4.00   4.00   3.36   1.12   0.00   0.00      0      0      0       0    1597
 1992 357   130   127   21.0      5   3.07   3392   4208   2831   6971  13367   3946   71.7  0.212   5767      7  0.000  0.000  0.111  0.000   1.22  49.08   0.43      0   5767     90.6   0.00   0.00   1.25   4.00   4.00   4.00   4.00   4.00   4.00   3.36   1.12   0.00   0.00      0      0      0       0    1632
 1992 358   131   128   21.0      5   3.03   3392   4105   3126   6936  13559   3946   79.2  0.231   6063      7  0.000  0.000  0.120  0.000   1.19  51.57   0.45      0   6063     89.3   0.00   0.00   1.25   4.00   4.00   4.00   4.00   4.00   4.00   3.36   1.12   0.00   0.00      0      0      0       0    1666
 1992 359   132   129   21.0      5   2.98   3392   4193   3422   6946  13944   3946   86.7  0.245   6359      7  0.000  0.000  0.124  0.000   1.13  53.82   0.46      0   6359     87.9   0.00   0.00   1.25   4.00   4.00   4.00   4.00   4.00   4.00   3.37   1.13   0.00   0.00      0      0      0       0    1701
 1992 360   133   130   21.0      5   2.93   3392   4254   3688   6941  14270   3946   93.5  0.258   6625      7  0.000  0.000  0.129  0.000   1.08  55.67   0.46      0   6625     86.5   0.00   0.00   1.25   4.00   4.00   4.00   4.00   4.00   4.00   3.38   1.13   0.00   0.00      0      0      0       0    1736
 1992 361   134   131   21.0      5   2.88   3392   4309   3931   6976  14569   3946   99.6  0.270   6868      7  0.000  0.000  0.144  0.000   1.04  57.24   0.47      0   6868     84.9   0.00   0.00   1.25   4.00   4.00   4.00   4.00   4.00   4.00   3.41   1.15   0.00   0.00      0      0      0       0    1771
 1992 362   135   132   21.0      5   2.82   3392   4309   4174   7006  14812   3946  105.8  0.282   7111      7  0.000  0.000  0.155  0.000   1.01  58.70   0.48      0   7111     83.3   0.00   0.00   1.25   4.00   4.00   4.00   4.00   4.00   4.00   3.45   1.17   0.00   0.00      0      0      0       0    1805
 1992 363   136   133   21.0      5   2.77   3392   4309   4470   7017  15108   3946  113.3  0.296   7407      7  0.000  0.000  0.165  0.000   0.97  60.35   0.49      0   7407     81.5   0.00   0.00   1.25   4.00   4.00   4.00   4.00   4.00   4.00   3.46   1.19   0.00   0.00      0      0      0       0    1840
 1992 364   137   134   21.0      5   2.70   3392   4156   4766   6982  15251   3946  120.8  0.313   7703      7  0.000  0.000  0.175  0.000   0.96  61.87   0.51      0   7703     79.7   0.00   0.00   1.25   4.00   4.00   4.00   4.00   4.00   4.00   3.46   1.19   0.00   0.00      0      0      0       0    1876
 1992 365   138   135   21.0      5   2.64   3392   4026   5037   6947  15391   3946  127.7  0.327   7973      7  0.000  0.000  0.186  0.000   0.94  63.17   0.52      0   7973     77.9   0.00   0.00   1.25   4.00   4.00   4.00   4.00   4.00   4.00   3.46   1.19   0.00   0.00      0      0      0       0    1910
 1992 366   139   136   21.0      5   2.58   3392   3937   5265   6912  15530   3946  133.4  0.339   8202      7  0.000  0.000  0.188  0.000   0.92  64.20   0.53      0   8202     76.1   0.00   0.00   1.25   4.00   4.00   4.00   4.00   4.00   4.00   3.46   1.19   0.00   0.00      0      0      0       0    1945
 1993 001   140   137   21.0      5   2.52   3392   3830   5511   6878  15669   3946  139.7  0.352   8447      7  0.000  0.000  0.189  0.000   0.90  65.24   0.54      0   8447     74.3   0.00   0.00   1.25   4.00   4.00   4.00   4.00   4.00   4.00   3.46   1.19   0.00   0.00      0      0      0       0    1980
 1993 002   141   138   21.0      5   2.46   3392   3716   5761   6843  15805   3946  146.0  0.365   8698      7  0.000  0.000  0.194  0.237   0.88  66.24   0.55      0   8698     72.5   0.00   0.00   1.25   4.00   4.00   4.00   4.00   4.00   4.00   3.46   1.19   0.00   0.00      0      0      0       0    2014
 1993 003   142   139   21.0      5   2.40   3392   3595   6016   6809  15940   3946  152.5  0.377   8953      7  0.000  0.000  0.199  0.556   0.86  67.20   0.56      0   8953     70.7   0.00   0.00   1.25   4.00   4.00   4.00   4.00   4.00   4.00   3.46   1.19   0.00   0.00      0      0      0       0    2048
 1993 004   143   140   21.0      5   2.34   3392   3515   6312   6775  16156   3946  160.0  0.391   9249      7  0.000  0.000  0.209  0.532   0.83  68.25   0.57      0   9249     68.9   0.00   0.00   1.25   4.00   4.00   4.00   4.00   4.00   4.00   3.46   1.19   0.00   0.00      0      0      0       0    2082
 1993 005   144   141   21.0      5   2.27   3392   3533   6608   6750  16469   3946  167.5  0.401   9544      7  0.000  0.000  0.230  0.264   0.79  69.23   0.58      0   9544     67.1   0.00   0.00   1.25   3.95   3.95   3.95   3.93   3.93   3.93   3.40   1.17   0.00   0.00      0      0      0       0    2116
 1993 006   145   142   21.0      5   2.21   3392   3585   6904   6742  16817   3946  175.0  0.411   9840      7  0.000  0.000  0.257  0.064   0.75  70.16   0.59      0   9840     65.2   0.00   0.00   1.25   4.00   4.00   4.00   3.95   3.95   3.94   3.41   1.17   0.00   0.00      0      0      0       0    2150
 1993 007   146   143   21.0      5   2.15   3392   3446   7200   6708  16974   3946  182.5  0.424  10136      7  0.000  0.000  0.299  0.029   0.73  71.03   0.60      0  10136     63.3   0.00   0.00   1.25   4.00   4.00   4.00   3.95   3.95   3.94   3.41   1.17   0.00   0.00      0      0      0       0    2184
 1993 008   147   144   21.0      5   2.08   3392   3383   7496   6675  17207   3946  190.0  0.436  10432      7  0.000  0.000  0.349  0.203   0.71  71.85   0.61      0  10432     61.3   0.00   0.00   1.25   4.00   4.00   4.00   3.95   3.95   3.94   3.41   1.17   0.00   0.00      0      0      0       0    2217
 1993 009   148   145   21.0      5   2.01   3392   3418   7766   6659  17513   3946  196.8  0.443  10703      7  0.000  0.000  0.365  0.096   0.68  72.56   0.61      0  10703     59.4   0.00   0.00   1.25   4.00   4.00   4.00   3.96   3.95   3.94   3.40   1.17   0.00   0.00      0      0      0       0    2251
 1993 010   149   146   21.0      5   1.95   3392   3432   8062   6633  17823   3946  204.3  0.452  10999      7  0.000  0.000  0.393  0.034   0.65  73.30   0.62      0  10999     57.4   0.00   0.00   1.25   4.00   4.00   4.00   3.95   3.94   3.92   3.39   1.17   0.00   0.00      0      0      0       0    2284
 1993 011   150   147   21.0      5   1.88   3392   3436   8358   6602  18122   3946  211.8  0.461  11295      7  0.000  0.000  0.433  0.000   0.62  74.00   0.62      0  11295     55.4   0.00   0.00   1.25   3.98   3.98   3.98   3.93   3.92   3.91   3.38   1.16   0.00   0.00      0      0      0       0    2317
 1993 012   151   148   21.0      5   1.81   3392   3417   8654   6569  18399   3946  219.3  0.470  11591      7  0.000  0.000  0.469  0.000   0.61  74.66   0.63      0  11591     53.4   0.00   0.00   1.25   3.98   3.98   3.98   3.93   3.92   3.91   3.38   1.16   0.00   0.00      0      0      0       0    2350
 1993 013   152   149   21.0      5   1.74   3392   3310   8950   6536  18588   3946  226.8  0.481  11887      7  0.000  0.000  0.498  0.000   0.59  75.29   0.64      0  11887     51.4   0.00   0.00   1.25   3.98   3.98   3.98   3.93   3.92   3.91   3.38   1.16   0.00   0.00      0      0      0       0    2383
 1993 014   153   150   21.0      5   1.68   3392   3148   9246   6503  18722   3946  234.3  0.494  12183      7  0.000  0.000  0.527  0.000   0.59  75.89   0.65      0  12183     49.4   0.00   0.00   1.25   3.98   3.98   3.98   3.93   3.92   3.91   3.38   1.16   0.00   0.00      0      0      0       0    2416
 1993 015   154   151   21.0      5   1.61   3392   3071   9542   6471  18941   3946  241.8  0.504  12478      7  0.000  0.000  0.534  0.000   0.58  76.47   0.66      0  12478     47.5   0.00   0.00   1.25   3.98   3.98   3.98   3.93   3.92   3.91   3.38   1.16   0.00   0.00      0      0      0       0    2448
 1993 016   155   152   21.0      5   1.55   3392   2921   9838   6438  19087   3946  249.3  0.515  12774      7  0.000  0.000  0.532  0.000   0.57  77.01   0.67      0  12774     45.7   0.00   0.00   1.25   3.98   3.98   3.98   3.93   3.92   3.91   3.38   1.16   0.00   0.00      0      0      0       0    2480
 1993 017   156   153   21.0      5   1.49   3392   2897  10014   6406  19239   3946  253.8  0.521  12951      7  0.000  0.000  0.553  0.056   0.57  77.32   0.67      0  12951     43.9   0.00   0.00   1.25   3.98   3.98   3.98   3.93   3.92   3.91   3.38   1.16   0.00   0.00      0      0      0       0    2513
 1993 018   157   154   21.0      5   1.43   3392   2897  10208   6374  19433   3946  258.7  0.525  13145      7  0.000  0.000  0.535  0.005   0.56  77.66   0.68      0  13145     42.2   0.00   0.00   1.25   3.98   3.98   3.98   3.93   3.92   3.91   3.38   1.16   0.00   0.00      0      0      0       0    2545
 1993 019   158   155   21.0      5   1.43   3392   2897  10208   6374  19433   3946  258.7  0.525  13145      7  0.000  0.000  0.535  0.005   0.56  77.66   0.68      0  13145     42.2   0.00   0.00   1.25   3.98   3.98   3.98   3.93   3.92   3.91   3.38   1.16   0.00   0.00      0      0      0       0    2545
 1993 020   159   156   21.0      5   1.43   3392   2897  10208   6374  19433   3946  258.7  0.525  13145      7  0.000  0.000  0.535  0.005   0.56  77.66   0.68      0  13145     42.2   0.00   0.00   1.25   3.98   3.98   3.98   3.93   3.92   3.91   3.38   1.16   0.00   0.00      0      0      0       0    2545
 1993 021   160   157   21.0      5   1.43   3392   2897  10208   6374  19433   3946  258.7  0.525  13145      7  0.000  0.000  0.535  0.005   0.56  77.66   0.68      0  13145     42.2   0.00   0.00   1.25   3.98   3.98   3.98   3.93   3.92   3.91   3.38   1.16   0.00   0.00      0      0      0       0    2545
