*WATER BALANCE OUTPUT FILE

*DSSAT Cropping System Model Ver. 4.0.2.000               Aug 03, 2016; 15:38:15

*RUN   1        : UYMZ                    
 MODEL          : MZCER040 - Maize           
 EXPERIMENT     : UYMZ0131 MZ    late to create DSS                             
 TREATMENT  1   : UYMZ                    


     WATER BALANCE PARAMETERS
     ========================                  --mm--

     Soil H20 (start) on Year/day 1987/227     490.84
     Soil H20 (final) on Year/day 1988/026     546.27
     Effective Irrigation                       67.16
     Precipitation                             907.30
     Drainage                                  262.00
     Runoff                                     62.53
     Soil Evaporation                          153.79
     Transpiration                             440.72
     Potential ET                              710.70

     Final Balance                             0.0002


*DSSAT Cropping System Model Ver. 4.0.2.000               Aug 03, 2016; 15:38:15

*RUN   2        : UYMZ                    
 MODEL          : MZCER040 - Maize           
 EXPERIMENT     : UYMZ0131 MZ    late to create DSS                             
 TREATMENT  1   : UYMZ                    


     WATER BALANCE PARAMETERS
     ========================                  --mm--

     Soil H20 (start) on Year/day 1988/227     490.84
     Soil H20 (final) on Year/day 1989/018     472.58
     Effective Irrigation                      356.93
     Precipitation                             366.30
     Drainage                                   70.12
     Runoff                                      0.73
     Soil Evaporation                          180.54
     Transpiration                             490.10
     Potential ET                              770.09

     Final Balance                             0.0001


*DSSAT Cropping System Model Ver. 4.0.2.000               Aug 03, 2016; 15:38:15

*RUN   3        : UYMZ                    
 MODEL          : MZCER040 - Maize           
 EXPERIMENT     : UYMZ0131 MZ    late to create DSS                             
 TREATMENT  1   : UYMZ                    


     WATER BALANCE PARAMETERS
     ========================                  --mm--

     Soil H20 (start) on Year/day 1989/227     490.84
     Soil H20 (final) on Year/day 1990/020     453.35
     Effective Irrigation                      265.44
     Precipitation                             469.00
     Drainage                                  115.20
     Runoff                                     20.07
     Soil Evaporation                          173.54
     Transpiration                             463.13
     Potential ET                              747.91

     Final Balance                             0.0001


*DSSAT Cropping System Model Ver. 4.0.2.000               Aug 03, 2016; 15:38:15

*RUN   4        : UYMZ                    
 MODEL          : MZCER040 - Maize           
 EXPERIMENT     : UYMZ0131 MZ    late to create DSS                             
 TREATMENT  1   : UYMZ                    


     WATER BALANCE PARAMETERS
     ========================                  --mm--

     Soil H20 (start) on Year/day 1990/227     490.84
     Soil H20 (final) on Year/day 1991/024     511.24
     Effective Irrigation                      120.59
     Precipitation                             749.80
     Drainage                                  212.74
     Runoff                                      6.21
     Soil Evaporation                          173.50
     Transpiration                             457.54
     Potential ET                              717.41

     Final Balance                             0.0002


*DSSAT Cropping System Model Ver. 4.0.2.000               Aug 03, 2016; 15:38:15

*RUN   5        : UYMZ                    
 MODEL          : MZCER040 - Maize           
 EXPERIMENT     : UYMZ0131 MZ    late to create DSS                             
 TREATMENT  1   : UYMZ                    


     WATER BALANCE PARAMETERS
     ========================                  --mm--

     Soil H20 (start) on Year/day 1991/227     490.84
     Soil H20 (final) on Year/day 1992/018     488.76
     Effective Irrigation                      165.27
     Precipitation                             626.30
     Drainage                                  199.20
     Runoff                                     18.55
     Soil Evaporation                          151.04
     Transpiration                             424.86
     Potential ET                              648.32

     Final Balance                             0.0001


*DSSAT Cropping System Model Ver. 4.0.2.000               Aug 03, 2016; 15:38:15

*RUN   6        : UYMZ                    
 MODEL          : MZCER040 - Maize           
 EXPERIMENT     : UYMZ0131 MZ    late to create DSS                             
 TREATMENT  1   : UYMZ                    


     WATER BALANCE PARAMETERS
     ========================                  --mm--

     Soil H20 (start) on Year/day 1992/227     490.84
     Soil H20 (final) on Year/day 1993/021     533.80
     Effective Irrigation                      196.16
     Precipitation                             532.30
     Drainage                                   51.16
     Runoff                                     17.17
     Soil Evaporation                          173.80
     Transpiration                             443.37
     Potential ET                              720.48

     Final Balance                             0.0000

