*SOIL NITROGEN DAILY OUTPUT FILE

*DSSAT Cropping System Model Ver. 4.0.2.000               Aug 03, 2016; 15:38:15

*RUN   1        : UYMZ                    
 MODEL          : MZCER040 - Maize           
 EXPERIMENT     : UYMZ0131 MZ    late to create DSS                             
 TREATMENT  1   : UYMZ                    

@YEAR DOY   DAS  NAPC  NI#M    NLCC   NIAD    NOAD   NITD   NHTD  NI1D  NI2D  NI3D  NI4D  NI5D  NI6D  NI7D  NI8D  NI9D  NI10  NH1D  NH2D  NH3D  NH4D  NH5D  NH6D  NH7D  NH8D  NH9D  NH10    NMNC    NITC    NDNC    NIMC    AMLC
 1987 227     0     0     0     0.0   99.3   16645   76.6   22.7  15.7  15.5  15.1   8.6   4.6   0.0   0.1   0.1   0.0   0.0   0.5   1.3   1.5   1.4   1.4  1.50  1.46  1.45  0.00  0.00    0.56    1.80    0.00    0.00    0.00
 1987 228     1     0     0     0.0   99.9   16645   77.9   22.0  15.4  16.1  15.3   8.7   4.6   0.0   0.1   0.1   0.0   0.0   0.2   1.2   1.4   1.4   1.4  1.51  1.43  1.41  0.00  0.00    1.11    3.07    0.00    0.00    0.00
 1987 229     2     0     0     0.0  100.4   16644   78.9   21.5  15.4  16.3  15.4   8.8   4.7   0.1   0.1   0.2   0.0   0.0   0.2   1.1   1.4   1.3   1.4  1.51  1.40  1.37  0.00  0.00    1.64    4.14    0.00    0.00    0.00
 1987 230     3     0     0     0.0  100.9   16644   79.9   21.0   6.4  15.6  19.1   8.8   4.8   0.1   0.2   0.2   0.0   0.0   0.1   1.0   1.4   1.3   1.3  1.51  1.37  1.33  0.00  0.00    2.11    5.07    0.00    0.00    0.00
 1987 231     4     1     1     0.0  102.3   16644   81.1   21.2   7.3  15.1  19.5   9.0   4.8   0.1   0.2   0.2   0.0   0.0   1.0   1.0   1.4   1.3   1.3  1.51  1.34  1.29  0.00  0.00    2.53    5.75    0.00    0.00    0.04
 1987 232     5     3     2     0.0  104.5   16643   82.9   21.6   9.6  14.9  19.6   9.1   4.9   0.1   0.3   0.3   0.0   0.0   2.2   1.0   1.4   1.2   1.2  1.52  1.31  1.25  0.00  0.00    2.91    6.63    0.00    0.00    0.13
 1987 233     6     3     2     0.0  104.8   16643   84.2   20.7  10.5  15.0  19.6   9.3   4.9   0.1   0.3   0.3   0.0   0.0   1.3   1.0   1.3   1.2   1.2  1.52  1.28  1.21  0.00  0.00    3.26    7.84    0.00    0.00    0.19
 1987 234     7     3     2     0.0  105.1   16642   85.1   20.0  11.0  15.1  19.7   9.4   4.9   0.1   0.3   0.4   0.0   0.0   0.7   0.9   1.3   1.2   1.2  1.52  1.26  1.18  0.00  0.00    3.61    8.80    0.00    0.00    0.23
 1987 235     8     3     2     0.0  105.4   16642   86.0   19.4  11.4  15.2  19.7   9.5   5.0   0.2   0.4   0.4   0.0   0.0   0.2   0.9   1.3   1.1   1.2  1.52  1.23  1.15  0.00  0.00    4.00    9.68    0.00    0.00    0.34
 1987 236     9     3     2     0.0  105.8   16642   86.8   19.0  11.6  15.2  19.7   9.7   5.0   0.2   0.4   0.4   0.0   0.0   0.1   0.8   1.3   1.1   1.1  1.53  1.20  1.11  0.00  0.00    4.43   10.47    0.00    0.00    0.40
 1987 237    10     3     2     0.0  106.2   16641   87.6   18.7  11.7  15.3  19.7   9.8   5.1   0.2   0.4   0.5   0.0   0.0   0.0   0.8   1.3   1.1   1.1  1.53  1.18  1.08  0.00  0.00    4.90   11.24    0.00    0.00    0.44
 1987 238    11     3     2     0.0  106.7   16641   88.3   18.4  11.9  15.4  19.8   9.9   5.1   0.2   0.5   0.5   0.0   0.0   0.1   0.7   1.3   1.0   1.1  1.53  1.15  1.05  0.00  0.00    5.42   12.03    0.00    0.00    0.44
 1987 239    12     3     2     0.0  107.3   16640   89.2   18.1  12.1  15.4  19.8  10.0   5.2   0.2   0.5   0.5   0.0   0.0   0.1   0.7   1.3   1.0   1.0  1.53  1.13  1.02  0.00  0.00    5.99   12.87    0.00    0.00    0.46
 1987 240    13     3     2     0.0  107.9   16639   90.0   17.8   5.3  13.5  21.5  11.9   5.2   0.2   0.6   0.6   0.0   0.0   0.1   0.6   1.2   1.0   1.0  1.54  1.11  0.99  0.00  0.00    6.57   13.71    0.00    0.00    0.48
 1987 241    14     3     2     0.0  108.4   16639   90.5   17.9   2.3   9.3  17.9  13.2   8.6   1.1   0.6   0.6   0.0   0.0   0.1   0.7   1.3   1.0   1.0  1.54  1.08  0.96  0.00  0.00    7.14   14.22    0.00    0.00    0.50
 1987 242    15     3     2     0.2  108.7   16638   90.4   18.3   2.4   9.1  17.5  12.8   8.6   1.4   0.7   0.6   0.0   0.0   0.2   0.8   1.4   1.0   1.0  1.55  1.09  0.95  0.00  0.00    7.69   14.37    0.00    0.00    0.50
 1987 243    16     3     2     0.4  109.1   16638   90.5   18.5   2.6   9.0  17.3  12.6   8.6   1.6   0.8   0.7   0.0   0.0   0.1   0.9   1.5   1.0   1.0  1.57  1.09  0.95  0.00  0.00    8.20   14.61    0.00    0.00    0.50
 1987 244    17     3     2     0.5  109.5   16637   90.8   18.7   2.9   9.0  17.2  12.5   8.6   1.7   0.8   0.7   0.0   0.0   0.1   0.8   1.5   1.0   1.0  1.58  1.09  0.94  0.00  0.00    8.68   14.96    0.00    0.00    0.51
 1987 245    18     3     2     0.5  109.9   16637   91.2   18.6   3.2   9.0  17.3  12.4   8.6   1.7   0.8   0.7   0.0   0.0   0.1   0.8   1.5   1.0   1.1  1.60  1.09  0.93  0.00  0.00    9.13   15.41    0.00    0.00    0.51
 1987 246    19     3     2     0.5  110.1   16636   91.4   18.6   3.5   8.9  17.4  12.4   8.5   1.7   0.8   0.7   0.0   0.0   0.1   0.7   1.5   1.0   1.1  1.61  1.09  0.92  0.00  0.00    9.56   15.85    0.02    0.00    0.52
 1987 247    20     3     2     0.5  110.5   16636   91.9   18.6   3.8   9.0  17.5  12.4   8.6   1.8   0.9   0.7   0.0   0.0   0.1   0.7   1.4   1.1   1.1  1.62  1.09  0.92  0.00  0.00   10.01   16.29    0.04    0.00    0.52
 1987 248    21     3     2     0.5  111.0   16636   92.3   18.7   4.0   9.0  17.5  12.4   8.6   1.8   0.9   0.7   0.0   0.0   0.1   0.7   1.4   1.1   1.1  1.64  1.09  0.91  0.00  0.00   10.47   16.73    0.05    0.00    0.52
 1987 249    22     3     2     0.5  111.4   16635   92.8   18.6   4.3   9.1  17.6  12.5   8.6   1.8   0.9   0.7   0.0   0.0   0.1   0.6   1.4   1.0   1.1  1.65  1.09  0.90  0.00  0.00   10.93   17.24    0.06    0.00    0.52
 1987 250    23     3     2     0.5  111.8   16635   93.3   18.6   4.5   9.1  17.6  12.5   8.6   1.8   0.9   0.7   0.0   0.0   0.1   0.6   1.4   1.0   1.1  1.66  1.09  0.90  0.00  0.00   11.38   17.74    0.06    0.00    0.53
 1987 251    24     3     2     0.5  112.3   16634   93.8   18.5   4.8   9.2  17.7  12.6   8.6   1.8   0.9   0.7   0.0   0.0   0.1   0.6   1.4   1.0   1.1  1.68  1.09  0.89  0.00  0.00   11.84   18.24    0.07    0.00    0.53
 1987 252    25    25     3     0.5  134.7   16634  105.3   29.4  24.9   9.3  17.7  12.6   8.6   1.8   0.9   0.8   0.0   0.0  19.8   0.6   1.3   1.0   1.1  1.69  1.09  0.88  0.00  0.00   12.32   18.74    0.08    0.00    0.56
 1987 253    26    25     3     0.5  135.2   16633  113.0   22.2  38.1   9.3  17.8  12.7   8.6   1.8   0.9   0.8   0.0   0.0   6.8   0.6   1.3   0.9   1.1  1.71  1.09  0.88  0.00  0.00   12.82   26.46    0.09    0.00    0.59
 1987 254    27    25     3     0.5  135.7   16633  116.1   19.6  42.9   9.4  17.9  12.7   8.7   1.8   0.9   0.8   0.0   0.0   2.2   0.6   1.3   0.9   1.2  1.72  1.09  0.87  0.00  0.00   13.33   29.52    0.09    0.00    0.62
 1987 255    28    25     3     0.5  136.2   16632  117.4   18.7  44.6   9.5  18.0  12.8   8.7   1.8   0.9   0.8   0.0   0.0   0.7   0.5   1.3   0.9   1.2  1.73  1.09  0.87  0.00  0.00   13.86   30.87    0.10    0.00    0.65
 1987 256    29    25     3     0.5  136.6   16632  118.1   18.5  45.2   9.6  18.0  12.8   8.7   1.8   0.9   0.8   0.0   0.0   0.2   0.5   1.3   0.9   1.2  1.75  1.09  0.86  0.00  0.00   14.39   31.63    0.10    0.00    0.67
 1987 257    30    25     3     0.5  137.2   16631  118.7   18.4  45.5   9.7  18.1  12.8   8.7   1.8   1.0   0.8   0.0   0.0   0.1   0.5   1.3   0.9   1.2  1.76  1.09  0.85  0.00  0.00   14.94   32.22    0.11    0.00    0.70
 1987 258    31    25     3     0.6  137.6   16631  119.2   18.3  15.3  15.4  17.4  14.0  10.7   3.1   1.3   0.9   0.0   0.0   0.1   0.5   1.3   0.8   1.1  1.77  1.09  0.85  0.00  0.00   15.49   32.84    0.11    0.00    0.72
 1987 259    32    25     3     1.0  137.6   16630  118.9   18.7  15.3  15.1  17.1  13.6  10.6   3.3   1.5   1.0   0.0   0.0   0.0   0.6   1.3   0.9   1.2  1.79  1.10  0.84  0.00  0.00   16.02   32.98    0.17    0.00    0.76
 1987 260    33    25     3     1.3  137.7   16630  118.7   19.0  15.5  14.9  16.9  13.4  10.5   3.4   1.6   1.0   0.0   0.0   0.1   0.7   1.4   0.9   1.2  1.81  1.10  0.84  0.00  0.00   16.54   33.15    0.20    0.00    0.77
 1987 261    34    25     3     1.4  138.0   16629  118.8   19.2  16.0  14.8  16.9  13.3  10.4   3.4   1.6   1.0   0.0   0.0   0.1   0.6   1.5   0.9   1.2  1.82  1.10  0.84  0.00  0.00   17.04   33.46    0.22    0.00    0.79
 1987 262    35    25     3     1.5  138.4   16629  119.2   19.2  16.5  14.7  16.9  13.2  10.4   3.4   1.7   1.1   0.0   0.0   0.1   0.6   1.4   0.9   1.2  1.83  1.10  0.83  0.00  0.00   17.51   33.89    0.24    0.00    0.79
 1987 263    36    25     3     1.6  138.7   16628  119.4   19.3  16.9  14.6  17.0  13.2  10.4   3.5   1.7   1.1   0.0   0.0   0.1   0.6   1.4   0.9   1.2  1.85  1.10  0.82  0.00  0.00   17.96   34.30    0.27    0.00    0.79
 1987 264    37    25     3     1.6  139.1   16628  119.8   19.3  17.4  14.5  17.1  13.2  10.4   3.5   1.7   1.1   0.0   0.0   0.1   0.6   1.4   1.0   1.2  1.86  1.10  0.82  0.00  0.00   18.40   34.72    0.28    0.00    0.79
 1987 265    38    25     3     1.6  139.5   16627  120.2   19.3  17.8  14.5  17.1  13.2  10.4   3.5   1.7   1.1   0.0   0.0   0.1   0.6   1.4   1.0   1.2  1.87  1.10  0.81  0.00  0.00   18.85   35.13    0.29    0.00    0.80
 1987 266    39    25     3     1.6  139.9   16627  120.6   19.3  18.1  14.5  17.2  13.2  10.4   3.5   1.7   1.1   0.0   0.0   0.1   0.6   1.4   0.9   1.2  1.88  1.10  0.81  0.00  0.00   19.29   35.60    0.30    0.00    0.80
 1987 267    40    25     3     1.6  140.4   16626  121.1   19.3  18.5  14.5  17.2  13.3  10.4   3.5   1.7   1.1   0.0   0.0   0.1   0.5   1.3   0.9   1.3  1.89  1.10  0.80  0.00  0.00   19.73   36.07    0.31    0.00    0.80
 1987 268    41    25     3     1.6  140.8   16626  121.5   19.2  18.8  14.5  17.3  13.3  10.5   3.5   1.7   1.1   0.0   0.0   0.1   0.5   1.3   0.9   1.3  1.91  1.10  0.80  0.00  0.00   20.20   36.55    0.32    0.00    0.80
 1987 269    42    25     3     1.6  141.1   16625  121.9   19.2  19.1  14.4  17.3  13.4  10.5   3.5   1.7   1.1   0.0   0.0   0.1   0.5   1.3   0.9   1.3  1.92  1.10  0.79  0.00  0.00   20.70   37.06    0.33    0.00    0.81
 1987 270    43    25     3     1.6  141.4   16625  122.2   19.2  19.3  14.4  17.3  13.4  10.5   3.5   1.8   1.1   0.0   0.0   0.1   0.5   1.3   0.9   1.3  1.93  1.10  0.79  0.00  0.00   21.25   37.62    0.34    0.00    0.81
 1987 271    44    25     3     1.6  141.5   16624  122.3   19.2  19.5  14.3  17.3  13.5  10.5   3.5   1.8   1.1   0.0   0.0   0.1   0.5   1.3   0.8   1.3  1.95  1.10  0.78  0.00  0.00   21.84   38.21    0.35    0.00    0.81
 1987 272    45    25     3     1.6  141.7   16624  122.5   19.2  19.6  14.2  17.3  13.5  10.5   3.5   1.8   1.2   0.0   0.0   0.1   0.5   1.3   0.8   1.3  1.96  1.10  0.77  0.00  0.00   22.45   38.81    0.36    0.00    0.82
 1987 273    46    25     3     1.6  142.0   16623  122.8   19.2  14.5  16.4  17.5  13.6  10.6   3.5   1.8   1.2   0.0   0.0   0.1   0.5   1.2   0.8   1.3  1.97  1.10  0.77  0.00  0.00   23.08   39.43    0.37    0.00    0.82
 1987 274    47    25     3     1.6  142.3   16622  122.9   19.3  14.4  16.1  17.8  13.6  10.6   3.5   1.8   1.2   0.0   0.0   0.2   0.6   1.2   0.8   1.3  1.99  1.10  0.76  0.00  0.00   23.68   39.88    0.37    0.00    0.84
 1987 275    48    25     3     1.6  142.1   16622  122.8   19.3  14.4  15.9  17.7  13.6  10.7   3.5   1.8   1.2   0.0   0.0   0.1   0.7   1.2   0.8   1.3  2.00  1.10  0.76  0.00  0.00   24.26   40.47    0.38    0.00    0.88
 1987 276    49    25     3     1.6  142.1   16621  122.9   19.2  14.4  15.8  17.6  13.7  10.7   3.5   1.8   1.2   0.0   0.0   0.1   0.6   1.2   0.8   1.2  2.01  1.10  0.75  0.00  0.00   24.83   41.11    0.38    0.00    0.90
 1987 277    50    25     3     1.6  142.3   16621  123.3   19.1  14.6  15.8  17.6  13.7  10.8   3.5   1.8   1.2   0.0   0.0   0.1   0.6   1.2   0.8   1.2  2.03  1.10  0.75  0.00  0.00   25.38   41.74    0.39    0.00    0.92
 1987 278    51    25     3     1.6  142.2   16620  123.3   19.0  14.8  15.7  17.5  13.8  10.9   3.5   1.8   1.2   0.0   0.0   0.1   0.6   1.2   0.7   1.2  2.04  1.10  0.74  0.00  0.00   25.93   42.35    0.39    0.00    0.93
 1987 279    52    25     3     1.6  141.9   16620  123.1   18.9  14.8  15.5  17.3  13.8  10.9   3.5   1.8   1.2   0.0   0.0   0.1   0.6   1.2   0.7   1.1  2.05  1.10  0.74  0.00  0.00   26.51   42.98    0.40    0.00    0.95
 1987 280    53    25     3     1.6  141.8   16619  123.0   18.8  14.9  15.3  17.2  13.8  11.0   3.5   1.9   1.2   0.0   0.0   0.1   0.6   1.1   0.7   1.1  2.07  1.10  0.73  0.00  0.00   27.11   43.63    0.40    0.00    0.97
 1987 281    54    25     3     1.6  141.8   16618  123.1   18.7  15.1  15.2  17.1  13.9  11.0   3.6   1.9   1.2   0.0   0.0   0.1   0.5   1.1   0.7   1.1  2.08  1.10  0.73  0.00  0.00   27.73   44.28    0.41    0.00    0.99
 1987 282    55    25     3     1.6  141.3   16618  122.6   18.7  15.0  15.0  16.8  13.9  11.1   3.6   1.9   1.2   0.0   0.0   0.1   0.5   1.1   0.7   1.0  2.09  1.10  0.73  0.00  0.00   28.36   44.93    0.41    0.00    1.01
 1987 283    56    25     3     1.6  140.5   16617  121.9   18.6  14.9  14.7  16.5  13.9  11.2   3.6   1.9   1.3   0.0   0.0   0.1   0.5   1.1   0.7   1.0  2.10  1.10  0.72  0.00  0.00   28.97   45.56    0.42    0.00    1.03
 1987 284    57    25     3     1.6  140.3   16616  121.7   18.5   8.3  14.9  18.0  14.2  11.2   3.6   1.9   1.3   0.0   0.0   0.1   0.5   1.1   0.7   1.0  2.12  1.10  0.72  0.00  0.00   29.61   46.22    0.42    0.00    1.05
 1987 285    58    25     3     1.6  139.2   16616  120.5   18.8   5.9  13.6  17.5  14.9  11.7   3.6   1.9   1.3   0.0   0.0   0.1   0.6   1.2   0.7   1.0  2.13  1.10  0.71  0.00  0.00   30.25   46.60    0.43    0.00    1.07
 1987 286    59    25     3     1.7  137.5   16615  118.4   19.1   5.6  12.9  16.7  14.3  11.7   3.8   2.0   1.3   0.0   0.0   0.1   0.7   1.3   0.7   1.0  2.14  1.10  0.71  0.00  0.00   30.91   46.83    0.43    0.00    1.09
 1987 287    60    25     3     1.8  136.2   16614  116.9   19.3   5.8  12.4  16.2  14.0  11.7   3.9   2.1   1.3   0.0   0.0   0.1   0.6   1.3   0.7   1.0  2.16  1.10  0.70  0.00  0.00   31.55   47.24    0.44    0.00    1.11
 1987 288    61    25     3     1.8  136.2   16614  116.9   19.3   4.7  12.2  16.4  14.0  11.8   4.0   2.1   1.4   0.0   0.0   0.1   0.6   1.3   0.8   1.0  2.17  1.11  0.70  0.00  0.00   32.17   47.79    0.45    0.00    1.13
 1987 289    62    25     3     2.0  135.9   16613  116.3   19.6   4.6  11.9  16.0  13.7  11.8   4.1   2.2   1.4   0.0   0.0   0.1   0.7   1.4   0.8   1.0  2.18  1.11  0.69  0.00  0.00   32.73   47.98    0.45    0.00    1.15
 1987 290    63    25     3     2.0  135.6   16613  115.7   19.9   4.7  11.7  15.8  13.6  11.8   4.2   2.2   1.4   0.0   0.0   0.1   0.8   1.4   0.8   1.0  2.20  1.11  0.69  0.00  0.00   33.27   48.23    0.49    0.00    1.18
 1987 291    64    25     3     2.0  134.0   16612  114.1   19.8   4.8  11.2  15.3  13.4  11.8   4.2   2.2   1.4   0.0   0.0   0.1   0.7   1.4   0.8   1.0  2.21  1.11  0.69  0.00  0.00   33.80   48.72    0.51    0.00    1.20
 1987 292    65    25     3     2.0  130.9   16612  111.2   19.6   4.8  10.5  14.3  13.1  11.8   4.2   2.2   1.4   0.0   0.0   0.1   0.7   1.3   0.8   1.1  2.22  1.11  0.68  0.00  0.00   34.34   49.28    0.52    0.00    1.22
 1987 293    66    25     3     2.0  129.8   16611  110.3   19.6   4.9  10.3  13.9  13.0  11.8   4.2   2.2   1.4   0.0   0.0   0.1   0.6   1.2   0.8   1.1  2.23  1.11  0.68  0.00  0.00   34.90   49.83    0.54    0.00    1.23
 1987 294    67    25     3     2.0  127.8   16611  108.3   19.5   4.9   9.8  13.3  12.7  11.8   4.2   2.2   1.4   0.0   0.0   0.1   0.6   1.2   0.7   1.1  2.24  1.11  0.67  0.00  0.00   35.49   50.41    0.55    0.00    1.25
 1987 295    68    25     3     2.0  125.6   16610  106.2   19.4   4.8   9.4  12.6  12.5  11.8   4.2   2.2   1.4   0.0   0.0   0.1   0.6   1.1   0.7   1.1  2.26  1.11  0.67  0.00  0.00   36.11   51.01    0.56    0.00    1.27
 1987 296    69    25     3     2.0  123.6   16609  104.3   19.3   4.8   9.0  12.0  12.3  11.7   4.2   2.2   1.5   0.0   0.0   0.1   0.5   1.1   0.7   1.1  2.27  1.11  0.67  0.00  0.00   36.74   51.61    0.57    0.00    1.28
 1987 297    70    25     3     2.0  120.6   16609  101.4   19.2   4.6   8.4  11.2  12.0  11.6   4.2   2.3   1.5   0.0   0.0   0.1   0.5   1.1   0.7   1.1  2.28  1.11  0.66  0.00  0.00   37.38   52.32    0.58    0.00    1.30
 1987 298    71    25     3     2.0  118.0   16608   99.0   19.0   4.5   8.0  10.6  11.7  11.5   4.2   2.3   1.5   0.0   0.0   0.1   0.5   1.0   0.7   1.0  2.30  1.11  0.66  0.00  0.00   38.04   53.03    0.59    0.00    1.32
 1987 299    72    25     3     2.0  116.1   16607   97.2   18.9   4.4   7.7  10.1  11.5  11.3   4.2   2.3   1.5   0.0   0.0   0.1   0.4   1.0   0.7   1.0  2.31  1.11  0.65  0.00  0.00   38.68   53.71    0.60    0.00    1.33
 1987 300    73    25     3     2.0  113.4   16607   94.7   18.7   4.2   7.2   9.4  11.2  11.1   4.2   2.3   1.5   0.0   0.0   0.1   0.4   1.0   0.7   0.9  2.32  1.11  0.65  0.00  0.00   39.30   54.36    0.60    0.00    1.33
 1987 301    74    25     3     2.0  111.1   16606   92.4   18.6   4.1   6.8   8.9  10.9  10.9   4.2   2.3   1.5   0.0   0.0   0.1   0.4   0.9   0.6   0.9  2.34  1.11  0.65  0.00  0.00   39.91   54.99    0.61    0.00    1.34
 1987 302    75    25     3     2.0  107.1   16606   88.6   18.5   1.7   6.2   8.6  10.4  10.6   4.2   2.3   1.5   0.0   0.0   0.1   0.4   0.9   0.6   0.9  2.35  1.11  0.64  0.00  0.00   40.48   55.57    0.62    0.00    1.34
 1987 303    76    25     3     2.0  102.1   16605   83.6   18.5   1.5   5.5   7.4   9.8  10.0   4.2   2.3   1.5   0.0   0.0   0.1   0.5   0.8   0.6   0.8  2.36  1.11  0.64  0.00  0.00   41.13   56.05    0.63    0.00    1.36
 1987 304    77    25     3     2.0   97.3   16604   78.9   18.4   1.4   4.7   6.4   9.3   9.5   4.2   2.3   1.5   0.0   0.0   0.1   0.5   0.8   0.6   0.8  2.37  1.11  0.64  0.00  0.00   41.84   56.70    0.63    0.00    1.38
 1987 305    78    25     3     2.0   92.1   16604   73.9   18.2   1.3   3.9   5.3   8.6   9.0   4.2   2.3   1.5   0.0   0.0   0.1   0.5   0.8   0.6   0.8  2.38  1.11  0.63  0.00  0.00   42.56   57.36    0.64    0.00    1.40
 1987 306    79    25     3     2.0   89.3   16603   71.2   18.1   1.2   3.6   4.8   8.3   8.6   4.2   2.4   1.5   0.0   0.0   0.1   0.5   0.8   0.6   0.7  2.38  1.11  0.63  0.00  0.00   43.30   58.04    0.65    0.00    1.42
 1987 307    80    25     3     2.0   85.4   16602   67.5   17.9   1.1   3.1   4.1   7.8   8.2   4.2   2.4   1.5   0.0   0.0   0.1   0.5   0.8   0.6   0.7  2.36  1.11  0.63  0.00  0.00   44.05   58.74    0.65    0.00    1.44
 1987 308    81    25     3     2.0   81.4   16601   63.7   17.8   1.1   2.7   3.4   7.2   7.7   4.1   2.4   1.5   0.0   0.0   0.1   0.5   0.7   0.6   0.7  2.34  1.11  0.62  0.00  0.00   44.78   59.41    0.66    0.00    1.44
 1987 309    82    25     3     2.0   79.1   16601   61.5   17.6   0.8   2.6   3.0   6.9   7.4   4.0   2.4   1.6   0.0   0.0   0.1   0.4   0.7   0.5   0.7  2.33  1.11  0.62  0.00  0.00   45.45   60.04    0.66    0.00    1.44
 1987 310    83    25     3     2.0   76.3   16600   58.8   17.5   0.5   1.9   3.0   6.5   7.0   4.0   2.4   1.6   0.0   0.0   0.2   0.5   0.7   0.5   0.7  2.31  1.11  0.62  0.00  0.00   46.10   60.54    0.66    0.00    1.44
 1987 311    84    25     3     2.0   72.6   16599   55.0   17.6   0.4   1.6   2.4   6.0   6.5   3.9   2.4   1.6   0.0   0.0   0.3   0.6   0.8   0.5   0.6  2.27  1.11  0.61  0.00  0.00   46.76   60.84    0.67    0.00    1.44
 1987 312    85    25     3     2.0   65.6   16599   48.8   16.8   0.6   1.1   1.5   5.1   5.6   3.7   2.4   1.6   0.0   0.0   0.1   0.5   0.7   0.5   0.6  2.16  1.11  0.61  0.00  0.00   47.41   61.59    0.67    0.00    1.45
 1987 313    86    25     3     2.0   61.6   16598   45.3   16.3   0.5   0.9   1.1   4.6   5.1   3.4   2.4   1.6   0.0   0.0   0.2   0.5   0.7   0.5   0.6  2.04  1.11  0.61  0.00  0.00   48.05   62.14    0.67    0.00    1.45
 1987 314    87    25     3     2.0   56.7   16598   41.1   15.6   0.5   0.7   0.8   4.0   4.5   3.1   2.4   1.6   0.0   0.0   0.1   0.5   0.7   0.5   0.6  1.90  1.11  0.60  0.00  0.00   48.68   62.78    0.67    0.00    1.46
 1987 315    88    25     3     2.0   52.2   16597   37.2   14.9   0.4   0.6   0.6   3.5   3.9   2.8   2.4   1.6   0.0   0.0   0.1   0.5   0.7   0.5   0.6  1.75  1.11  0.60  0.00  0.00   49.33   63.36    0.68    0.00    1.46
 1987 316    89    25     3     2.0   46.8   16596   32.6   14.1   0.4   0.4   0.3   2.8   3.3   2.5   2.5   1.6   0.0   0.0   0.1   0.5   0.6   0.5   0.5  1.58  1.11  0.60  0.00  0.00   49.99   63.96    0.68    0.00    1.46
 1987 317    90    25     3     2.0   42.2   16596   28.8   13.4   0.4   0.4   0.3   2.2   2.6   2.1   2.5   1.6   0.0   0.0   0.1   0.5   0.6   0.5   0.5  1.41  1.11  0.59  0.00  0.00   50.65   64.55    0.68    0.00    1.47
 1987 318    91    25     3     2.1   37.9   16595   25.2   12.7   0.1   0.2   0.3   1.0   2.1   2.0   2.6   1.7   0.0   0.0   0.1   0.5   0.6   0.5   0.5  1.25  1.11  0.59  0.00  0.00   51.30   65.14    0.68    0.00    1.47
 1987 319    92    25     3     2.6   35.5   16594   22.7   12.8   0.1   0.3   0.3   0.8   1.7   1.7   2.5   1.7   0.0   0.0   0.2   0.6   0.7   0.5   0.5  1.17  1.11  0.59  0.00  0.00   52.05   65.27    0.69    0.00    1.47
 1987 320    93    25     3     2.7   33.1   16594   20.6   12.5   0.4   0.3   0.3   0.6   1.3   1.4   2.5   1.8   0.0   0.0   0.1   0.7   0.7   0.6   0.6  1.07  1.11  0.59  0.00  0.00   52.84   65.64    0.70    0.00    1.47
 1987 321    94    25     3     3.0   30.8   16593   18.4   12.4   0.3   0.3   0.3   0.5   1.0   1.1   2.4   1.8   0.0   0.0   0.2   0.7   0.8   0.6   0.6  0.98  1.12  0.58  0.00  0.00   53.61   65.80    0.71    0.00    1.48
 1987 322    95    25     3     3.0   29.2   16592   17.3   12.0   0.5   0.3   0.3   0.4   0.8   1.0   2.4   1.8   0.0   0.0   0.1   0.7   0.7   0.6   0.6  0.91  1.12  0.58  0.00  0.00   54.40   66.31    0.72    0.00    1.48
 1987 323    96    25     3     4.5   26.4   16591   14.9   11.4   0.0   0.4   0.3   0.3   0.5   0.8   2.0   2.0   0.0   0.0   0.1   0.5   0.7   0.5   0.5  0.85  1.12  0.58  0.00  0.00   55.18   66.90    0.72    0.00    1.48
 1987 324    97    25     3     5.3   25.3   16591   13.5   11.8   0.0   0.3   0.3   0.2   0.4   0.6   1.9   1.9   0.0   0.0   0.3   0.6   0.8   0.6   0.6  0.82  1.12  0.58  0.00  0.00   55.93   67.01    0.75    0.00    1.48
 1987 325    98    25     3     5.5   24.6   16590   12.9   11.8   0.1   0.3   0.3   0.3   0.3   0.5   1.8   1.9   0.0   0.0   0.3   0.7   0.8   0.6   0.6  0.79  1.13  0.58  0.00  0.00   56.66   67.19    0.76    0.00    1.48
 1987 326    99    25     3     5.8   23.9   16589   12.1   11.7   0.2   0.3   0.3   0.3   0.3   0.4   1.8   1.8   0.0   0.0   0.4   0.7   0.8   0.6   0.6  0.75  1.13  0.58  0.00  0.00   57.37   67.37    0.78    0.00    1.49
 1987 327   100    25     3     5.9   23.4   16589   12.2   11.3   0.6   0.3   0.3   0.3   0.3   0.4   1.7   1.8   0.0   0.0   0.1   0.7   0.7   0.6   0.6  0.72  1.13  0.58  0.00  0.00   58.05   67.90    0.79    0.00    1.49
 1987 328   101    25     3     6.0   22.2   16588   11.4   10.9   0.4   0.3   0.3   0.3   0.3   0.3   1.6   1.8   0.0   0.0   0.1   0.7   0.7   0.6   0.6  0.69  1.07  0.57  0.00  0.00   58.70   68.23    0.79    0.00    1.49
 1987 329   102    25     3     6.0   21.3   16588   11.0   10.3   0.4   0.4   0.3   0.3   0.3   0.3   1.4   1.8   0.0   0.0   0.1   0.5   0.6   0.5   0.5  0.67  1.01  0.57  0.00  0.00   59.35   68.79    0.80    0.00    1.49
 1987 330   103    25     3     6.0   20.6   16587   10.5   10.0   0.3   0.4   0.3   0.3   0.3   0.3   1.3   1.8   0.0   0.0   0.2   0.5   0.6   0.5   0.5  0.65  0.95  0.57  0.00  0.00   60.01   69.25    0.80    0.00    1.49
 1987 331   104    25     3     6.0   20.1   16586   10.3    9.7   0.5   0.4   0.3   0.3   0.3   0.3   1.1   1.8   0.0   0.0   0.1   0.5   0.6   0.5   0.5  0.64  0.90  0.57  0.00  0.00   60.69   69.83    0.80    0.00    1.49
 1987 332   105    25     3     6.0   19.5   16586    9.9    9.6   0.4   0.4   0.3   0.3   0.3   0.3   1.0   1.8   0.0   0.0   0.1   0.5   0.6   0.5   0.5  0.63  0.85  0.56  0.00  0.00   61.38   70.35    0.80    0.00    1.50
 1987 333   106    25     3     6.0   19.1   16585    9.8    9.4   0.4   0.4   0.3   0.3   0.3   0.3   0.9   1.8   0.0   0.0   0.1   0.5   0.6   0.5   0.5  0.62  0.79  0.56  0.00  0.00   62.12   70.96    0.80    0.00    1.50
 1987 334   107    25     3     6.0   18.8   16584    9.6    9.2   0.4   0.4   0.3   0.3   0.3   0.3   0.8   1.8   0.0   0.0   0.1   0.5   0.6   0.5   0.5  0.61  0.74  0.56  0.00  0.00   62.90   71.60    0.80    0.00    1.50
 1987 335   108    25     3     6.0   18.5   16583    9.5    9.0   0.4   0.4   0.3   0.3   0.3   0.3   0.7   1.8   0.0   0.0   0.1   0.5   0.6   0.5   0.5  0.60  0.70  0.56  0.00  0.00   63.71   72.29    0.80    0.00    1.50
 1987 336   109    25     3     6.0   18.3   16583    9.4    8.9   0.5   0.4   0.3   0.3   0.3   0.3   0.7   1.8   0.0   0.0   0.1   0.5   0.6   0.5   0.5  0.60  0.66  0.55  0.00  0.00   64.58   73.05    0.80    0.00    1.51
 1987 337   110    25     3     6.0   18.0   16582    9.3    8.7   0.4   0.5   0.3   0.3   0.3   0.3   0.6   1.9   0.0   0.0   0.1   0.4   0.6   0.5   0.5  0.59  0.63  0.55  0.00  0.00   65.45   73.82    0.80    0.00    1.51
 1987 338   111    25     3     6.0   17.7   16581    9.1    8.6   0.1   0.3   0.3   0.3   0.3   0.3   0.6   1.9   0.0   0.0   0.1   0.4   0.6   0.5   0.5  0.59  0.60  0.55  0.00  0.00   66.29   74.55    0.80    0.00    1.51
 1987 339   112    25     3     6.1   17.6   16580    8.5    9.1   0.1   0.3   0.3   0.3   0.3   0.3   0.5   1.9   0.0   0.0   0.2   0.6   0.7   0.5   0.5  0.60  0.58  0.54  0.00  0.00   67.08   74.70    0.80    0.00    1.51
 1987 340   113    25     3     6.5   17.4   16580    7.9    9.5   0.2   0.3   0.3   0.3   0.2   0.2   0.4   1.7   0.0   0.0   0.3   0.7   0.8   0.6   0.6  0.60  0.58  0.54  0.00  0.00   67.87   74.85    0.80    0.00    1.51
 1987 341   114    25     3     6.6   17.4   16579    8.1    9.3   0.6   0.3   0.3   0.3   0.3   0.3   0.4   1.7   0.0   0.0   0.1   0.7   0.7   0.6   0.6  0.60  0.56  0.54  0.00  0.00   68.61   75.29    0.80    0.00    1.51
 1987 342   115    25     3     6.6   17.1   16578    8.0    9.1   0.3   0.5   0.3   0.3   0.3   0.3   0.4   1.7   0.0   0.0   0.1   0.5   0.7   0.6   0.6  0.59  0.55  0.54  0.00  0.00   69.32   75.69    0.80    0.00    1.52
 1987 343   116    25     3     6.6   17.0   16578    7.9    9.1   0.3   0.3   0.3   0.3   0.3   0.3   0.3   1.7   0.0   0.0   0.2   0.6   0.7   0.6   0.6  0.59  0.53  0.54  0.00  0.00   70.02   76.00    0.80    0.00    1.52
 1987 344   117    25     3     6.6   16.8   16577    7.8    9.0   0.3   0.3   0.3   0.3   0.3   0.3   0.3   1.7   0.0   0.0   0.3   0.7   0.6   0.6   0.5  0.59  0.52  0.53  0.00  0.00   70.76   76.45    0.80    0.00    1.52
 1987 345   118    25     3     6.6   16.4   16576    7.9    8.5   0.7   0.4   0.3   0.3   0.3   0.3   0.3   1.6   0.0   0.0   0.1   0.5   0.6   0.5   0.5  0.59  0.51  0.53  0.00  0.00   71.51   77.26    0.81    0.00    1.52
 1987 346   119    25     3     6.6   15.9   16576    7.4    8.5   0.3   0.4   0.3   0.3   0.3   0.3   0.3   1.5   0.0   0.0   0.1   0.5   0.6   0.5   0.5  0.59  0.51  0.52  0.00  0.00   72.27   77.81    0.81    0.00    1.52
 1987 347   120    25     3     6.6   15.7   16575    7.3    8.4   0.4   0.4   0.3   0.3   0.3   0.3   0.3   1.4   0.0   0.0   0.1   0.5   0.6   0.5   0.5  0.58  0.50  0.51  0.00  0.00   73.03   78.45    0.81    0.00    1.53
 1987 348   121    25     3     6.6   15.4   16574    7.1    8.3   0.4   0.4   0.3   0.3   0.3   0.3   0.3   1.3   0.0   0.0   0.1   0.5   0.6   0.5   0.5  0.58  0.50  0.50  0.00  0.00   73.80   79.09    0.81    0.00    1.53
 1987 349   122    25     3     6.6   15.2   16573    6.9    8.3   0.4   0.4   0.3   0.3   0.3   0.3   0.3   1.2   0.0   0.0   0.1   0.5   0.6   0.5   0.5  0.58  0.49  0.48  0.00  0.00   74.57   79.72    0.81    0.00    1.53
 1987 350   123    25     3     6.6   15.0   16573    6.8    8.2   0.1   0.3   0.3   0.3   0.3   0.3   0.3   1.2   0.0   0.0   0.1   0.5   0.6   0.5   0.5  0.58  0.48  0.47  0.00  0.00   75.34   80.36    0.81    0.00    1.53
 1987 351   124    25     3     6.6   14.8   16572    6.1    8.7   0.1   0.3   0.3   0.3   0.3   0.3   0.3   1.1   0.0   0.0   0.2   0.6   0.7   0.6   0.5  0.59  0.48  0.46  0.00  0.00   76.09   80.52    0.81    0.00    1.53
 1987 352   125    25     3     6.7   14.9   16571    5.9    9.0   0.2   0.3   0.3   0.3   0.3   0.2   0.3   1.0   0.0   0.0   0.3   0.7   0.7   0.6   0.6  0.59  0.47  0.45  0.00  0.00   76.86   80.72    0.81    0.00    1.54
 1987 353   126    25     3     6.7   14.9   16571    6.1    8.8   0.6   0.3   0.3   0.3   0.3   0.3   0.3   1.0   0.0   0.0   0.0   0.7   0.7   0.6   0.6  0.59  0.47  0.44  0.00  0.00   77.61   81.17    0.81    0.00    1.54
 1987 354   127    25     3     6.7   14.6   16570    6.2    8.5   0.3   0.5   0.3   0.3   0.3   0.3   0.3   0.9   0.0   0.0   0.1   0.5   0.6   0.6   0.6  0.59  0.47  0.43  0.00  0.00   78.37   81.79    0.81    0.00    1.54
 1987 355   128    25     3     6.7   14.3   16569    6.1    8.3   0.4   0.4   0.3   0.3   0.3   0.3   0.3   0.9   0.0   0.0   0.1   0.5   0.6   0.6   0.6  0.59  0.46  0.41  0.00  0.00   79.09   82.41    0.81    0.00    1.54
 1987 356   129    25     3     6.7   14.1   16569    5.9    8.1   0.4   0.4   0.3   0.3   0.3   0.3   0.3   0.8   0.0   0.0   0.1   0.5   0.6   0.5   0.6  0.59  0.46  0.40  0.00  0.00   79.82   83.00    0.81    0.00    1.54
 1987 357   130    25     3     6.7   13.9   16568    5.8    8.1   0.4   0.4   0.3   0.3   0.3   0.3   0.3   0.8   0.0   0.0   0.1   0.5   0.6   0.5   0.5  0.59  0.45  0.39  0.00  0.00   80.54   83.59    0.81    0.00    1.55
 1987 358   131    25     3     6.7   13.7   16567    5.7    8.0   0.4   0.4   0.3   0.3   0.3   0.3   0.3   0.8   0.0   0.0   0.1   0.5   0.6   0.5   0.5  0.59  0.45  0.39  0.00  0.00   81.27   84.18    0.81    0.00    1.55
 1987 359   132    25     3     6.7   13.6   16567    5.7    8.0   0.4   0.4   0.3   0.3   0.3   0.3   0.3   0.7   0.0   0.0   0.1   0.5   0.6   0.5   0.5  0.58  0.44  0.38  0.00  0.00   82.01   84.77    0.81    0.00    1.55
 1987 360   133    25     3     6.7   13.5   16566    5.6    7.9   0.4   0.4   0.3   0.3   0.3   0.3   0.3   0.7   0.0   0.0   0.1   0.5   0.6   0.5   0.5  0.58  0.44  0.37  0.00  0.00   82.75   85.36    0.81    0.00    1.55
 1987 361   134    25     3     6.7   13.4   16565    5.5    7.9   0.2   0.3   0.4   0.3   0.3   0.3   0.3   0.7   0.0   0.0   0.1   0.5   0.6   0.5   0.5  0.58  0.44  0.36  0.00  0.00   83.49   85.95    0.81    0.00    1.55
 1987 362   135    25     3     6.7   13.3   16565    5.0    8.3   0.2   0.3   0.3   0.3   0.3   0.3   0.3   0.6   0.0   0.0   0.2   0.6   0.7   0.6   0.5  0.58  0.43  0.35  0.00  0.00   84.26   86.13    0.81    0.00    1.56
 1987 363   136    25     3     6.7   13.5   16564    5.2    8.3   0.5   0.3   0.3   0.3   0.3   0.3   0.3   0.6   0.0   0.0   0.1   0.7   0.7   0.6   0.5  0.58  0.43  0.34  0.00  0.00   85.06   86.59    0.81    0.00    1.56
 1987 364   137    25     3     6.7   13.6   16563    5.0    8.6   0.3   0.3   0.3   0.3   0.3   0.3   0.3   0.6   0.0   0.0   0.2   0.7   0.8   0.6   0.6  0.58  0.43  0.33  0.00  0.00   85.83   86.78    0.81    0.00    1.56
 1987 365   138    25     3     6.7   13.7   16562    4.9    8.9   0.1   0.2   0.3   0.2   0.3   0.3   0.3   0.5   0.0   0.0   0.3   0.8   0.8   0.6   0.6  0.58  0.42  0.33  0.00  0.00   86.61   86.99    0.81    0.00    1.56
 1988 001   139    25     3     6.8   13.8   16562    4.7    9.1   0.2   0.3   0.3   0.2   0.3   0.2   0.3   0.5   0.0   0.0   0.4   0.8   0.9   0.6   0.6  0.59  0.42  0.32  0.00  0.00   87.40   87.20    0.81    0.00    1.56
 1988 002   140    25     3     6.8   13.8   16561    5.0    8.8   0.8   0.3   0.3   0.3   0.3   0.2   0.3   0.5   0.0   0.0   0.0   0.8   0.8   0.6   0.6  0.60  0.42  0.31  0.00  0.00   88.21   87.71    0.82    0.00    1.57
 1988 003   141    25     3     6.8   13.4   16560    5.0    8.5   0.3   0.5   0.3   0.3   0.3   0.3   0.3   0.5   0.0   0.0   0.2   0.5   0.8   0.6   0.6  0.60  0.41  0.30  0.00  0.00   89.02   88.19    0.82    0.00    1.57
 1988 004   142    25     3     6.8   13.3   16559    5.3    8.0   0.5   0.4   0.4   0.3   0.3   0.3   0.3   0.5   0.0   0.0   0.1   0.5   0.6   0.6   0.6  0.60  0.41  0.30  0.00  0.00   89.88   89.01    0.82    0.00    1.57
 1988 005   143    25     3     6.8   13.0   16559    5.2    7.9   0.2   0.4   0.4   0.3   0.3   0.3   0.3   0.4   0.0   0.0   0.1   0.5   0.6   0.6   0.6  0.60  0.41  0.29  0.00  0.00   90.78   89.74    0.82    0.00    1.57
 1988 006   144    25     3     6.8   13.0   16558    4.6    8.4   0.2   0.3   0.3   0.3   0.3   0.3   0.3   0.4   0.0   0.0   0.3   0.6   0.7   0.6   0.6  0.60  0.41  0.28  0.00  0.00   91.67   89.94    0.82    0.00    1.57
 1988 007   145    25     3     6.8   13.2   16557    4.5    8.7   0.3   0.3   0.3   0.3   0.3   0.3   0.3   0.4   0.0   0.0   0.4   0.7   0.8   0.6   0.6  0.60  0.41  0.28  0.00  0.00   92.53   90.19    0.82    0.00    1.58
 1988 008   146    25     3     6.8   13.3   16556    4.9    8.4   0.8   0.3   0.3   0.3   0.3   0.3   0.3   0.4   0.0   0.0   0.0   0.7   0.8   0.6   0.6  0.60  0.40  0.27  0.00  0.00   93.39   90.78    0.82    0.00    1.58
 1988 009   147    25     3     6.8   12.9   16556    5.0    8.0   0.3   0.5   0.4   0.3   0.3   0.3   0.3   0.4   0.0   0.0   0.2   0.5   0.7   0.6   0.6  0.60  0.40  0.27  0.00  0.00   94.24   91.50    0.82    0.00    1.58
 1988 010   148    25     3     6.8   12.7   16555    4.9    7.8   0.5   0.4   0.3   0.3   0.3   0.3   0.3   0.4   0.0   0.0   0.1   0.5   0.6   0.6   0.5  0.60  0.40  0.26  0.00  0.00   95.07   92.23    0.82    0.00    1.58
 1988 011   149    25     3     6.8   12.5   16554    4.9    7.7   0.4   0.4   0.3   0.3   0.3   0.3   0.3   0.3   0.0   0.0   0.1   0.5   0.6   0.6   0.5  0.60  0.40  0.26  0.00  0.00   95.93   92.89    0.82    0.00    1.58
 1988 012   150    25     3     6.8   12.5   16553    4.9    7.6   0.4   0.5   0.3   0.3   0.3   0.3   0.3   0.3   0.0   0.0   0.1   0.5   0.6   0.5   0.5  0.60  0.40  0.25  0.00  0.00   96.85   93.66    0.82    0.00    1.59
 1988 013   151    25     3     6.8   12.5   16552    4.8    7.6   0.1   0.4   0.4   0.3   0.3   0.3   0.3   0.3   0.0   0.0   0.3   0.4   0.6   0.5   0.5  0.60  0.39  0.25  0.00  0.00   97.81   94.35    0.82    0.00    1.59
 1988 014   152    25     3     6.8   12.6   16552    4.4    8.2   0.2   0.3   0.3   0.3   0.3   0.3   0.3   0.3   0.0   0.0   0.3   0.6   0.7   0.6   0.6  0.60  0.39  0.24  0.00  0.00   98.72   94.58    0.82    0.00    1.59
 1988 015   153    25     3     6.8   12.8   16551    4.6    8.2   0.7   0.3   0.3   0.3   0.3   0.3   0.3   0.3   0.0   0.0   0.0   0.7   0.8   0.6   0.6  0.60  0.39  0.24  0.00  0.00   99.66   95.11    0.82    0.00    1.59
 1988 016   154    25     3     6.8   12.7   16550    4.6    8.1   0.3   0.5   0.3   0.3   0.3   0.3   0.3   0.3   0.0   0.0   0.2   0.5   0.8   0.6   0.6  0.60  0.39  0.24  0.00  0.00  100.58   95.67    0.82    0.00    1.59
 1988 017   155    25     3     6.8   12.6   16549    4.8    7.7   0.6   0.4   0.4   0.3   0.3   0.3   0.3   0.3   0.0   0.0   0.1   0.5   0.6   0.6   0.6  0.60  0.39  0.23  0.00  0.00  101.47   96.49    0.82    0.00    1.59
 1988 018   156    25     3     6.8   12.3   16548    4.7    7.6   0.0   0.4   0.4   0.3   0.3   0.3   0.3   0.3   0.0   0.0   0.1   0.5   0.6   0.6   0.5  0.60  0.38  0.23  0.00  0.00  102.37   97.16    0.82    0.00    1.60
 1988 019   157    25     3     6.9   12.2   16548    4.0    8.2   0.0   0.1   0.2   0.2   0.3   0.3   0.3   0.3   0.0   0.0   0.3   0.6   0.7   0.6   0.6  0.61  0.38  0.22  0.00  0.00  103.24   97.31    0.82    0.00    1.60
 1988 020   158    25     3     7.1   12.5   16547    3.8    8.7   0.1   0.1   0.2   0.2   0.2   0.3   0.3   0.3   0.0   0.0   0.4   0.7   0.8   0.6   0.6  0.62  0.39  0.23  0.00  0.00  104.09   97.44    0.82    0.00    1.60
 1988 021   159    25     3     7.6   12.4   16546    3.4    9.0   0.1   0.1   0.2   0.2   0.2   0.2   0.2   0.3   0.0   0.0   0.4   0.8   0.8   0.7   0.6  0.63  0.40  0.23  0.00  0.00  104.90   97.60    0.82    0.00    1.61
 1988 022   160    25     3     7.7   12.8   16546    3.4    9.4   0.2   0.1   0.2   0.2   0.2   0.2   0.2   0.2   0.0   0.0   0.5   0.8   0.9   0.7   0.6  0.64  0.41  0.23  0.00  0.00  105.61   97.71    0.82    0.00    1.61
 1988 023   161    25     3     7.8   13.0   16545    3.7    9.3   0.8   0.2   0.2   0.2   0.2   0.2   0.2   0.2   0.0   0.0   0.0   0.8   0.9   0.7   0.6  0.64  0.42  0.24  0.00  0.00  106.36   98.16    0.83    0.00    1.62
 1988 024   162    25     3     7.8   13.7   16544    3.9    9.9   0.8   0.2   0.2   0.2   0.2   0.2   0.2   0.2   0.0   0.0   0.1   0.9   1.0   0.7   0.7  0.67  0.43  0.24  0.00  0.00  107.14   98.33    0.84    0.00    1.62
 1988 025   163    25     3     7.8   14.5   16544    4.4   10.1   1.0   0.5   0.2   0.2   0.2   0.2   0.2   0.2   0.0   0.0   0.1   0.8   1.2   0.8   0.7  0.69  0.44  0.24  0.00  0.00  107.95   98.87    0.84    0.00    1.63
 1988 026   164    25     3     7.8   15.4   16543    5.3   10.1   1.2   0.7   0.4   0.3   0.3   0.2   0.3   0.2   0.0   0.0   0.1   0.7   1.2   0.8   0.7  0.71  0.44  0.24  0.00  0.00  108.81   99.80    0.84    0.00    1.63

*DSSAT Cropping System Model Ver. 4.0.2.000               Aug 03, 2016; 15:38:15

*RUN   2        : UYMZ                    
 MODEL          : MZCER040 - Maize           
 EXPERIMENT     : UYMZ0131 MZ    late to create DSS                             
 TREATMENT  1   : UYMZ                    

@YEAR DOY   DAS  NAPC  NI#M    NLCC   NIAD    NOAD   NITD   NHTD  NI1D  NI2D  NI3D  NI4D  NI5D  NI6D  NI7D  NI8D  NI9D  NI10  NH1D  NH2D  NH3D  NH4D  NH5D  NH6D  NH7D  NH8D  NH9D  NH10    NMNC    NITC    NDNC    NIMC    AMLC
 1988 227     0     0     0     0.0   99.3   16646   76.4   22.9  15.9  15.2  15.1   8.6   4.6   0.0   0.1   0.1   0.0   0.0   0.7   1.3   1.5   1.4   1.5  1.50  1.47  1.45  0.00  0.00    0.49    1.55    0.00    0.00    0.00
 1988 228     1     0     0     0.0   99.8   16645   77.6   22.1  16.3  15.5  15.2   8.7   4.6   0.0   0.1   0.1   0.0   0.0   0.3   1.2   1.4   1.4   1.4  1.51  1.43  1.41  0.00  0.00    1.00    2.82    0.00    0.00    0.00
 1988 229     2     0     0     0.0  100.3   16645   78.8   21.5  16.6  15.7  15.4   8.8   4.7   0.1   0.1   0.2   0.0   0.0   0.2   1.1   1.4   1.3   1.4  1.51  1.40  1.37  0.00  0.00    1.53    3.95    0.00    0.00    0.00
 1988 230     3     0     0     0.0  100.8   16644   79.8   21.0   5.5  16.4  18.9   8.8   4.8   0.1   0.2   0.2   0.0   0.0   0.1   1.0   1.4   1.3   1.3  1.51  1.37  1.33  0.00  0.00    2.07    5.01    0.00    0.00    0.00
 1988 231     4     1     1     0.0  102.3   16643   81.2   21.1   6.5  15.9  19.3   9.0   4.8   0.1   0.2   0.2   0.0   0.0   0.9   1.0   1.4   1.2   1.3  1.51  1.34  1.29  0.00  0.00    2.62    5.85    0.00    0.00    0.09
 1988 232     5     3     2     0.0  104.8   16643   83.5   21.2   9.0  15.9  19.5   9.1   4.9   0.1   0.3   0.3   0.0   0.0   1.9   0.9   1.4   1.2   1.2  1.52  1.30  1.25  0.00  0.00    3.20    7.22    0.00    0.00    0.21
 1988 233     6     3     2     0.0  105.3   16642   85.4   19.9   7.1  15.2  21.2   9.3   4.9   0.1   0.3   0.3   0.0   0.0   0.3   0.9   1.3   1.2   1.2  1.52  1.28  1.21  0.00  0.00    3.79    9.06    0.00    0.00    0.27
 1988 234     7     3     2     0.0  105.8   16642   86.1   19.7   7.4  15.0  21.0   9.7   5.0   0.1   0.4   0.4   0.0   0.0   0.0   0.9   1.4   1.1   1.2  1.52  1.25  1.17  0.00  0.00    4.39    9.81    0.00    0.00    0.37
 1988 235     8     3     2     0.0  106.4   16641   86.9   19.5   7.6  14.9  21.0   9.9   5.1   0.2   0.4   0.4   0.0   0.0   0.1   1.0   1.4   1.1   1.1  1.53  1.22  1.14  0.00  0.00    4.99   10.60    0.00    0.00    0.37
 1988 236     9     3     2     0.0  107.0   16640   88.0   19.0   8.0  15.0  21.0  10.1   5.1   0.2   0.4   0.5   0.0   0.0   0.1   0.9   1.4   1.0   1.1  1.53  1.19  1.10  0.00  0.00    5.61   11.64    0.00    0.00    0.39
 1988 237    10     3     2     0.0  107.6   16640   89.0   18.6   8.4  15.1  21.0  10.3   5.2   0.2   0.5   0.5   0.0   0.0   0.1   0.8   1.3   1.0   1.1  1.53  1.16  1.07  0.00  0.00    6.26   12.67    0.00    0.00    0.41
 1988 238    11     3     2     0.0  108.2   16639   90.0   18.3   8.7  15.1  21.1  10.5   5.2   0.2   0.5   0.5   0.0   0.0   0.1   0.7   1.3   1.0   1.0  1.53  1.14  1.04  0.00  0.00    6.91   13.66    0.00    0.00    0.43
 1988 239    12     3     2     0.0  108.9   16639   90.9   18.0   9.0  15.2  21.1  10.6   5.3   0.2   0.5   0.6   0.0   0.0   0.1   0.7   1.3   1.0   1.0  1.54  1.11  1.00  0.00  0.00    7.54   14.59    0.00    0.00    0.45
 1988 240    13     3     2     0.0  109.2   16638   91.6   17.7   9.1  15.1  21.1  10.8   5.3   0.3   0.6   0.6   0.0   0.0   0.1   0.6   1.3   0.9   1.0  1.54  1.09  0.97  0.00  0.00    8.13   15.44    0.00    0.00    0.47
 1988 241    14     3     2     0.0  109.8   16637   92.3   17.4   9.3  15.1  21.2  10.9   5.4   0.3   0.6   0.6   0.0   0.0   0.1   0.6   1.3   0.9   0.9  1.54  1.07  0.95  0.00  0.00    8.68   16.22    0.00    0.00    0.49
 1988 242    15     3     2     0.0  110.2   16637   93.0   17.2   9.5  15.2  21.2  11.0   5.4   0.3   0.6   0.7   0.0   0.0   0.1   0.6   1.3   0.9   0.9  1.54  1.05  0.92  0.00  0.00    9.16   16.90    0.00    0.00    0.49
 1988 243    16     3     2     0.0  110.7   16636   93.7   17.0   9.7  15.2  21.2  11.1   5.4   0.3   0.7   0.7   0.0   0.0   0.1   0.6   1.3   0.9   0.9  1.55  1.03  0.89  0.00  0.00    9.62   17.57    0.00    0.00    0.49
 1988 244    17     3     2     0.0  111.2   16636   94.4   16.8   9.9  15.2  21.3  11.2   5.5   0.3   0.7   0.7   0.0   0.0   0.1   0.6   1.2   0.9   0.9  1.55  1.01  0.87  0.00  0.00   10.10   18.23    0.00    0.00    0.49
 1988 245    18     3     2     0.0  111.7   16635   95.0   16.6  10.1  15.2  21.3  11.3   5.5   0.3   0.7   0.8   0.0   0.0   0.1   0.6   1.2   0.8   0.9  1.55  0.99  0.84  0.00  0.00   10.61   18.93    0.00    0.00    0.50
 1988 246    19     3     2     0.0  112.2   16635   95.7   16.5  10.3  15.3  21.4  11.4   5.5   0.4   0.8   0.8   0.0   0.0   0.1   0.5   1.2   0.8   0.9  1.55  0.97  0.82  0.00  0.00   11.13   19.63    0.00    0.00    0.50
 1988 247    20     3     2     0.0  112.7   16634   96.4   16.3  10.5  15.3  21.5  11.5   5.6   0.4   0.8   0.8   0.0   0.0   0.1   0.5   1.2   0.8   0.8  1.56  0.95  0.80  0.00  0.00   11.63   20.30    0.00    0.00    0.50
 1988 248    21     3     2     0.0  113.2   16634   97.1   16.1  10.7  15.3  21.5  11.6   5.6   0.4   0.8   0.8   0.0   0.0   0.1   0.5   1.2   0.8   0.8  1.56  0.93  0.78  0.00  0.00   12.11   20.94    0.00    0.00    0.50
 1988 249    22     3     2     0.0  113.6   16633   97.7   16.0  10.9  15.4  21.6  11.7   5.6   0.4   0.8   0.9   0.0   0.0   0.1   0.5   1.2   0.8   0.8  1.56  0.91  0.76  0.00  0.00   12.57   21.56    0.00    0.00    0.51
 1988 250    23     3     2     0.0  114.1   16633   98.3   15.8  11.1  15.4  21.6  11.7   5.7   0.4   0.9   0.9   0.0   0.0   0.1   0.5   1.2   0.8   0.8  1.56  0.90  0.73  0.00  0.00   13.04   22.18    0.00    0.00    0.51
 1988 251    24     3     2     0.0  114.6   16633   98.9   15.7   9.0  16.5  21.7  11.8   5.7   0.4   0.9   0.9   0.0   0.0   0.1   0.5   1.2   0.8   0.8  1.56  0.88  0.71  0.00  0.00   13.53   22.80    0.00    0.00    0.51
 1988 252    25    25     3     0.0  137.0   16632  110.6   26.5  28.7  16.5  21.9  11.9   5.7   0.5   0.9   0.9   0.0   0.0  19.8   0.5   1.2   0.7   0.8  1.57  0.87  0.70  0.00  0.00   14.06   23.46    0.00    0.00    0.58
 1988 253    26    25     3     0.0  137.6   16631  120.5   17.1  39.7  18.7  22.5  11.9   5.8   0.5   1.0   1.0   0.0   0.0   3.2   0.5   1.2   0.7   0.8  1.57  0.85  0.68  0.00  0.00   14.65   33.31    0.00    0.00    0.63
 1988 254    27    25     3     0.0  138.1   16631  121.3   16.8  31.8  20.4  24.2  12.0   5.8   0.5   1.0   1.0   0.0   0.0   2.6   0.6   1.2   0.7   0.7  1.57  0.84  0.66  0.00  0.00   15.23   34.16    0.00    0.00    0.69
 1988 255    28    25     3     0.0  138.6   16630  121.9   16.6  32.2  20.2  24.0  12.4   5.8   0.5   1.0   1.0   0.0   0.0   2.2   0.7   1.2   0.7   0.7  1.57  0.82  0.64  0.00  0.00   15.77   34.80    0.00    0.00    0.74
 1988 256    29    25     3     0.0  139.0   16630  123.3   15.7  33.9  20.0  24.1  12.6   5.9   0.5   1.0   1.0   0.0   0.0   0.5   0.7   1.2   0.7   0.7  1.57  0.81  0.62  0.00  0.00   16.30   36.22    0.00    0.00    0.83
 1988 257    30    25     3     0.0  139.3   16629  124.1   15.2  34.7  19.9  24.1  12.7   5.9   0.5   1.1   1.0   0.0   0.0   0.0   0.7   1.2   0.7   0.7  1.58  0.79  0.61  0.00  0.00   16.84   37.08    0.00    0.00    0.94
 1988 258    31    25     3     0.0  139.6   16629  124.5   15.1  35.0  19.7  24.1  12.8   5.9   0.6   1.1   1.1   0.0   0.0   0.1   0.6   1.2   0.7   0.7  1.58  0.78  0.59  0.00  0.00   17.37   37.71    0.00    0.00    0.95
 1988 259    32    25     3     0.0  139.8   16628  124.8   15.0  35.2  19.5  24.0  12.9   6.0   0.6   1.1   1.1   0.0   0.0   0.1   0.6   1.2   0.7   0.7  1.58  0.77  0.58  0.00  0.00   17.90   38.34    0.00    0.00    0.97
 1988 260    33    25     3     0.0  140.1   16628  125.3   14.9  35.5  19.4  24.0  13.0   6.0   0.6   1.1   1.1   0.0   0.0   0.1   0.6   1.2   0.7   0.7  1.58  0.76  0.56  0.00  0.00   18.42   38.97    0.00    0.00    0.99
 1988 261    34    25     3     0.0  140.6   16627  125.8   14.7  35.9  19.3  24.1  13.1   6.1   0.6   1.1   1.1   0.0   0.0   0.1   0.6   1.2   0.7   0.7  1.58  0.74  0.55  0.00  0.00   18.92   39.56    0.00    0.00    1.00
 1988 262    35    25     3     0.0  141.1   16627  126.4   14.7  36.3  19.3  24.1  13.2   6.1   0.6   1.2   1.1   0.0   0.0   0.1   0.6   1.2   0.7   0.7  1.59  0.73  0.53  0.00  0.00   19.38   40.11    0.00    0.00    1.01
 1988 263    36    25     3     0.0  141.5   16626  126.9   14.6  36.6  19.2  24.2  13.2   6.1   0.6   1.2   1.2   0.0   0.0   0.1   0.6   1.2   0.7   0.7  1.59  0.72  0.52  0.00  0.00   19.81   40.64    0.00    0.00    1.01
 1988 264    37    25     3     0.0  141.8   16626  127.3   14.5  36.9  19.1  24.2  13.3   6.2   0.7   1.2   1.2   0.0   0.0   0.1   0.5   1.2   0.7   0.7  1.59  0.71  0.51  0.00  0.00   20.27   41.19    0.00    0.00    1.01
 1988 265    38    25     3     0.0  142.0   16625  127.6   14.4  33.1  21.0  24.2  13.3   6.2   0.7   1.2   1.2   0.0   0.0   0.1   0.5   1.2   0.6   0.7  1.59  0.70  0.50  0.00  0.00   20.78   41.78    0.00    0.00    1.01
 1988 266    39    25     3     0.0  142.1   16625  127.8   14.3  10.2  17.4  23.5  16.2  10.1   1.9   1.3   1.2   0.0   0.0   0.2   0.5   1.2   0.6   0.7  1.59  0.69  0.48  0.00  0.00   21.32   42.35    0.00    0.00    1.01
 1988 267    40    25     3     0.4  142.0   16624  127.3   14.7   6.2  14.9  21.9  16.2  11.2   2.9   1.6   1.4   0.0   0.0   0.1   0.6   1.2   0.7   0.7  1.61  0.70  0.48  0.00  0.00   21.86   42.52    0.00    0.00    1.02
 1988 268    41    25     3     1.0  141.5   16624  126.4   15.1   6.2  14.6  21.3  15.7  11.1   3.1   1.7   1.4   0.0   0.0   0.1   0.7   1.3   0.7   0.7  1.63  0.70  0.48  0.00  0.00   22.45   42.69    0.00    0.00    1.02
 1988 269    42    25     3     1.4  140.9   16623  125.4   15.5   6.3  14.2  20.9  15.5  11.1   3.2   1.8   1.4   0.0   0.0   0.1   0.8   1.4   0.7   0.7  1.64  0.71  0.48  0.00  0.00   23.02   42.88    0.00    0.00    1.02
 1988 270    43    25     3     1.5  141.1   16622  125.4   15.7   3.5  11.1  19.4  15.7  12.3   4.2   2.1   1.5   0.0   0.0   0.1   0.7   1.5   0.8   0.7  1.66  0.71  0.48  0.00  0.00   23.56   43.20    0.00    0.00    1.03
 1988 271    44    25     3     1.7  140.6   16622  124.6   16.1   2.8  10.3  18.7  15.5  12.4   4.5   2.3   1.5   0.0   0.0   0.2   0.8   1.5   0.8   0.8  1.67  0.72  0.48  0.00  0.00   24.07   43.31    0.53    0.00    1.03
 1988 272    45    25     3     2.4  139.6   16621  123.2   16.4   2.9  10.0  18.0  15.0  12.2   4.7   2.4   1.6   0.0   0.0   0.1   0.8   1.6   0.8   0.8  1.69  0.73  0.49  0.00  0.00   24.56   43.47    1.09    0.00    1.03
 1988 273    46    25     3     2.9  138.6   16621  121.9   16.6   3.0   9.7  17.5  14.7  12.1   4.7   2.5   1.7   0.0   0.0   0.1   0.9   1.6   0.8   0.8  1.70  0.73  0.49  0.00  0.00   25.03   43.64    1.40    0.00    1.04
 1988 274    47    25     3     3.1  138.0   16621  121.3   16.8   3.4   9.6  17.2  14.5  12.0   4.8   2.6   1.7   0.0   0.0   0.1   0.8   1.7   0.8   0.8  1.72  0.74  0.48  0.00  0.00   25.51   43.97    1.55    0.00    1.04
 1988 275    48    25     3     3.3  137.5   16620  120.8   16.7   3.7   9.4  17.0  14.4  11.9   4.8   2.6   1.7   0.0   0.0   0.1   0.8   1.6   0.9   0.8  1.73  0.74  0.48  0.00  0.00   26.03   44.48    1.61    0.00    1.04
 1988 276    49    25     3     3.4  137.2   16619  120.5   16.7   4.0   9.3  16.8  14.4  11.9   4.8   2.6   1.7   0.0   0.0   0.1   0.7   1.5   0.9   0.9  1.75  0.75  0.48  0.00  0.00   26.61   45.05    1.65    0.00    1.05
 1988 277    50    25     3     3.4  136.8   16619  120.2   16.7   2.7   8.8  17.0  14.5  12.0   4.8   2.7   1.7   0.0   0.0   0.1   0.6   1.5   0.9   0.9  1.76  0.75  0.48  0.00  0.00   27.22   45.64    1.67    0.00    1.05
 1988 278    51    25     3     3.5  135.7   16618  118.7   17.0   2.7   8.5  16.2  14.2  12.0   4.9   2.7   1.7   0.0   0.0   0.1   0.7   1.5   0.9   0.9  1.77  0.75  0.48  0.00  0.00   27.84   45.88    1.71    0.00    1.05
 1988 279    52    25     3     3.5  135.1   16618  117.8   17.3   2.9   8.3  15.9  14.1  12.0   4.9   2.7   1.8   0.0   0.0   0.1   0.8   1.6   0.9   0.9  1.79  0.76  0.48  0.00  0.00   28.44   46.15    1.74    0.00    1.05
 1988 280    53    25     3     3.5  134.2   16617  117.0   17.2   3.1   8.1  15.5  14.0  12.0   5.0   2.7   1.8   0.0   0.0   0.1   0.7   1.5   0.9   0.9  1.80  0.76  0.48  0.00  0.00   29.04   46.75    1.76    0.00    1.06
 1988 281    54    25     3     3.5  133.4   16616  116.2   17.1   3.3   8.0  15.2  13.9  12.0   5.0   2.7   1.8   0.0   0.0   0.1   0.7   1.4   1.0   0.9  1.82  0.76  0.47  0.00  0.00   29.61   47.31    1.78    0.00    1.06
 1988 282    55    25     3     3.5  132.4   16616  115.4   17.0   3.4   7.8  14.8  13.8  12.0   5.0   2.8   1.8   0.0   0.0   0.1   0.6   1.4   0.9   1.0  1.83  0.77  0.47  0.00  0.00   30.19   47.92    1.79    0.00    1.09
 1988 283    56    25     3     3.5  131.2   16615  114.3   16.9   3.5   7.7  14.3  13.6  12.1   5.0   2.8   1.8   0.0   0.0   0.1   0.6   1.3   0.9   1.0  1.84  0.77  0.47  0.00  0.00   30.81   48.55    1.81    0.00    1.10
 1988 284    57    25     3     3.5  131.3   16615  114.4   16.9   3.7   7.7  14.2  13.6  12.1   5.0   2.8   1.8   0.0   0.0   0.1   0.6   1.3   0.9   1.0  1.86  0.77  0.47  0.00  0.00   31.43   49.16    1.82    0.00    1.12
 1988 285    58    25     3     3.5  129.6   16614  112.8   16.8   3.7   7.5  13.6  13.4  12.1   5.0   2.8   1.8   0.0   0.0   0.1   0.5   1.2   0.8   1.0  1.87  0.78  0.47  0.00  0.00   32.05   49.76    1.84    0.00    1.14
 1988 286    59    25     3     3.5  126.7   16613  110.0   16.7   3.6   7.0  12.6  13.1  12.1   5.0   2.8   1.8   0.0   0.0   0.1   0.5   1.2   0.8   1.0  1.89  0.78  0.47  0.00  0.00   32.68   50.36    1.85    0.00    1.16
 1988 287    60    25     3     3.5  124.6   16613  108.0   16.6   3.5   6.7  11.9  12.8  12.1   5.0   2.8   1.8   0.0   0.0   0.1   0.5   1.1   0.8   1.0  1.90  0.78  0.47  0.00  0.00   33.30   50.93    1.86    0.00    1.18
 1988 288    61    25     3     3.5  123.8   16612  107.2   16.6   3.5   6.6  11.6  12.7  12.1   5.0   2.8   1.8   0.0   0.0   0.1   0.5   1.1   0.8   1.0  1.91  0.79  0.46  0.00  0.00   33.88   51.46    1.87    0.00    1.20
 1988 289    62    25     3     3.5  122.1   16612  105.6   16.5   3.5   6.4  11.1  12.4  12.1   5.0   2.8   1.8   0.0   0.0   0.1   0.5   1.1   0.8   1.0  1.93  0.79  0.46  0.00  0.00   34.47   52.07    1.88    0.00    1.21
 1988 290    63    25     3     3.5  120.5   16611  104.1   16.4   3.4   6.2  10.7  12.2  12.0   5.0   2.8   1.8   0.0   0.0   0.1   0.5   1.0   0.7   1.0  1.94  0.79  0.46  0.00  0.00   35.02   52.65    1.89    0.00    1.23
 1988 291    64    25     3     3.5  119.0   16611  102.7   16.3   3.4   6.0  10.2  12.0  11.9   5.0   2.8   1.8   0.0   0.0   0.1   0.4   1.0   0.7   1.0  1.95  0.80  0.46  0.00  0.00   35.55   53.19    1.89    0.00    1.25
 1988 292    65    25     3     3.5  118.1   16610  101.9   16.2   3.4   6.0  10.0  11.9  11.9   5.0   2.8   1.8   0.0   0.0   0.1   0.4   1.0   0.7   0.9  1.97  0.80  0.46  0.00  0.00   36.05   53.69    1.90    0.00    1.26
 1988 293    66    25     3     3.5  115.7   16609   99.5   16.1   1.5   5.6  10.0  11.6  11.6   5.0   2.8   1.8   0.0   0.0   0.1   0.4   1.0   0.7   0.9  1.98  0.80  0.46  0.00  0.00   36.57   54.22    1.91    0.00    1.28
 1988 294    67    25     3     3.5  114.9   16609   98.6   16.3   1.5   5.3   9.9  11.5  11.5   5.0   2.8   1.8   0.0   0.0   0.1   0.5   1.0   0.7   0.9  1.99  0.81  0.46  0.00  0.00   37.16   54.62    1.92    0.00    1.29
 1988 295    68    25     3     3.5  111.1   16608   95.0   16.1   1.4   4.9   8.9  11.0  11.2   5.0   2.8   1.8   0.0   0.0   0.1   0.5   0.9   0.7   0.8  2.01  0.81  0.46  0.00  0.00   37.79   55.22    1.92    0.00    1.32
 1988 296    69    25     3     3.5  108.5   16608   92.4   16.1   1.4   4.6   8.2  10.7  10.9   5.0   2.8   1.8   0.0   0.0   0.1   0.5   0.9   0.7   0.8  2.02  0.81  0.45  0.00  0.00   38.44   55.80    1.93    0.00    1.34
 1988 297    70    25     3     3.5  106.2   16607   90.2   16.1   1.4   4.3   7.7  10.4  10.6   5.0   2.9   1.9   0.0   0.0   0.1   0.5   0.9   0.6   0.8  2.03  0.82  0.45  0.00  0.00   39.13   56.42    1.94    0.00    1.36
 1988 298    71    25     3     3.5  101.5   16606   85.5   16.0   1.3   3.8   6.6   9.8  10.1   5.0   2.9   1.9   0.0   0.0   0.1   0.5   0.9   0.6   0.8  2.05  0.82  0.45  0.00  0.00   39.79   57.02    1.94    0.00    1.38
 1988 299    72    25     3     3.5   98.0   16606   82.1   15.9   1.2   3.4   5.8   9.3   9.7   5.0   2.9   1.9   0.0   0.0   0.1   0.5   0.8   0.6   0.7  2.06  0.82  0.45  0.00  0.00   40.45   57.63    1.95    0.00    1.40
 1988 300    73    25     3     3.5   97.0   16605   81.1   15.9   1.2   3.3   5.6   9.2   9.5   5.1   2.9   1.9   0.0   0.0   0.1   0.5   0.8   0.6   0.7  2.07  0.83  0.45  0.00  0.00   41.08   58.20    1.96    0.00    1.41
 1988 301    74    25     3     3.5   93.0   16604   77.2   15.8   1.1   2.9   4.7   8.6   9.0   5.1   2.9   1.9   0.0   0.0   0.1   0.5   0.8   0.6   0.7  2.09  0.83  0.45  0.00  0.00   41.67   58.73    1.96    0.00    1.42
 1988 302    75    25     3     3.5   90.2   16604   74.5   15.7   1.1   2.6   4.2   8.2   8.6   5.1   2.9   1.9   0.0   0.0   0.1   0.4   0.8   0.6   0.7  2.10  0.83  0.45  0.00  0.00   42.22   59.25    1.96    0.00    1.42
 1988 303    76    25     3     3.5   86.0   16603   70.4   15.6   0.4   2.0   3.7   7.6   8.1   5.0   2.9   1.9   0.0   0.0   0.1   0.4   0.7   0.6   0.7  2.10  0.83  0.45  0.00  0.00   42.77   59.77    1.97    0.00    1.42
 1988 304    77    25     3     3.5   81.5   16603   66.1   15.5   0.4   1.7   2.9   7.0   7.5   4.9   2.9   1.9   0.0   0.0   0.1   0.5   0.7   0.5   0.6  2.06  0.84  0.44  0.00  0.00   43.42   60.26    1.97    0.00    1.42
 1988 305    78    25     3     3.5   80.0   16602   64.6   15.4   0.3   1.2   2.6   7.1   7.4   4.9   2.9   1.9   0.0   0.0   0.1   0.5   0.7   0.5   0.6  2.03  0.84  0.44  0.00  0.00   44.11   60.92    1.97    0.00    1.43
 1988 306    79    25     3     3.5   75.1   16601   59.7   15.4   0.3   0.9   2.1   6.0   6.8   4.7   2.9   1.9   0.0   0.0   0.2   0.6   0.8   0.6   0.6  1.96  0.84  0.44  0.00  0.00   44.83   61.22    1.98    0.00    1.43
 1988 307    80    25     3     3.5   71.2   16601   56.2   15.0   0.5   0.9   1.7   5.5   6.3   4.5   2.9   1.9   0.0   0.0   0.1   0.6   0.9   0.6   0.6  1.88  0.85  0.44  0.00  0.00   45.53   61.86    1.98    0.00    1.43
 1988 308    81    25     3     3.5   67.6   16600   53.1   14.5   0.5   0.8   1.4   5.0   5.8   4.2   2.9   1.9   0.0   0.0   0.1   0.5   0.8   0.6   0.6  1.80  0.85  0.44  0.00  0.00   46.21   62.49    1.98    0.00    1.44
 1988 309    82    25     3     3.5   63.4   16599   49.3   14.0   0.5   0.7   1.1   4.5   5.3   4.0   2.9   1.9   0.0   0.0   0.1   0.5   0.8   0.6   0.6  1.71  0.85  0.44  0.00  0.00   46.84   63.07    1.98    0.00    1.44
 1988 310    83    25     3     3.5   58.7   16599   45.2   13.5   0.5   0.6   0.8   4.0   4.7   3.6   3.0   1.9   0.0   0.0   0.1   0.5   0.7   0.5   0.6  1.60  0.85  0.44  0.00  0.00   47.50   63.65    1.99    0.00    1.44
 1988 311    84    25     3     3.5   53.1   16598   40.3   12.8   0.4   0.4   0.5   3.3   4.0   3.2   3.0   1.9   0.0   0.0   0.1   0.5   0.7   0.5   0.5  1.47  0.86  0.44  0.00  0.00   48.20   64.27    1.99    0.00    1.44
 1988 312    85    25     3     3.5   47.2   16597   35.1   12.1   0.4   0.4   0.3   2.6   3.3   2.7   3.0   1.9   0.0   0.0   0.1   0.5   0.6   0.5   0.5  1.32  0.86  0.44  0.00  0.00   48.93   64.92    1.99    0.00    1.45
 1988 313    86    25     3     3.5   42.2   16597   30.8   11.4   0.4   0.4   0.3   2.0   2.6   2.2   3.0   1.9   0.0   0.0   0.1   0.5   0.6   0.5   0.5  1.18  0.86  0.44  0.00  0.00   49.68   65.59    1.99    0.00    1.45
 1988 314    87    25     3     3.5   38.2   16596   27.4   10.9   0.4   0.4   0.3   1.5   2.0   1.9   3.0   1.9   0.0   0.0   0.1   0.4   0.6   0.5   0.5  1.06  0.86  0.43  0.00  0.00   50.41   66.24    2.00    0.00    1.45
 1988 315    88    25     3     3.5   35.1   16595   24.6   10.4   0.4   0.4   0.3   1.2   1.6   1.5   3.0   1.9   0.0   0.0   0.1   0.4   0.6   0.5   0.5  0.97  0.87  0.43  0.00  0.00   51.11   66.87    2.00    0.00    1.45
 1988 316    89    25     3     3.5   32.5   16595   22.5   10.1   0.1   0.3   0.4   1.0   1.3   1.3   3.0   2.0   0.0   0.0   0.1   0.4   0.6   0.5   0.5  0.90  0.87  0.43  0.00  0.00   51.77   67.45    2.00    0.00    1.46
 1988 317    90    25     3     3.5   30.7   16594   20.4   10.2   0.1   0.2   0.2   0.7   1.1   1.1   3.0   2.0   0.0   0.0   0.2   0.5   0.7   0.5   0.5  0.84  0.87  0.43  0.00  0.00   52.53   67.72    2.00    0.00    1.46
 1988 318    91    25     3     3.5   29.6   16593   19.2   10.4   0.1   0.2   0.3   0.6   0.9   0.9   3.0   2.0   0.0   0.0   0.3   0.6   0.7   0.5   0.5  0.79  0.87  0.43  0.00  0.00   53.28   67.96    2.00    0.00    1.46
 1988 319    92    25     3     3.5   28.5   16593   18.3   10.2   0.6   0.3   0.3   0.4   0.8   0.7   3.0   2.0   0.0   0.0   0.0   0.7   0.7   0.6   0.5  0.75  0.88  0.43  0.00  0.00   54.04   68.43    2.00    0.00    1.46
 1988 320    93    25     3     3.5   27.4   16592   17.7    9.7   0.3   0.5   0.3   0.4   0.6   0.6   3.1   2.0   0.0   0.0   0.1   0.5   0.6   0.6   0.5  0.72  0.86  0.43  0.00  0.00   54.81   69.09    2.00    0.00    1.47
 1988 321    94    25     3     3.5   26.6   16591   17.1    9.5   0.4   0.4   0.3   0.3   0.5   0.5   3.1   2.0   0.0   0.0   0.1   0.5   0.6   0.5   0.5  0.69  0.84  0.43  0.00  0.00   55.58   69.76    2.01    0.00    1.47
 1988 322    95    25     3     3.5   25.9   16590   16.6    9.3   0.4   0.4   0.3   0.3   0.4   0.4   3.1   2.0   0.0   0.0   0.1   0.5   0.6   0.5   0.5  0.67  0.83  0.43  0.00  0.00   56.39   70.44    2.01    0.00    1.47
 1988 323    96    25     3     3.5   25.6   16590   16.4    9.2   0.5   0.4   0.3   0.3   0.4   0.4   3.1   2.0   0.0   0.0   0.1   0.5   0.6   0.5   0.5  0.65  0.81  0.43  0.00  0.00   57.25   71.19    2.01    0.00    1.47
 1988 324    97    25     3     3.5   25.2   16589   16.1    9.1   0.3   0.5   0.4   0.3   0.3   0.3   3.2   2.0   0.0   0.0   0.1   0.5   0.6   0.5   0.5  0.63  0.80  0.42  0.00  0.00   58.08   71.88    2.01    0.00    1.48
 1988 325    98    25     3     3.5   24.9   16588   15.7    9.2   0.3   0.3   0.3   0.3   0.3   0.3   3.2   2.0   0.0   0.0   0.3   0.6   0.6   0.5   0.5  0.62  0.78  0.42  0.00  0.00   58.93   72.35    2.01    0.00    1.48
 1988 326    99    25     3     3.5   24.1   16587   15.4    8.8   0.6   0.5   0.4   0.3   0.3   0.3   2.9   2.0   0.0   0.0   0.0   0.5   0.6   0.5   0.5  0.61  0.74  0.42  0.00  0.00   59.78   73.29    2.01    0.00    1.48
 1988 327   100    25     3     3.5   23.1   16587   14.1    9.0   0.3   0.3   0.3   0.3   0.3   0.3   2.5   2.0   0.0   0.0   0.2   0.6   0.7   0.5   0.5  0.60  0.70  0.42  0.00  0.00   60.57   73.59    2.01    0.00    1.48
 1988 328   101    25     3     3.5   22.4   16586   13.2    9.2   0.3   0.3   0.3   0.3   0.3   0.3   2.2   2.0   0.0   0.0   0.3   0.7   0.7   0.6   0.5  0.59  0.66  0.42  0.00  0.00   61.30   73.84    2.01    0.00    1.48
 1988 329   102    25     3     3.5   21.7   16585   12.9    8.8   0.6   0.3   0.3   0.3   0.3   0.3   2.0   2.0   0.0   0.0   0.1   0.7   0.6   0.5   0.5  0.59  0.63  0.42  0.00  0.00   62.03   74.45    2.01    0.00    1.48
 1988 330   103    25     3     3.5   20.8   16585   12.4    8.5   0.3   0.4   0.3   0.3   0.3   0.3   1.7   2.0   0.0   0.0   0.1   0.5   0.6   0.5   0.5  0.58  0.61  0.42  0.00  0.00   62.74   75.06    2.01    0.00    1.48
 1988 331   104    25     3     3.5   20.2   16584   11.8    8.3   0.4   0.4   0.3   0.3   0.3   0.3   1.5   2.0   0.0   0.0   0.1   0.5   0.6   0.5   0.5  0.58  0.58  0.42  0.00  0.00   63.45   75.64    2.01    0.00    1.49
 1988 332   105    25     3     3.5   19.7   16583   11.4    8.3   0.4   0.4   0.3   0.3   0.3   0.3   1.4   2.0   0.0   0.0   0.1   0.5   0.6   0.5   0.5  0.57  0.57  0.42  0.00  0.00   64.18   76.23    2.01    0.00    1.49
 1988 333   106    25     3     3.5   19.3   16583   11.1    8.2   0.4   0.4   0.3   0.3   0.3   0.3   1.2   2.0   0.0   0.0   0.1   0.5   0.6   0.5   0.5  0.57  0.55  0.42  0.00  0.00   64.91   76.82    2.01    0.00    1.49
 1988 334   107    25     3     3.5   18.9   16582   10.7    8.2   0.4   0.4   0.3   0.3   0.3   0.3   1.1   2.0   0.0   0.0   0.1   0.5   0.6   0.5   0.5  0.57  0.54  0.42  0.00  0.00   65.62   77.40    2.01    0.00    1.49
 1988 335   108    25     3     3.5   18.5   16581   10.5    8.1   0.4   0.4   0.3   0.3   0.3   0.3   0.9   2.1   0.0   0.0   0.1   0.5   0.6   0.5   0.5  0.56  0.53  0.41  0.00  0.00   66.32   78.00    2.01    0.00    1.49
 1988 336   109    25     3     3.5   18.2   16581   10.2    8.0   0.4   0.4   0.3   0.3   0.3   0.3   0.8   2.1   0.0   0.0   0.1   0.5   0.6   0.5   0.5  0.56  0.52  0.40  0.00  0.00   66.99   78.59    2.01    0.00    1.50
 1988 337   110    25     3     3.5   17.9   16580   10.0    7.9   0.4   0.4   0.3   0.3   0.3   0.3   0.7   2.1   0.0   0.0   0.1   0.5   0.6   0.5   0.5  0.56  0.51  0.39  0.00  0.00   67.64   79.18    2.01    0.00    1.50
 1988 338   111    25     3     3.5   17.7   16580    9.9    7.8   0.4   0.4   0.3   0.3   0.3   0.3   0.7   2.1   0.0   0.0   0.1   0.5   0.6   0.5   0.5  0.56  0.50  0.38  0.00  0.00   68.28   79.79    2.01    0.00    1.50
 1988 339   112    25     3     3.5   17.4   16579    9.8    7.6   0.4   0.4   0.3   0.3   0.3   0.3   0.6   2.1   0.0   0.0   0.1   0.4   0.6   0.5   0.5  0.55  0.49  0.37  0.00  0.00   68.91   80.43    2.01    0.00    1.50
 1988 340   113    25     3     3.5   17.2   16578    9.7    7.5   0.2   0.4   0.4   0.3   0.3   0.3   0.5   2.1   0.0   0.0   0.1   0.4   0.5   0.5   0.5  0.55  0.48  0.36  0.00  0.00   69.52   81.08    2.01    0.00    1.51
 1988 341   114    25     3     3.5   17.1   16578    9.3    7.7   0.2   0.3   0.3   0.3   0.3   0.3   0.5   2.1   0.0   0.0   0.2   0.5   0.6   0.5   0.5  0.55  0.47  0.35  0.00  0.00   70.31   81.53    2.01    0.00    1.51
 1988 342   115    25     3     3.5   17.0   16577    9.5    7.4   0.7   0.5   0.3   0.3   0.3   0.3   0.4   2.0   0.0   0.0   0.0   0.5   0.6   0.5   0.5  0.55  0.47  0.35  0.00  0.00   71.13   82.48    2.01    0.00    1.51
 1988 343   116    25     3     3.5   16.4   16576    8.9    7.5   0.2   0.5   0.3   0.3   0.3   0.3   0.4   1.9   0.0   0.0   0.2   0.4   0.6   0.5   0.5  0.55  0.46  0.34  0.00  0.00   71.93   83.14    2.01    0.00    1.51
 1988 344   117    25     3     3.5   16.0   16575    8.6    7.4   0.3   0.4   0.3   0.3   0.3   0.3   0.4   1.8   0.0   0.0   0.3   0.4   0.6   0.5   0.5  0.55  0.45  0.33  0.00  0.00   72.70   83.81    2.01    0.00    1.51
 1988 345   118    25     3     3.5   15.7   16575    8.5    7.2   0.8   0.4   0.3   0.3   0.3   0.3   0.3   1.7   0.0   0.0   0.0   0.4   0.6   0.4   0.4  0.55  0.44  0.32  0.00  0.00   73.43   84.68    2.01    0.00    1.51
 1988 346   119    25     3     3.5   15.0   16574    7.9    7.2   0.3   0.4   0.3   0.3   0.3   0.3   0.3   1.6   0.0   0.0   0.2   0.4   0.6   0.4   0.4  0.54  0.43  0.32  0.00  0.00   74.10   85.22    2.01    0.00    1.51
 1988 347   120    25     3     3.5   14.7   16574    7.7    7.0   0.6   0.4   0.3   0.3   0.3   0.3   0.3   1.5   0.0   0.0   0.0   0.4   0.5   0.4   0.4  0.54  0.43  0.31  0.00  0.00   74.72   85.93    2.01    0.00    1.51
 1988 348   121    25     3     3.5   14.3   16573    7.3    7.0   0.0   0.3   0.4   0.4   0.3   0.3   0.3   1.5   0.0   0.0   0.1   0.4   0.5   0.4   0.4  0.54  0.42  0.31  0.00  0.00   75.31   86.47    2.01    0.00    1.51
 1988 349   122    25     3     3.5   14.3   16572    6.8    7.4   0.0   0.3   0.3   0.3   0.3   0.3   0.3   1.4   0.0   0.0   0.3   0.5   0.7   0.5   0.4  0.54  0.41  0.30  0.00  0.00   76.06   86.70    2.01    0.00    1.52
 1988 350   123    25     3     3.5   14.3   16572    7.0    7.4   0.5   0.4   0.3   0.3   0.3   0.3   0.3   1.3   0.0   0.0   0.0   0.5   0.7   0.5   0.4  0.54  0.41  0.29  0.00  0.00   76.85   87.35    2.01    0.00    1.52
 1988 351   124    25     3     3.5   14.1   16571    6.8    7.3   0.3   0.4   0.3   0.3   0.3   0.3   0.3   1.2   0.0   0.0   0.2   0.5   0.6   0.5   0.4  0.54  0.40  0.29  0.00  0.00   77.63   87.95    2.01    0.00    1.52
 1988 352   125    25     3     3.5   14.0   16570    6.8    7.2   0.5   0.4   0.3   0.3   0.3   0.3   0.3   1.1   0.0   0.0   0.1   0.5   0.6   0.5   0.4  0.54  0.39  0.28  0.00  0.00   78.39   88.63    2.01    0.00    1.53
 1988 353   126    25     3     3.5   13.8   16570    6.6    7.2   0.4   0.4   0.3   0.3   0.3   0.3   0.3   1.1   0.0   0.0   0.1   0.5   0.6   0.5   0.4  0.54  0.38  0.27  0.00  0.00   79.18   89.29    2.01    0.00    1.53
 1988 354   127    25     3     3.5   13.6   16569    6.5    7.1   0.5   0.4   0.3   0.3   0.3   0.3   0.3   1.0   0.0   0.0   0.1   0.5   0.6   0.5   0.4  0.53  0.38  0.27  0.00  0.00   79.99   90.01    2.01    0.00    1.53
 1988 355   128    25     3     3.5   13.4   16568    6.3    7.1   0.4   0.4   0.3   0.3   0.3   0.3   0.3   1.0   0.0   0.0   0.1   0.4   0.6   0.5   0.4  0.53  0.37  0.26  0.00  0.00   80.77   90.68    2.01    0.00    1.53
 1988 356   129    25     3     3.5   13.2   16567    6.2    7.0   0.4   0.4   0.3   0.3   0.3   0.3   0.3   0.9   0.0   0.0   0.1   0.4   0.6   0.5   0.4  0.53  0.36  0.26  0.00  0.00   81.51   91.36    2.01    0.00    1.53
 1988 357   130    25     3     3.5   13.0   16567    6.0    6.9   0.4   0.4   0.3   0.3   0.3   0.3   0.3   0.9   0.0   0.0   0.1   0.4   0.6   0.5   0.4  0.53  0.36  0.25  0.00  0.00   82.20   91.99    2.01    0.00    1.54
 1988 358   131    25     3     3.5   12.8   16566    5.9    6.8   0.4   0.4   0.3   0.3   0.3   0.3   0.3   0.8   0.0   0.0   0.1   0.4   0.6   0.5   0.4  0.53  0.35  0.24  0.00  0.00   82.86   92.61    2.01    0.00    1.54
 1988 359   132    25     3     3.5   12.6   16566    5.8    6.7   0.4   0.4   0.3   0.3   0.3   0.3   0.3   0.8   0.0   0.0   0.1   0.4   0.6   0.5   0.4  0.53  0.35  0.24  0.00  0.00   83.49   93.22    2.01    0.00    1.54
 1988 360   133    25     3     3.5   12.3   16565    5.7    6.6   0.2   0.4   0.4   0.3   0.3   0.3   0.3   0.7   0.0   0.0   0.1   0.4   0.5   0.5   0.4  0.53  0.34  0.23  0.00  0.00   84.08   93.84    2.01    0.00    1.54
 1988 361   134    25     3     3.5   12.3   16564    5.4    6.9   0.2   0.3   0.3   0.3   0.3   0.3   0.3   0.7   0.0   0.0   0.2   0.5   0.6   0.5   0.4  0.53  0.34  0.23  0.00  0.00   84.86   94.27    2.01    0.00    1.55
 1988 362   135    25     3     3.5   12.5   16564    5.8    6.7   0.7   0.5   0.4   0.3   0.3   0.3   0.3   0.7   0.0   0.0   0.0   0.5   0.6   0.5   0.4  0.53  0.33  0.22  0.00  0.00   85.66   95.20    2.01    0.00    1.55
 1988 363   136    25     3     3.5   12.2   16563    5.5    6.7   0.2   0.5   0.4   0.3   0.3   0.3   0.3   0.6   0.0   0.0   0.2   0.4   0.6   0.5   0.4  0.53  0.32  0.22  0.00  0.00   86.46   95.85    2.01    0.00    1.55
 1988 364   137    25     3     3.5   12.1   16562    5.6    6.5   0.7   0.5   0.3   0.3   0.3   0.3   0.3   0.6   0.0   0.0   0.0   0.4   0.6   0.4   0.4  0.53  0.32  0.21  0.00  0.00   87.23   96.70    2.01    0.00    1.55
 1988 365   138    25     3     3.5   11.8   16561    5.3    6.5   0.2   0.4   0.3   0.3   0.3   0.3   0.3   0.6   0.0   0.0   0.2   0.4   0.6   0.4   0.4  0.53  0.31  0.21  0.00  0.00   87.92   97.28    2.01    0.00    1.55
 1988 366   139    25     3     3.5   11.6   16561    5.4    6.3   0.5   0.4   0.4   0.3   0.3   0.3   0.3   0.5   0.0   0.0   0.0   0.4   0.5   0.4   0.4  0.53  0.31  0.20  0.00  0.00   88.53   98.01    2.01    0.00    1.55
 1989 001   140    25     3     3.5   11.5   16560    5.1    6.4   0.3   0.4   0.3   0.3   0.3   0.3   0.3   0.5   0.0   0.0   0.2   0.4   0.6   0.4   0.4  0.53  0.30  0.20  0.00  0.00   89.27   98.52    2.01    0.00    1.55
 1989 002   141    25     3     3.5   11.6   16560    5.3    6.3   0.6   0.4   0.3   0.3   0.3   0.3   0.3   0.5   0.0   0.0   0.0   0.4   0.6   0.4   0.4  0.53  0.30  0.19  0.00  0.00   90.01   99.27    2.01    0.00    1.55
 1989 003   142    25     3     3.5   11.4   16559    5.1    6.3   0.3   0.4   0.3   0.3   0.3   0.3   0.3   0.5   0.0   0.0   0.2   0.4   0.6   0.4   0.4  0.53  0.29  0.19  0.00  0.00   90.75   99.89    2.01    0.00    1.56
 1989 004   143    25     3     3.5   11.3   16558    5.2    6.1   0.6   0.5   0.4   0.3   0.3   0.3   0.3   0.4   0.0   0.0   0.0   0.4   0.6   0.4   0.4  0.53  0.29  0.18  0.00  0.00   91.45  100.71    2.01    0.00    1.56
 1989 005   144    25     3     3.5   11.0   16558    5.0    6.1   0.0   0.4   0.4   0.3   0.3   0.3   0.3   0.4   0.0   0.0   0.2   0.3   0.5   0.4   0.4  0.53  0.28  0.18  0.00  0.00   92.10  101.33    2.01    0.00    1.56
 1989 006   145    25     3     3.5   11.0   16557    5.0    6.0   0.4   0.4   0.4   0.3   0.3   0.3   0.3   0.4   0.0   0.0   0.0   0.4   0.6   0.4   0.4  0.53  0.28  0.17  0.00  0.00   92.95  102.16    2.01    0.00    1.56
 1989 007   146    25     3     3.5   11.0   16556    4.9    6.1   0.2   0.4   0.4   0.3   0.3   0.3   0.3   0.4   0.0   0.0   0.2   0.4   0.6   0.4   0.4  0.53  0.27  0.17  0.00  0.00   93.78  102.78    2.01    0.00    1.56
 1989 008   147    25     3     3.5   11.0   16555    5.1    5.9   0.7   0.4   0.4   0.3   0.3   0.3   0.3   0.4   0.0   0.0   0.0   0.4   0.6   0.4   0.4  0.53  0.27  0.17  0.00  0.00   94.58  103.64    2.01    0.00    1.56
 1989 009   148    25     3     3.5   10.8   16555    4.8    6.0   0.3   0.4   0.4   0.3   0.3   0.3   0.3   0.3   0.0   0.0   0.2   0.4   0.6   0.4   0.4  0.53  0.27  0.16  0.00  0.00   95.32  104.23    2.01    0.00    1.56
 1989 010   149    25     3     3.5   10.7   16554    4.9    5.8   0.5   0.4   0.4   0.3   0.3   0.3   0.3   0.3   0.0   0.0   0.0   0.4   0.6   0.4   0.3  0.53  0.26  0.16  0.00  0.00   95.99  105.01    2.01    0.00    1.56
 1989 011   150    25     3     3.5   10.6   16553    4.5    6.1   0.2   0.3   0.3   0.3   0.3   0.3   0.3   0.3   0.0   0.0   0.2   0.5   0.6   0.4   0.3  0.53  0.26  0.15  0.00  0.00   96.77  105.39    2.01    0.00    1.56
 1989 012   151    25     3     3.5   10.8   16553    4.9    5.9   0.7   0.5   0.3   0.3   0.3   0.3   0.3   0.3   0.0   0.0   0.0   0.5   0.6   0.3   0.3  0.52  0.25  0.15  0.00  0.00   97.54  106.24    2.01    0.00    1.56
 1989 013   152    25     3     3.5   10.6   16552    4.6    5.9   0.2   0.5   0.3   0.3   0.3   0.3   0.3   0.3   0.0   0.0   0.2   0.5   0.6   0.3   0.3  0.52  0.25  0.15  0.00  0.00   98.27  106.81    2.01    0.00    1.56
 1989 014   153    25     3     3.5   10.5   16551    4.8    5.7   0.6   0.5   0.3   0.3   0.3   0.3   0.3   0.3   0.0   0.0   0.0   0.4   0.6   0.3   0.3  0.52  0.25  0.14  0.00  0.00   98.95  107.58    2.01    0.00    1.56
 1989 015   154    25     3     3.5   10.3   16551    4.5    5.7   0.0   0.4   0.4   0.3   0.3   0.3   0.3   0.3   0.0   0.0   0.2   0.4   0.6   0.3   0.3  0.52  0.24  0.14  0.00  0.00   99.57  108.12    2.01    0.00    1.56
 1989 016   155    25     3     3.5   10.3   16550    4.3    6.0   0.1   0.1   0.4   0.4   0.3   0.3   0.3   0.3   0.0   0.0   0.3   0.5   0.6   0.3   0.3  0.52  0.24  0.14  0.00  0.00  100.34  108.53    2.01    0.00    1.56
 1989 017   156    25     3     3.5   11.1   16549    4.8    6.3   0.6   0.2   0.4   0.4   0.3   0.3   0.3   0.3   0.0   0.0   0.0   0.7   0.7   0.4   0.3  0.53  0.24  0.13  0.00  0.00  101.17  109.06    2.01    0.00    1.56
 1989 018   157    25     3     3.5   12.0   16549    5.5    6.4   0.6   0.5   0.5   0.4   0.3   0.3   0.3   0.3   0.0   0.0   0.2   0.6   0.8   0.4   0.3  0.53  0.23  0.13  0.00  0.00  102.01  109.78    2.01    0.00    1.56

*DSSAT Cropping System Model Ver. 4.0.2.000               Aug 03, 2016; 15:38:15

*RUN   3        : UYMZ                    
 MODEL          : MZCER040 - Maize           
 EXPERIMENT     : UYMZ0131 MZ    late to create DSS                             
 TREATMENT  1   : UYMZ                    

@YEAR DOY   DAS  NAPC  NI#M    NLCC   NIAD    NOAD   NITD   NHTD  NI1D  NI2D  NI3D  NI4D  NI5D  NI6D  NI7D  NI8D  NI9D  NI10  NH1D  NH2D  NH3D  NH4D  NH5D  NH6D  NH7D  NH8D  NH9D  NH10    NMNC    NITC    NDNC    NIMC    AMLC
 1989 227     0     0     0     0.0   99.4   16645   77.0   22.4  16.5  15.4  15.2   8.6   4.6   0.0   0.1   0.1   0.0   0.0   0.1   1.3   1.5   1.4   1.4  1.50  1.46  1.45  0.00  0.00    0.66    2.20    0.00    0.00    0.00
 1989 228     1     0     0     0.0  100.1   16645   78.3   21.7  16.6  15.7  15.3   8.7   4.7   0.0   0.1   0.1   0.0   0.0   0.1   1.1   1.4   1.4   1.4  1.51  1.43  1.41  0.00  0.00    1.33    3.53    0.00    0.00    0.00
 1989 229     2     0     0     0.0  100.8   16644   79.6   21.1  16.8  15.9  15.5   8.8   4.7   0.1   0.2   0.2   0.0   0.0   0.1   0.9   1.4   1.3   1.3  1.51  1.39  1.36  0.00  0.00    2.01    4.83    0.00    0.00    0.00
 1989 230     3     0     0     0.0  101.5   16643   80.9   20.6   4.9  17.1  19.0   8.9   4.8   0.1   0.2   0.2   0.0   0.0   0.1   0.8   1.4   1.2   1.3  1.51  1.36  1.32  0.00  0.00    2.70    6.06    0.00    0.00    0.00
 1989 231     4     1     1     0.0  103.1   16643   82.3   20.8   5.8  16.5  19.6   9.1   4.9   0.1   0.2   0.3   0.0   0.0   1.1   0.9   1.3   1.2   1.2  1.52  1.32  1.28  0.00  0.00    3.41    7.01    0.00    0.00    0.04
 1989 232     5     3     2     0.0  105.8   16642   84.9   20.9   6.6  13.7  21.6   9.9   5.0   0.1   0.3   0.3   0.0   0.0   1.7   1.0   1.3   1.1   1.2  1.52  1.29  1.23  0.00  0.00    4.11    8.62    0.00    0.00    0.08
 1989 233     6     3     2     0.0  106.4   16641   85.8   20.7   6.5  13.6  21.1  10.6   5.0   0.1   0.3   0.3   0.0   0.0   1.5   1.1   1.4   1.1   1.1  1.52  1.26  1.20  0.00  0.00    4.79    9.44    0.00    0.00    0.13
 1989 234     7     3     2     0.0  107.0   16641   86.6   20.5   2.9   9.0  17.2  12.5   8.5   1.1   0.4   0.4   0.0   0.0   1.2   1.1   1.5   1.1   1.1  1.52  1.23  1.16  0.00  0.00    5.43   10.25    0.00    0.00    0.17
 1989 235     8     3     2     0.2  107.3   16640   86.6   20.7   3.1   8.8  16.8  12.1   8.5   1.4   0.5   0.4   0.0   0.0   1.0   1.2   1.6   1.1   1.1  1.54  1.23  1.15  0.00  0.00    6.01   10.53    0.09    0.00    0.22
 1989 236     9     3     2     0.3  107.6   16640   87.0   20.6   3.8   8.7  16.6  11.9   8.5   1.5   0.6   0.4   0.0   0.0   0.3   1.3   1.6   1.1   1.2  1.56  1.23  1.14  0.00  0.00    6.52   11.09    0.14    0.00    0.31
 1989 237    10     3     2     0.3  107.9   16639   87.4   20.5   4.1   8.8  16.5  11.8   8.5   1.6   0.6   0.5   0.0   0.0   0.1   1.1   1.7   1.1   1.2  1.57  1.23  1.13  0.00  0.00    7.00   11.57    0.20    0.00    0.37
 1989 238    11     3     2     0.3  108.3   16639   87.7   20.5   4.4   8.9  16.5  11.7   8.5   1.6   0.7   0.5   0.0   0.0   0.0   1.0   1.7   1.1   1.2  1.59  1.23  1.12  0.00  0.00    7.46   11.96    0.21    0.00    0.41
 1989 239    12     3     2     0.4  108.7   16638   88.2   20.5   4.6   8.9  16.6  11.7   8.5   1.7   0.7   0.5   0.0   0.0   0.1   1.0   1.7   1.2   1.2  1.60  1.23  1.11  0.00  0.00    7.92   12.48    0.23    0.00    0.41
 1989 240    13     3     2     0.4  109.1   16638   88.7   20.4   4.9   9.0  16.7  11.7   8.5   1.7   0.7   0.5   0.0   0.0   0.1   0.9   1.7   1.2   1.2  1.61  1.23  1.10  0.00  0.00    8.39   13.01    0.24    0.00    0.43
 1989 241    14     3     2     0.4  109.6   16637   89.2   20.3   5.2   9.1  16.8  11.7   8.5   1.7   0.7   0.5   0.0   0.0   0.1   0.8   1.6   1.2   1.2  1.63  1.23  1.09  0.00  0.00    8.87   13.53    0.25    0.00    0.45
 1989 242    15     3     2     0.4  110.1   16637   89.8   20.3   5.4   9.2  16.9  11.7   8.5   1.7   0.7   0.5   0.0   0.0   0.1   0.8   1.6   1.2   1.2  1.64  1.23  1.08  0.00  0.00    9.38   14.08    0.26    0.00    0.45
 1989 243    16     3     2     0.4  110.6   16636   90.4   20.2   3.3   8.5  17.1  12.5   8.8   1.8   0.7   0.5   0.0   0.0   0.1   0.7   1.5   1.1   1.2  1.66  1.23  1.08  0.00  0.00    9.93   14.75    0.27    0.00    0.45
 1989 244    17     3     2     0.5  111.0   16636   90.5   20.5   3.2   8.3  16.7  12.3   8.9   2.0   0.8   0.6   0.0   0.0   0.2   0.8   1.6   1.2   1.2  1.67  1.23  1.07  0.00  0.00   10.47   14.95    0.30    0.00    0.45
 1989 245    18     3     2     0.5  111.5   16635   90.7   20.8   3.4   8.2  16.5  12.1   8.9   2.1   0.9   0.6   0.0   0.0   0.1   0.9   1.7   1.2   1.3  1.68  1.23  1.06  0.00  0.00   11.01   15.24    0.31    0.00    0.45
 1989 246    19     3     2     0.5  111.8   16634   90.9   20.9   3.7   8.1  16.5  12.1   8.9   2.2   0.9   0.6   0.0   0.0   0.1   0.8   1.8   1.2   1.3  1.70  1.22  1.05  0.00  0.00   11.55   15.67    0.33    0.00    0.46
 1989 247    20     3     2     0.5  112.3   16634   91.5   20.8   4.0   8.2  16.6  12.1   9.0   2.2   0.9   0.6   0.0   0.0   0.1   0.7   1.7   1.2   1.3  1.71  1.22  1.04  0.00  0.00   12.07   16.26    0.33    0.00    0.46
 1989 248    21     3     2     0.5  112.8   16633   92.1   20.8   4.3   8.2  16.7  12.1   9.0   2.2   0.9   0.6   0.0   0.0   0.1   0.7   1.7   1.2   1.3  1.73  1.22  1.03  0.00  0.00   12.61   16.84    0.35    0.00    0.46
 1989 249    22     3     2     0.5  113.4   16633   92.6   20.7   3.6   8.6  16.9  12.1   9.0   2.2   0.9   0.7   0.0   0.0   0.1   0.7   1.6   1.2   1.3  1.74  1.22  1.02  0.00  0.00   13.17   17.43    0.36    0.00    0.47
 1989 250    23     3     2     0.5  113.9   16632   93.1   20.8   3.7   8.5  17.1  12.1   9.0   2.2   1.0   0.7   0.0   0.0   0.1   0.7   1.6   1.2   1.3  1.75  1.22  1.02  0.00  0.00   13.72   17.88    0.37    0.00    0.47
 1989 251    24     3     2     0.5  114.4   16632   93.5   20.9   4.0   8.5  17.1  12.1   9.0   2.2   1.0   0.7   0.0   0.0   0.1   0.7   1.6   1.3   1.3  1.77  1.22  1.01  0.00  0.00   14.27   18.30    0.38    0.00    0.47
[...]
 1992 300    73    25     3     0.0   87.9   16605   75.2   12.6   2.1   7.7  10.4  10.7   7.0   1.6   1.8   1.6   0.0   0.0   0.1   0.5   0.9   0.6   0.6  1.65  0.47  0.24  0.00  0.00   41.55   62.88    0.30    0.00    1.18
 1992 301    74    25     3     0.0   81.0   16604   68.6   12.4   1.9   6.4   8.5  10.0   6.6   1.6   1.9   1.6   0.0   0.0   0.1   0.5   0.8   0.5   0.6  1.65  0.47  0.24  0.00  0.00   42.23   63.58    0.30    0.00    1.20
 1992 302    75    25     3     0.0   75.1   16603   62.9   12.2   1.7   5.3   7.1   9.3   6.2   1.6   1.9   1.6   0.0   0.0   0.1   0.4   0.8   0.5   0.6  1.63  0.46  0.23  0.00  0.00   42.90   64.29    0.30    0.00    1.21
 1992 303    76    25     3     0.0   74.3   16603   62.2   12.1   1.7   5.2   6.9   9.2   6.1   1.6   1.9   1.6   0.0   0.0   0.1   0.4   0.8   0.5   0.6  1.63  0.46  0.23  0.00  0.00   43.52   64.90    0.30    0.00    1.23
 1992 304    77    25     3     0.0   70.0   16602   58.0   11.9   0.6   3.9   6.5   8.7   5.8   1.6   1.9   1.6   0.0   0.0   0.1   0.4   0.7   0.5   0.6  1.61  0.46  0.23  0.00  0.00   44.08   65.48    0.30    0.00    1.24
 1992 305    78    25     3     0.0   66.5   16602   54.6   12.0   0.6   3.5   5.6   8.2   5.5   1.5   1.9   1.6   0.0   0.0   0.2   0.5   0.7   0.5   0.6  1.59  0.45  0.22  0.00  0.00   44.72   65.89    0.30    0.00    1.26
 1992 306    79    25     3     0.0   62.6   16601   50.9   11.7   0.6   3.0   4.7   7.7   5.2   1.5   1.9   1.6   0.0   0.0   0.1   0.5   0.7   0.5   0.6  1.55  0.45  0.22  0.00  0.00   45.33   66.48    0.30    0.00    1.29
 1992 307    80    25     3     0.0   57.9   16600   46.4   11.5   0.5   2.4   3.7   7.1   4.8   1.5   1.9   1.6   0.0   0.0   0.1   0.5   0.7   0.5   0.5  1.50  0.45  0.22  0.00  0.00   45.92   67.00    0.30    0.00    1.30
 1992 308    81    25     3     0.0   52.0   16600   41.0   11.1   0.3   1.6   2.7   6.3   4.3   1.4   2.0   1.7   0.0   0.0   0.1   0.5   0.7   0.5   0.5  1.43  0.45  0.22  0.00  0.00   46.56   67.62    0.30    0.00    1.30
 1992 309    82    25     3     0.0   48.5   16599   37.6   11.0   0.3   1.3   2.1   5.7   4.0   1.3   2.0   1.7   0.0   0.0   0.2   0.6   0.7   0.5   0.5  1.37  0.44  0.21  0.00  0.00   47.22   68.03    0.30    0.00    1.30
 1992 310    83    25     3     0.0   44.4   16599   33.9   10.5   0.5   1.0   1.5   5.1   3.6   1.2   2.0   1.7   0.0   0.0   0.1   0.6   0.7   0.5   0.5  1.30  0.44  0.21  0.00  0.00   47.85   68.69    0.30    0.00    1.30
 1992 311    84    25     3     0.0   43.2   16598   32.8   10.4   0.5   1.0   1.3   4.8   3.4   1.2   2.0   1.7   0.0   0.0   0.1   0.5   0.7   0.5   0.5  1.28  0.44  0.21  0.00  0.00   48.43   69.21    0.30    0.00    1.31
 1992 312    85    25     3     0.0   40.9   16598   30.8   10.2   0.5   0.9   1.1   4.4   3.2   1.1   2.0   1.7   0.0   0.0   0.1   0.5   0.7   0.5   0.5  1.23  0.44  0.20  0.00  0.00   48.97   69.70    0.30    0.00    1.31
 1992 313    86    25     3     0.0   37.2   16597   27.5    9.7   0.4   0.6   0.7   3.8   2.8   1.0   2.0   1.7   0.0   0.0   0.1   0.5   0.6   0.5   0.5  1.16  0.43  0.20  0.00  0.00   49.46   70.15    0.30    0.00    1.31
 1992 314    87    25     3     0.0   32.4   16597   23.2    9.2   0.3   0.3   0.3   2.9   2.2   0.8   2.0   1.7   0.0   0.0   0.1   0.5   0.6   0.5   0.5  1.06  0.43  0.20  0.00  0.00   49.94   70.60    0.30    0.00    1.32
 1992 315    88    25     3     0.0   29.2   16596   20.5    8.7   0.2   0.4   0.4   2.2   1.7   0.7   2.1   1.7   0.0   0.0   0.1   0.5   0.6   0.5   0.5  0.97  0.43  0.20  0.00  0.00   50.46   71.09    0.30    0.00    1.32
 1992 316    89    25     3     0.0   26.8   16596   18.2    8.6   0.2   0.3   0.3   1.7   1.4   0.6   2.1   1.7   0.0   0.0   0.2   0.6   0.6   0.5   0.5  0.89  0.43  0.20  0.00  0.00   51.09   71.42    0.30    0.00    1.32
 1992 317    90    25     3     0.0   25.1   16595   16.7    8.4   0.4   0.3   0.3   1.3   1.1   0.5   2.1   1.7   0.0   0.0   0.1   0.7   0.6   0.5   0.5  0.83  0.42  0.19  0.00  0.00   51.77   71.92    0.30    0.00    1.32
 1992 318    91    25     3     0.0   23.7   16594   15.7    8.0   0.4   0.4   0.3   1.0   0.9   0.4   2.1   1.7   0.0   0.0   0.1   0.5   0.6   0.5   0.5  0.79  0.42  0.19  0.00  0.00   52.49   72.56    0.30    0.00    1.33
 1992 319    92    25     3     0.0   22.5   16594   14.7    7.8   0.4   0.4   0.3   0.8   0.7   0.4   2.1   1.7   0.0   0.0   0.1   0.5   0.6   0.4   0.5  0.75  0.42  0.19  0.00  0.00   53.22   73.17    0.30    0.00    1.33
 1992 320    93    25     3     0.0   21.6   16593   14.0    7.7   0.2   0.4   0.4   0.6   0.6   0.3   2.1   1.7   0.0   0.0   0.1   0.5   0.6   0.4   0.5  0.72  0.42  0.19  0.00  0.00   53.95   73.78    0.30    0.00    1.33
 1992 321    94    25     3     0.0   21.0   16592   13.1    7.9   0.2   0.3   0.3   0.5   0.5   0.3   2.1   1.7   0.0   0.0   0.3   0.6   0.7   0.4   0.5  0.69  0.42  0.19  0.00  0.00   54.72   74.07    0.30    0.00    1.34
 1992 322    95    25     3     0.0   20.8   16591   13.3    7.5   0.6   0.4   0.3   0.4   0.4   0.3   2.1   1.7   0.0   0.0   0.1   0.5   0.6   0.4   0.5  0.67  0.41  0.18  0.00  0.00   55.46   74.83    0.30    0.00    1.34
 1992 323    96    25     3     0.0   20.3   16591   12.9    7.4   0.3   0.4   0.3   0.3   0.3   0.3   2.2   1.8   0.0   0.0   0.1   0.5   0.6   0.5   0.5  0.65  0.41  0.18  0.00  0.00   56.16   75.35    0.30    0.00    1.34
 1992 324    97    25     3     0.0   20.1   16590   12.8    7.3   0.4   0.4   0.3   0.3   0.3   0.3   2.2   1.8   0.0   0.0   0.1   0.5   0.6   0.5   0.4  0.63  0.41  0.18  0.00  0.00   56.83   75.88    0.30    0.00    1.34
 1992 325    98    25     3     0.0   20.0   16590   12.8    7.2   0.4   0.4   0.3   0.3   0.3   0.3   2.2   1.8   0.0   0.0   0.1   0.5   0.6   0.5   0.4  0.62  0.41  0.18  0.00  0.00   57.48   76.40    0.30    0.00    1.35
 1992 326    99    25     3     0.0   19.4   16589   12.2    7.2   0.4   0.4   0.3   0.3   0.3   0.3   2.0   1.8   0.0   0.0   0.1   0.5   0.6   0.5   0.4  0.61  0.41  0.18  0.00  0.00   58.13   76.93    0.30    0.00    1.35
 1992 327   100    25     3     0.0   18.8   16588   11.7    7.1   0.4   0.4   0.3   0.3   0.3   0.3   1.7   1.8   0.0   0.0   0.1   0.5   0.6   0.5   0.4  0.60  0.41  0.18  0.00  0.00   58.76   77.46    0.30    0.00    1.35
 1992 328   101    25     3     0.0   18.2   16588   11.2    7.0   0.4   0.4   0.3   0.3   0.3   0.3   1.5   1.8   0.0   0.0   0.1   0.5   0.6   0.5   0.4  0.60  0.40  0.17  0.00  0.00   59.35   77.96    0.30    0.00    1.35
 1992 329   102    25     3     0.0   17.7   16587   10.7    6.9   0.4   0.4   0.3   0.3   0.3   0.3   1.3   1.8   0.0   0.0   0.1   0.5   0.6   0.5   0.4  0.59  0.40  0.17  0.00  0.00   59.91   78.44    0.30    0.00    1.36
 1992 330   103    25     3     0.0   17.2   16587   10.3    6.9   0.2   0.4   0.4   0.3   0.3   0.3   1.2   1.8   0.0   0.0   0.1   0.4   0.6   0.5   0.4  0.58  0.40  0.17  0.00  0.00   60.43   78.90    0.30    0.00    1.36
 1992 331   104    25     3     0.0   16.8   16586    9.8    7.0   0.2   0.3   0.3   0.3   0.3   0.3   1.0   1.8   0.0   0.0   0.2   0.5   0.6   0.4   0.4  0.58  0.40  0.17  0.00  0.00   61.01   79.19    0.30    0.00    1.36
 1992 332   105    25     3     0.0   16.7   16586    9.8    6.9   0.4   0.4   0.3   0.3   0.3   0.3   0.9   1.8   0.0   0.0   0.1   0.5   0.6   0.4   0.4  0.57  0.40  0.17  0.00  0.00   61.62   79.73    0.30    0.00    1.36
 1992 333   106    25     3     0.0   16.4   16585    9.5    6.9   0.4   0.4   0.3   0.3   0.3   0.3   0.8   1.8   0.0   0.0   0.1   0.5   0.6   0.4   0.4  0.57  0.40  0.17  0.00  0.00   62.26   80.25    0.30    0.00    1.36
 1992 334   107    25     3     0.0   16.2   16585    9.3    6.9   0.4   0.4   0.3   0.3   0.3   0.3   0.7   1.8   0.0   0.0   0.1   0.5   0.6   0.4   0.4  0.57  0.40  0.17  0.00  0.00   62.92   80.79    0.30    0.00    1.37
 1992 335   108    25     3     0.0   16.0   16584    9.2    6.8   0.2   0.4   0.4   0.3   0.3   0.3   0.6   1.8   0.0   0.0   0.1   0.5   0.6   0.4   0.4  0.57  0.39  0.16  0.00  0.00   63.58   81.36    0.30    0.00    1.37
 1992 336   109    25     3     0.0   15.9   16583    8.7    7.2   0.2   0.3   0.3   0.3   0.3   0.3   0.6   1.8   0.0   0.0   0.2   0.6   0.7   0.5   0.4  0.56  0.39  0.16  0.00  0.00   64.32   81.62    0.30    0.00    1.37
 1992 337   110    25     3     0.0   15.9   16583    9.0    6.9   0.6   0.4   0.3   0.3   0.3   0.3   0.5   1.8   0.0   0.0   0.1   0.5   0.6   0.5   0.4  0.56  0.39  0.16  0.00  0.00   65.06   82.37    0.30    0.00    1.37
 1992 338   111    25     3     0.0   15.6   16582    8.7    6.9   0.3   0.4   0.3   0.3   0.3   0.3   0.5   1.8   0.0   0.0   0.1   0.5   0.6   0.5   0.4  0.56  0.39  0.16  0.00  0.00   65.78   82.91    0.30    0.00    1.38
 1992 339   112    25     3     0.0   15.5   16581    8.7    6.8   0.4   0.4   0.3   0.3   0.3   0.3   0.4   1.8   0.0   0.0   0.1   0.5   0.6   0.5   0.4  0.56  0.38  0.16  0.00  0.00   66.49   83.50    0.30    0.00    1.38
 1992 340   113    25     3     0.0   15.4   16581    8.6    6.8   0.4   0.4   0.3   0.3   0.3   0.3   0.4   1.9   0.0   0.0   0.1   0.5   0.6   0.5   0.4  0.56  0.38  0.16  0.00  0.00   67.20   84.07    0.30    0.00    1.38
 1992 341   114    25     3     0.0   15.3   16580    8.5    6.8   0.2   0.4   0.4   0.3   0.3   0.3   0.3   1.9   0.0   0.0   0.1   0.5   0.6   0.5   0.4  0.55  0.38  0.16  0.00  0.00   67.89   84.64    0.30    0.00    1.39
 1992 342   115    25     3     0.0   15.2   16579    8.1    7.1   0.2   0.3   0.3   0.3   0.3   0.3   0.3   1.8   0.0   0.0   0.2   0.6   0.7   0.5   0.4  0.55  0.37  0.16  0.00  0.00   68.64   84.91    0.30    0.00    1.39
 1992 343   116    25     3     0.0   15.2   16579    8.4    6.8   0.6   0.5   0.3   0.3   0.3   0.3   0.3   1.8   0.0   0.0   0.0   0.5   0.6   0.5   0.4  0.55  0.37  0.16  0.00  0.00   69.39   85.69    0.30    0.00    1.39
 1992 344   117    25     3     0.0   14.8   16578    8.0    6.8   0.3   0.4   0.3   0.3   0.3   0.3   0.3   1.7   0.0   0.0   0.1   0.5   0.6   0.5   0.4  0.55  0.37  0.16  0.00  0.00   70.15   86.25    0.30    0.00    1.39
 1992 345   118    25     3     0.0   14.6   16577    7.8    6.7   0.5   0.4   0.3   0.3   0.3   0.3   0.3   1.6   0.0   0.0   0.1   0.5   0.6   0.5   0.4  0.55  0.36  0.15  0.00  0.00   70.88   86.88    0.30    0.00    1.40
 1992 346   119    25     3     0.0   14.3   16577    7.6    6.7   0.4   0.4   0.3   0.3   0.3   0.3   0.3   1.5   0.0   0.0   0.1   0.5   0.6   0.5   0.4  0.55  0.36  0.15  0.00  0.00   71.60   87.46    0.30    0.00    1.40
 1992 347   120    25     3     0.0   14.1   16576    7.4    6.7   0.4   0.4   0.3   0.3   0.3   0.3   0.3   1.4   0.0   0.0   0.1   0.5   0.6   0.5   0.4  0.55  0.36  0.15  0.00  0.00   72.30   88.04    0.30    0.00    1.40
 1992 348   121    25     3     0.0   13.8   16575    7.2    6.7   0.4   0.4   0.3   0.3   0.3   0.3   0.3   1.4   0.0   0.0   0.1   0.5   0.6   0.5   0.4  0.54  0.35  0.15  0.00  0.00   72.98   88.61    0.30    0.00    1.40
 1992 349   122    25     3     0.0   13.5   16575    7.0    6.6   0.4   0.4   0.3   0.3   0.3   0.3   0.3   1.3   0.0   0.0   0.1   0.5   0.6   0.5   0.4  0.54  0.35  0.15  0.00  0.00   73.63   89.20    0.30    0.00    1.41
 1992 350   123    25     3     0.0   13.3   16574    6.8    6.5   0.4   0.4   0.3   0.3   0.3   0.3   0.3   1.2   0.0   0.0   0.1   0.4   0.6   0.5   0.4  0.54  0.35  0.15  0.00  0.00   74.25   89.78    0.30    0.00    1.41
 1992 351   124    25     3     0.0   13.0   16574    6.6    6.4   0.2   0.4   0.4   0.3   0.3   0.3   0.3   1.1   0.0   0.0   0.1   0.4   0.6   0.5   0.4  0.54  0.34  0.15  0.00  0.00   74.84   90.34    0.30    0.00    1.41
 1992 352   125    25     3     0.0   12.9   16573    6.2    6.7   0.2   0.3   0.3   0.3   0.3   0.3   0.3   1.1   0.0   0.0   0.2   0.5   0.6   0.5   0.4  0.54  0.34  0.15  0.00  0.00   75.56   90.71    0.30    0.00    1.41
 1992 353   126    25     3     0.0   12.9   16572    6.5    6.5   0.6   0.4   0.3   0.3   0.3   0.3   0.3   1.0   0.0   0.0   0.0   0.5   0.6   0.5   0.4  0.54  0.34  0.15  0.00  0.00   76.28   91.46    0.30    0.00    1.42
 1992 354   127    25     3     0.0   12.6   16572    6.1    6.5   0.3   0.4   0.3   0.3   0.3   0.3   0.3   0.9   0.0   0.0   0.2   0.5   0.6   0.5   0.4  0.54  0.33  0.15  0.00  0.00   76.98   92.01    0.30    0.00    1.42
 1992 355   128    25     3     0.0   12.5   16571    6.1    6.4   0.5   0.4   0.3   0.3   0.3   0.3   0.3   0.9   0.0   0.0   0.1   0.5   0.6   0.5   0.3  0.54  0.33  0.15  0.00  0.00   77.68   92.67    0.30    0.00    1.42
 1992 356   129    25     3     0.0   12.3   16571    6.0    6.3   0.4   0.4   0.3   0.3   0.3   0.3   0.3   0.8   0.0   0.0   0.1   0.5   0.6   0.5   0.3  0.54  0.33  0.14  0.00  0.00   78.36   93.29    0.30    0.00    1.43
 1992 357   130    25     3     0.0   12.1   16570    5.9    6.2   0.5   0.4   0.3   0.3   0.3   0.3   0.3   0.8   0.0   0.0   0.1   0.4   0.6   0.4   0.3  0.53  0.32  0.14  0.00  0.00   79.00   93.95    0.30    0.00    1.43
 1992 358   131    25     3     0.0   11.9   16569    5.7    6.2   0.4   0.4   0.3   0.3   0.3   0.3   0.3   0.7   0.0   0.0   0.1   0.4   0.5   0.4   0.3  0.53  0.32  0.14  0.00  0.00   79.65   94.55    0.30    0.00    1.43
 1992 359   132    25     3     0.0   11.7   16569    5.6    6.1   0.3   0.4   0.4   0.3   0.3   0.3   0.3   0.7   0.0   0.0   0.1   0.4   0.5   0.4   0.3  0.53  0.31  0.14  0.00  0.00   80.28   95.17    0.30    0.00    1.43
 1992 360   133    25     3     0.0   11.7   16568    5.4    6.3   0.4   0.3   0.3   0.3   0.3   0.3   0.3   0.7   0.0   0.0   0.1   0.5   0.6   0.4   0.3  0.53  0.31  0.14  0.00  0.00   81.03   95.61    0.30    0.00    1.43
 1992 361   134    25     3     0.0   11.7   16568    5.5    6.3   0.4   0.4   0.3   0.3   0.3   0.3   0.3   0.6   0.0   0.0   0.1   0.5   0.6   0.4   0.3  0.53  0.31  0.14  0.00  0.00   81.75   96.24    0.30    0.00    1.44
 1992 362   135    25     3     0.0   11.6   16567    5.3    6.2   0.4   0.4   0.3   0.3   0.3   0.3   0.3   0.6   0.0   0.0   0.1   0.5   0.6   0.4   0.3  0.53  0.30  0.14  0.00  0.00   82.44   96.82    0.30    0.00    1.44
 1992 363   136    25     3     0.0   11.5   16566    5.3    6.2   0.4   0.4   0.3   0.3   0.3   0.3   0.3   0.5   0.0   0.0   0.1   0.5   0.6   0.4   0.3  0.53  0.30  0.14  0.00  0.00   83.11   97.40    0.30    0.00    1.44
 1992 364   137    25     3     0.0   11.3   16566    5.2    6.1   0.4   0.4   0.3   0.3   0.3   0.3   0.3   0.5   0.0   0.0   0.1   0.5   0.6   0.4   0.3  0.53  0.30  0.13  0.00  0.00   83.76   98.00    0.30    0.00    1.45
 1992 365   138    25     3     0.0   11.1   16565    5.1    6.1   0.4   0.4   0.3   0.3   0.3   0.3   0.3   0.5   0.0   0.0   0.1   0.4   0.6   0.4   0.3  0.53  0.29  0.13  0.00  0.00   84.37   98.55    0.30    0.00    1.45
 1992 366   139    25     3     0.0   11.0   16565    5.0    6.0   0.1   0.3   0.4   0.4   0.3   0.3   0.3   0.5   0.0   0.0   0.1   0.4   0.6   0.4   0.3  0.53  0.29  0.13  0.00  0.00   84.97   99.08    0.30    0.00    1.45
 1993 001   140    25     3     0.0   11.1   16564    4.7    6.4   0.2   0.1   0.2   0.2   0.3   0.3   0.3   0.4   0.0   0.0   0.1   0.5   0.7   0.5   0.3  0.53  0.29  0.13  0.00  0.00   85.65   99.31    0.30    0.00    1.45
 1993 002   141    25     3     0.0   11.3   16563    4.4    6.9   0.2   0.1   0.2   0.2   0.2   0.3   0.3   0.4   0.0   0.0   0.2   0.6   0.8   0.5   0.4  0.54  0.29  0.13  0.00  0.00   86.26   99.37    0.30    0.00    1.45
 1993 003   142    25     3     0.0   11.5   16563    4.2    7.3   0.2   0.2   0.2   0.2   0.2   0.3   0.3   0.4   0.0   0.0   0.3   0.7   0.8   0.5   0.4  0.55  0.30  0.13  0.00  0.00   86.91   99.47    0.30    0.00    1.46
 1993 004   143    25     3     0.2   11.6   16562    4.0    7.6   0.2   0.2   0.2   0.2   0.2   0.2   0.3   0.4   0.0   0.0   0.4   0.7   0.8   0.6   0.4  0.56  0.31  0.13  0.00  0.00   87.54   99.56    0.30    0.00    1.46
 1993 005   144    25     3     0.4   11.8   16562    3.9    7.9   0.2   0.2   0.2   0.2   0.2   0.2   0.2   0.3   0.0   0.0   0.4   0.8   0.8   0.6   0.5  0.58  0.32  0.13  0.00  0.00   88.21   99.69    0.31    0.00    1.46
 1993 006   145    25     3     0.4   11.9   16561    4.2    7.7   0.8   0.2   0.2   0.2   0.2   0.2   0.2   0.3   0.0   0.0   0.1   0.8   0.8   0.6   0.5  0.58  0.32  0.14  0.00  0.00   88.96  100.11    0.32    0.00    1.47
 1993 007   146    25     3     0.4   11.8   16560    4.2    7.6   0.3   0.5   0.2   0.2   0.2   0.2   0.2   0.3   0.0   0.0   0.1   0.5   0.8   0.6   0.5  0.59  0.33  0.14  0.00  0.00   89.78  100.52    0.32    0.00    1.47
 1993 008   147    25     3     0.4   11.9   16560    4.5    7.4   0.3   0.4   0.4   0.3   0.3   0.3   0.3   0.3   0.0   0.0   0.1   0.5   0.7   0.6   0.5  0.59  0.34  0.14  0.00  0.00   90.63  101.14    0.32    0.00    1.48
 1993 009   148    25     3     0.5   12.0   16559    4.1    8.0   0.3   0.3   0.3   0.3   0.2   0.2   0.3   0.3   0.0   0.0   0.2   0.6   0.7   0.6   0.6  0.60  0.35  0.14  0.00  0.00   91.50  101.26    0.32    0.00    1.48
 1993 010   149    25     3     0.5   12.4   16558    4.4    8.0   0.6   0.3   0.3   0.3   0.3   0.3   0.3   0.3   0.0   0.0   0.0   0.7   0.8   0.6   0.6  0.60  0.35  0.15  0.00  0.00   92.39  101.67    0.32    0.00    1.48
 1993 011   150    25     3     0.5   12.3   16558    4.5    7.9   0.3   0.5   0.3   0.3   0.3   0.3   0.3   0.3   0.0   0.0   0.2   0.5   0.7   0.6   0.6  0.60  0.35  0.15  0.00  0.00   93.30  102.15    0.32    0.00    1.49
 1993 012   151    25     3     0.5   12.3   16557    4.8    7.5   0.5   0.4   0.4   0.3   0.3   0.3   0.3   0.3   0.0   0.0   0.1   0.5   0.6   0.6   0.6  0.60  0.35  0.15  0.00  0.00   94.21  102.92    0.32    0.00    1.49
 1993 013   152    25     3     0.5   12.1   16556    4.7    7.4   0.4   0.4   0.3   0.3   0.3   0.3   0.3   0.3   0.0   0.0   0.1   0.5   0.6   0.6   0.6  0.60  0.35  0.14  0.00  0.00   95.15  103.64    0.32    0.00    1.49
 1993 014   153    25     3     0.5   12.1   16555    4.8    7.4   0.5   0.4   0.3   0.3   0.3   0.3   0.3   0.3   0.0   0.0   0.1   0.5   0.6   0.6   0.6  0.60  0.35  0.14  0.00  0.00   96.12  104.41    0.32    0.00    1.49
 1993 015   154    25     3     0.5   12.1   16554    4.7    7.3   0.1   0.3   0.4   0.3   0.3   0.3   0.3   0.3   0.0   0.0   0.1   0.5   0.6   0.6   0.6  0.60  0.36  0.14  0.00  0.00   97.11  105.16    0.32    0.00    1.50
 1993 016   155    25     3     0.6   12.1   16554    4.2    7.9   0.3   0.3   0.3   0.3   0.3   0.2   0.3   0.3   0.0   0.0   0.1   0.6   0.7   0.6   0.6  0.61  0.36  0.14  0.00  0.00   98.11  105.41    0.32    0.00    1.50
 1993 017   156    25     3     0.6   12.5   16553    4.3    8.2   0.5   0.3   0.3   0.3   0.3   0.2   0.3   0.3   0.0   0.0   0.1   0.7   0.8   0.6   0.6  0.62  0.36  0.14  0.00  0.00   99.11  105.72    0.32    0.00    1.50
 1993 018   157    25     3     0.6   12.5   16552    4.5    8.0   0.4   0.5   0.3   0.3   0.3   0.3   0.3   0.3   0.0   0.0   0.1   0.5   0.8   0.6   0.6  0.62  0.36  0.14  0.00  0.00  100.06  106.28    0.32    0.00    1.50
 1993 019   158    25     3     0.6   12.4   16551    4.7    7.7   0.4   0.4   0.3   0.3   0.3   0.3   0.3   0.3   0.0   0.0   0.1   0.5   0.7   0.6   0.6  0.62  0.37  0.14  0.00  0.00  100.98  106.98    0.32    0.00    1.51
 1993 020   159    25     3     0.6   13.3   16551    5.4    8.0   0.6   0.6   0.4   0.4   0.3   0.3   0.3   0.3   0.0   0.0   0.1   0.5   0.7   0.6   0.6  0.64  0.37  0.14  0.00  0.00  101.87  107.63    0.32    0.00    1.51
 1993 021   160    25     3     0.6   14.2   16550    6.0    8.2   0.8   0.7   0.5   0.4   0.4   0.3   0.3   0.3   0.0   0.0   0.1   0.5   0.8   0.6   0.6  0.66  0.37  0.14  0.00  0.00  102.75  108.30    0.32    0.00    1.51
