*SOIL WATER DAILY OUTPUT FILE

*DSSAT Cropping System Model Ver. 4.0.2.000               Aug 03, 2016; 15:38:15

*RUN   1        : UYMZ                    
 MODEL          : MZCER040 - Maize           
 EXPERIMENT     : UYMZ0131 MZ    late to create DSS                             
 TREATMENT  1   : UYMZ                    

@YEAR DOY   DAS  SWXD   ROFC   DRNC   PREC  IR#C  IRRC  DTWT   SW1D   SW2D   SW3D   SW4D   SW5D   SW6D   SW7D   SW8D   SW9D   SW10
 1987 227     0   125      0      0      9     0     0   125  0.531  0.400  0.394  0.335  0.375  0.419  0.408  0.395  0.000  0.000
 1987 228     1   122      0      0      9     0     0   125  0.446  0.411  0.394  0.335  0.376  0.418  0.408  0.395  0.000  0.000
 1987 229     2   121      0      0      9     0     0   125  0.421  0.413  0.395  0.336  0.376  0.418  0.408  0.395  0.000  0.000
 1987 230     3   157      0      0      9     1    37   125  0.544  0.568  0.490  0.336  0.377  0.417  0.408  0.395  0.000  0.000
 1987 231     4   155      0      0      9     1    37   125  0.494  0.549  0.500  0.339  0.377  0.417  0.408  0.395  0.000  0.000
 1987 232     5   153      0      0      9     1    37   125  0.497  0.523  0.503  0.342  0.378  0.416  0.408  0.395  0.000  0.000
 1987 233     6   152      0      0      9     1    37   125  0.491  0.513  0.502  0.345  0.378  0.416  0.408  0.395  0.000  0.000
 1987 234     7   149      0      0      9     1    37   125  0.439  0.507  0.500  0.347  0.378  0.415  0.408  0.395  0.000  0.000
 1987 235     8   147      0      0      9     1    37   125  0.434  0.496  0.498  0.350  0.379  0.415  0.408  0.395  0.000  0.000
 1987 236     9   146      0      0      9     1    37   125  0.430  0.488  0.495  0.352  0.379  0.415  0.408  0.395  0.000  0.000
 1987 237    10   145      0      0      9     1    37   125  0.427  0.482  0.492  0.355  0.380  0.414  0.408  0.395  0.000  0.000
 1987 238    11   144      0      0      9     1    37   125  0.424  0.477  0.489  0.357  0.380  0.414  0.407  0.395  0.000  0.000
 1987 239    12   144      0      0      9     1    37   125  0.421  0.473  0.486  0.358  0.380  0.414  0.407  0.395  0.000  0.000
 1987 240    13   179      0      0     45     1    37   125  0.556  0.564  0.565  0.406  0.381  0.413  0.407  0.395  0.000  0.000
 1987 241    14   213      1      1     82     1    37   125  0.546  0.568  0.565  0.472  0.462  0.441  0.423  0.401  0.000  0.000
 1987 242    15   199      1     11     82     1    37   125  0.475  0.557  0.556  0.458  0.449  0.432  0.417  0.399  0.000  0.000
 1987 243    16   190      1     17     82     1    37   125  0.465  0.531  0.549  0.450  0.442  0.427  0.413  0.397  0.000  0.000
 1987 244    17   184      1     21     82     1    37   125  0.453  0.520  0.542  0.445  0.438  0.424  0.411  0.397  0.000  0.000
 1987 245    18   181      1     22     82     1    37   125  0.460  0.513  0.537  0.442  0.435  0.422  0.410  0.397  0.000  0.000
 1987 246    19   180      1     23     82     1    37   125  0.460  0.509  0.532  0.440  0.433  0.422  0.410  0.397  0.000  0.000
 1987 247    20   179      1     23     82     1    37   125  0.461  0.506  0.529  0.439  0.433  0.422  0.410  0.397  0.000  0.000
 1987 248    21   178      1     23     82     1    37   125  0.462  0.503  0.526  0.437  0.433  0.422  0.410  0.397  0.000  0.000
 1987 249    22   177      1     23     82     1    37   125  0.463  0.500  0.524  0.436  0.433  0.422  0.410  0.397  0.000  0.000
 1987 250    23   176      1     23     82     1    37   125  0.463  0.499  0.521  0.435  0.433  0.422  0.410  0.397  0.000  0.000
 1987 251    24   176      1     23     82     1    37   125  0.463  0.497  0.519  0.434  0.433  0.422  0.410  0.397  0.000  0.000
 1987 252    25   175      1     23     82     1    37   125  0.463  0.495  0.518  0.433  0.433  0.422  0.410  0.397  0.000  0.000
 1987 253    26   175      1     23     82     1    37   125  0.463  0.494  0.516  0.432  0.432  0.422  0.410  0.397  0.000  0.000
 1987 254    27   174      1     23     82     1    37   125  0.463  0.493  0.514  0.431  0.432  0.422  0.410  0.397  0.000  0.000
 1987 255    28   173      1     23     82     1    37   125  0.462  0.491  0.513  0.430  0.432  0.422  0.410  0.397  0.000  0.000
 1987 256    29   173      1     23     82     1    37   125  0.462  0.490  0.511  0.430  0.431  0.422  0.410  0.397  0.000  0.000
 1987 257    30   172      1     23     82     1    37   125  0.461  0.489  0.510  0.429  0.431  0.422  0.410  0.397  0.000  0.000
 1987 258    31   219      1     26    134     1    37   125  0.526  0.567  0.567  0.469  0.460  0.447  0.439  0.420  0.000  0.000
 1987 259    32   202      1     39    134     1    37   125  0.465  0.549  0.557  0.457  0.448  0.436  0.427  0.410  0.000  0.000
 1987 260    33   191      1     47    134     1    37   125  0.451  0.527  0.548  0.449  0.441  0.429  0.419  0.404  0.000  0.000
 1987 261    34   185      1     51    134     1    37   125  0.457  0.516  0.540  0.445  0.437  0.425  0.415  0.400  0.000  0.000
 1987 262    35   182      1     53    134     1    37   125  0.459  0.511  0.535  0.441  0.435  0.423  0.412  0.398  0.000  0.000
 1987 263    36   179      1     55    134     1    37   125  0.461  0.507  0.531  0.439  0.433  0.421  0.410  0.397  0.000  0.000
 1987 264    37   178      1     55    134     1    37   125  0.463  0.504  0.528  0.438  0.433  0.421  0.410  0.397  0.000  0.000
 1987 265    38   177      1     55    134     1    37   125  0.463  0.501  0.525  0.437  0.433  0.421  0.410  0.397  0.000  0.000
 1987 266    39   177      1     55    134     1    37   125  0.464  0.499  0.523  0.436  0.433  0.421  0.410  0.397  0.000  0.000
 1987 267    40   176      1     55    134     1    37   125  0.464  0.497  0.521  0.435  0.433  0.421  0.410  0.397  0.000  0.000
 1987 268    41   175      1     55    134     1    37   125  0.463  0.495  0.518  0.434  0.433  0.421  0.410  0.397  0.000  0.000
 1987 269    42   175      1     55    134     1    37   125  0.462  0.494  0.517  0.433  0.432  0.421  0.410  0.397  0.000  0.000
 1987 270    43   174      1     55    134     1    37   125  0.461  0.492  0.515  0.432  0.432  0.421  0.410  0.397  0.000  0.000
 1987 271    44   173      1     55    134     1    37   125  0.459  0.490  0.513  0.431  0.432  0.421  0.410  0.397  0.000  0.000
 1987 272    45   172      1     55    134     1    37   125  0.458  0.487  0.511  0.430  0.431  0.421  0.410  0.397  0.000  0.000
 1987 273    46   185      1     55    148     1    37   125  0.548  0.559  0.517  0.429  0.431  0.421  0.410  0.397  0.000  0.000
 1987 274    47   181      1     55    148     1    37   125  0.473  0.545  0.526  0.429  0.431  0.421  0.410  0.397  0.000  0.000
 1987 275    48   179      1     55    148     1    37   125  0.487  0.521  0.525  0.429  0.430  0.421  0.410  0.397  0.000  0.000
 1987 276    49   178      1     55    148     1    37   125  0.483  0.513  0.523  0.429  0.430  0.421  0.410  0.397  0.000  0.000
 1987 277    50   176      1     55    148     1    37   125  0.476  0.507  0.520  0.429  0.430  0.421  0.410  0.397  0.000  0.000
 1987 278    51   175      1     55    148     1    37   125  0.470  0.501  0.516  0.429  0.429  0.421  0.410  0.397  0.000  0.000
 1987 279    52   173      1     55    148     1    37   125  0.465  0.496  0.513  0.428  0.429  0.421  0.410  0.397  0.000  0.000
 1987 280    53   172      1     55    148     1    37   125  0.461  0.493  0.511  0.428  0.429  0.421  0.410  0.397  0.000  0.000
 1987 281    54   172      1     55    150     1    37   125  0.479  0.489  0.508  0.427  0.428  0.421  0.410  0.397  0.000  0.000
 1987 282    55   171      1     55    150     1    37   125  0.465  0.487  0.505  0.426  0.428  0.421  0.410  0.397  0.000  0.000
 1987 283    56   169      1     55    150     1    37   125  0.456  0.482  0.501  0.425  0.428  0.421  0.410  0.397  0.000  0.000
 1987 284    57   189      1     55    174     1    37   125  0.517  0.564  0.553  0.434  0.427  0.421  0.410  0.397  0.000  0.000
 1987 285    58   195      1     55    186     1    37   125  0.505  0.554  0.563  0.462  0.438  0.422  0.411  0.398  0.000  0.000
 1987 286    59   188      1     59    186     1    37   125  0.476  0.531  0.551  0.452  0.435  0.422  0.410  0.398  0.000  0.000
 1987 287    60   183      1     61    186     1    37   125  0.471  0.519  0.541  0.446  0.434  0.422  0.410  0.398  0.000  0.000
 1987 288    61   194      1     61    199     1    37   125  0.560  0.565  0.548  0.447  0.436  0.422  0.411  0.398  0.000  0.000
 1987 289    62   188      1     63    199     1    37   125  0.498  0.551  0.543  0.443  0.434  0.422  0.411  0.398  0.000  0.000
 1987 290    63   182      1     64    199     1    37   125  0.464  0.526  0.536  0.440  0.433  0.422  0.411  0.398  0.000  0.000
 1987 291    64   177      1     64    199     1    37   125  0.435  0.509  0.526  0.438  0.433  0.422  0.411  0.398  0.000  0.000
 1987 292    65   174      1     64    199     1    37   125  0.429  0.496  0.519  0.435  0.433  0.422  0.411  0.398  0.000  0.000
 1987 293    66   171      1     64    199     1    37   125  0.422  0.484  0.509  0.432  0.433  0.422  0.411  0.398  0.000  0.000
 1987 294    67   167      1     64    199     1    37   125  0.415  0.473  0.501  0.428  0.432  0.422  0.411  0.398  0.000  0.000
 1987 295    68   164      1     64    199     1    37   125  0.409  0.465  0.493  0.424  0.432  0.422  0.411  0.398  0.000  0.000
 1987 296    69   161      1     64    199     1    37   125  0.402  0.455  0.484  0.420  0.431  0.422  0.411  0.398  0.000  0.000
 1987 297    70   158      1     64    199     1    37   125  0.395  0.447  0.477  0.416  0.430  0.422  0.411  0.398  0.000  0.000
 1987 298    71   156      1     64    199     1    37   125  0.388  0.442  0.472  0.413  0.429  0.422  0.411  0.398  0.000  0.000
 1987 299    72   154      1     64    199     1    37   125  0.383  0.437  0.468  0.410  0.427  0.422  0.411  0.398  0.000  0.000
 1987 300    73   152      1     64    199     1    37   125  0.377  0.433  0.465  0.408  0.426  0.421  0.411  0.398  0.000  0.000
 1987 301    74   149      1     64    199     1    37   125  0.371  0.426  0.457  0.403  0.425  0.421  0.411  0.398  0.000  0.000
 1987 302    75   173      1     64    199     2    67   125  0.532  0.560  0.486  0.395  0.422  0.421  0.411  0.398  0.000  0.000
 1987 303    76   167      1     64    199     2    67   125  0.493  0.529  0.487  0.389  0.419  0.421  0.411  0.398  0.000  0.000
 1987 304    77   160      1     64    199     2    67   125  0.470  0.503  0.478  0.384  0.415  0.421  0.411  0.398  0.000  0.000
 1987 305    78   157      1     64    199     2    67   125  0.465  0.489  0.474  0.382  0.412  0.421  0.411  0.398  0.000  0.000
 1987 306    79   155      1     64    199     2    67   125  0.471  0.479  0.469  0.380  0.410  0.421  0.411  0.398  0.000  0.000
 1987 307    80   152      1     64    199     2    67   125  0.456  0.471  0.464  0.378  0.407  0.420  0.411  0.398  0.000  0.000
 1987 308    81   150      1     64    199     2    67   125  0.450  0.466  0.461  0.378  0.405  0.420  0.411  0.398  0.000  0.000
 1987 309    82   162      1     64    213     2    67   125  0.562  0.539  0.459  0.377  0.404  0.420  0.411  0.398  0.000  0.000
 1987 310    83   177      1     64    230     2    67   125  0.553  0.555  0.547  0.378  0.402  0.419  0.411  0.398  0.000  0.000
 1987 311    84   170      1     64    230     2    67   125  0.518  0.538  0.529  0.384  0.396  0.419  0.411  0.398  0.000  0.000
 1987 312    85   168      1     64    233     2    67   125  0.557  0.528  0.519  0.381  0.392  0.418  0.411  0.398  0.000  0.000
 1987 313    86   164      1     64    233     2    67   125  0.523  0.527  0.509  0.378  0.387  0.416  0.411  0.398  0.000  0.000
 1987 314    87   158      1     64    233     2    67   125  0.501  0.513  0.500  0.375  0.381  0.414  0.411  0.398  0.000  0.000
 1987 315    88   152      1     64    233     2    67   125  0.482  0.498  0.489  0.373  0.377  0.411  0.411  0.398  0.000  0.000
 1987 316    89   147      1     64    233     2    67   125  0.469  0.486  0.480  0.371  0.374  0.408  0.411  0.398  0.000  0.000
 1987 317    90   141      1     64    233     2    67   125  0.454  0.474  0.470  0.368  0.371  0.404  0.410  0.398  0.000  0.000
 1987 318    91   211     19     65    328     2    67   125  0.565  0.558  0.558  0.468  0.458  0.439  0.426  0.404  0.000  0.000
 1987 319    92   196     19     75    328     2    67   125  0.539  0.545  0.545  0.449  0.440  0.428  0.419  0.401  0.000  0.000
 1987 320    93   198     19     76    338     2    67   125  0.553  0.559  0.560  0.448  0.436  0.423  0.420  0.403  0.000  0.000
 1987 321    94   187     19     81    338     2    67   125  0.533  0.547  0.548  0.435  0.425  0.415  0.415  0.400  0.000  0.000
 1987 322    95   183     19     82    338     2    67   125  0.534  0.538  0.543  0.434  0.422  0.413  0.412  0.398  0.000  0.000
 1987 323    96   220     21    104    402     2    67   125  0.564  0.564  0.563  0.466  0.457  0.444  0.439  0.432  0.000  0.000
 1987 324    97   205     21    117    402     2    67   125  0.550  0.554  0.554  0.452  0.444  0.432  0.427  0.417  0.000  0.000
 1987 325    98   201     21    120    407     2    67   125  0.553  0.563  0.555  0.446  0.437  0.423  0.426  0.416  0.000  0.000
 1987 326    99   189     21    126    407     2    67   125  0.536  0.551  0.545  0.436  0.428  0.415  0.419  0.408  0.000  0.000
 1987 327   100   185     21    127    407     2    67   125  0.536  0.543  0.542  0.435  0.425  0.412  0.414  0.403  0.000  0.000
 1987 328   101   181     21    128    407     2    67   125  0.535  0.538  0.538  0.432  0.422  0.409  0.411  0.400  0.000  0.000
 1987 329   102   179     21    129    409     2    67   125  0.555  0.539  0.534  0.428  0.418  0.405  0.410  0.399  0.000  0.000
 1987 330   103   175     21    129    409     2    67   125  0.540  0.538  0.531  0.425  0.414  0.402  0.409  0.397  0.000  0.000
 1987 331   104   169     21    129    409     2    67   125  0.526  0.531  0.526  0.420  0.409  0.396  0.408  0.397  0.000  0.000
 1987 332   105   163     21    129    409     2    67   125  0.516  0.522  0.519  0.413  0.402  0.390  0.406  0.397  0.000  0.000
 1987 333   106   156     21    129    409     2    67   125  0.505  0.512  0.511  0.406  0.394  0.384  0.403  0.397  0.000  0.000
 1987 334   107   148     21    129    409     2    67   125  0.493  0.502  0.502  0.398  0.387  0.380  0.399  0.397  0.000  0.000
 1987 335   108   140     21    129    409     2    67   125  0.480  0.491  0.491  0.389  0.380  0.376  0.394  0.397  0.000  0.000
 1987 336   109   136     21    129    409     2    67   125  0.474  0.483  0.485  0.385  0.378  0.374  0.391  0.396  0.000  0.000
 1987 337   110   134     21    129    409     2    67   125  0.472  0.479  0.481  0.383  0.377  0.373  0.389  0.396  0.000  0.000
 1987 338   111   207     40    129    503     2    67   125  0.579  0.565  0.564  0.468  0.459  0.435  0.406  0.396  0.000  0.000
 1987 339   112   204     40    129    507     2    67   125  0.555  0.562  0.562  0.464  0.454  0.429  0.414  0.399  0.000  0.000
 1987 340   113   190     40    136    507     2    67   125  0.537  0.548  0.548  0.447  0.439  0.419  0.408  0.398  0.000  0.000
 1987 341   114   187     40    138    507     2    67   125  0.537  0.541  0.544  0.441  0.434  0.417  0.406  0.398  0.000  0.000
 1987 342   115   186     40    138    511     2    67   125  0.561  0.552  0.542  0.437  0.429  0.413  0.403  0.397  0.000  0.000
 1987 343   116   179     40    138    511     2    67   125  0.543  0.544  0.537  0.432  0.425  0.408  0.399  0.397  0.000  0.000
 1987 344   117   172     40    138    511     2    67   125  0.530  0.537  0.531  0.426  0.418  0.401  0.394  0.396  0.000  0.000
 1987 345   118   168     40    138    511     2    67   125  0.527  0.530  0.527  0.422  0.414  0.397  0.392  0.395  0.000  0.000
 1987 346   119   162     40    138    512     2    67   125  0.534  0.524  0.521  0.417  0.408  0.392  0.388  0.394  0.000  0.000
 1987 347   120   156     40    138    512     2    67   125  0.512  0.520  0.516  0.411  0.402  0.387  0.383  0.392  0.000  0.000
 1987 348   121   152     40    138    512     2    67   125  0.509  0.514  0.512  0.408  0.399  0.385  0.381  0.391  0.000  0.000
 1987 349   122   147     40    138    512     2    67   125  0.499  0.507  0.506  0.403  0.393  0.382  0.378  0.388  0.000  0.000
 1987 350   123   202     40    138    570     2    67   125  0.566  0.564  0.565  0.468  0.458  0.433  0.394  0.387  0.000  0.000
 1987 351   124   198     40    138    572     2    67   125  0.555  0.561  0.557  0.459  0.453  0.428  0.406  0.385  0.000  0.000
 1987 352   125   189     40    141    572     2    67   125  0.539  0.549  0.547  0.446  0.440  0.420  0.404  0.393  0.000  0.000
 1987 353   126   183     40    142    572     2    67   125  0.529  0.541  0.540  0.438  0.432  0.415  0.403  0.392  0.000  0.000
 1987 354   127   177     40    142    572     2    67   125  0.528  0.533  0.536  0.433  0.427  0.410  0.400  0.390  0.000  0.000
 1987 355   128   171     40    142    572     2    67   125  0.518  0.527  0.530  0.428  0.422  0.405  0.395  0.388  0.000  0.000
 1987 356   129   166     40    142    572     2    67   125  0.514  0.521  0.525  0.424  0.417  0.401  0.392  0.385  0.000  0.000
 1987 357   130   161     40    142    572     2    67   125  0.507  0.515  0.519  0.420  0.413  0.396  0.388  0.383  0.000  0.000
 1987 358   131   154     40    142    572     2    67   125  0.497  0.509  0.513  0.414  0.407  0.391  0.383  0.380  0.000  0.000
 1987 359   132   152     40    142    572     2    67   125  0.498  0.505  0.510  0.412  0.405  0.390  0.382  0.379  0.000  0.000
 1987 360   133   148     40    142    572     2    67   125  0.494  0.501  0.506  0.410  0.402  0.388  0.380  0.377  0.000  0.000
 1987 361   134   178     40    142    607     2    67   125  0.559  0.562  0.562  0.465  0.434  0.387  0.377  0.374  0.000  0.000
 1987 362   135   174     40    142    607     2    67   125  0.541  0.550  0.550  0.450  0.428  0.399  0.374  0.372  0.000  0.000
 1987 363   136   180     40    142    615     2    67   125  0.564  0.566  0.565  0.453  0.434  0.399  0.374  0.371  0.000  0.000
 1987 364   137   180     40    142    619     2    67   125  0.561  0.566  0.566  0.457  0.438  0.399  0.372  0.369  0.000  0.000
 1987 365   138   201     40    142    645     2    67   125  0.556  0.566  0.566  0.466  0.454  0.440  0.400  0.366  0.000  0.000
 1988 001   139   192     40    144    645     2    67   125  0.533  0.553  0.553  0.451  0.441  0.424  0.401  0.392  0.000  0.000
 1988 002   140   183     40    145    645     2    67   125  0.522  0.540  0.545  0.440  0.432  0.415  0.402  0.391  0.000  0.000
 1988 003   141   177     40    145    645     2    67   125  0.519  0.530  0.538  0.435  0.426  0.410  0.397  0.388  0.000  0.000
 1988 004   142   169     40    145    645     2    67   125  0.506  0.523  0.531  0.429  0.420  0.404  0.392  0.385  0.000  0.000
 1988 005   143   187     40    145    667     2    67   125  0.567  0.562  0.563  0.465  0.433  0.403  0.389  0.383  0.000  0.000
 1988 006   144   183     40    145    670     2    67   125  0.549  0.563  0.559  0.458  0.437  0.402  0.385  0.380  0.000  0.000
 1988 007   145   177     40    145    670     2    67   125  0.526  0.549  0.547  0.445  0.429  0.409  0.380  0.377  0.000  0.000
 1988 008   146   170     40    145    670     2    67   125  0.520  0.535  0.541  0.437  0.425  0.406  0.377  0.374  0.000  0.000
 1988 009   147   163     40    145    670     2    67   125  0.508  0.526  0.534  0.431  0.420  0.400  0.374  0.370  0.000  0.000
 1988 010   148   156     40    145    670     2    67   125  0.498  0.518  0.527  0.425  0.414  0.394  0.371  0.368  0.000  0.000
 1988 011   149   151     40    145    670     2    67   125  0.489  0.511  0.520  0.420  0.410  0.390  0.369  0.366  0.000  0.000
 1988 012   150   151     40    145    677     2    67   125  0.551  0.532  0.512  0.414  0.403  0.385  0.367  0.363  0.000  0.000
 1988 013   151   177     41    145    706     2    67   125  0.548  0.564  0.568  0.467  0.443  0.389  0.366  0.362  0.000  0.000
 1988 014   152   171     41    145    706     2    67   125  0.521  0.550  0.552  0.450  0.432  0.402  0.364  0.360  0.000  0.000
 1988 015   153   165     41    145    706     2    67   125  0.514  0.533  0.543  0.440  0.427  0.403  0.363  0.359  0.000  0.000
 1988 016   154   160     41    145    706     2    67   125  0.507  0.526  0.537  0.436  0.423  0.399  0.362  0.357  0.000  0.000
 1988 017   155   152     41    145    706     2    67   125  0.485  0.518  0.529  0.429  0.417  0.392  0.361  0.356  0.000  0.000
 1988 018   156   195     41    145    751     2    67   125  0.575  0.561  0.564  0.468  0.459  0.436  0.381  0.355  0.000  0.000
 1988 019   157   222     41    152    787     2    67   125  0.558  0.566  0.566  0.468  0.459  0.446  0.438  0.431  0.000  0.000
 1988 020   158   221     42    172    809     2    67   125  0.556  0.566  0.566  0.468  0.459  0.446  0.438  0.431  0.000  0.000
 1988 021   159   228     63    233    901     2    67   125  0.568  0.575  0.584  0.489  0.459  0.446  0.436  0.429  0.000  0.000
 1988 022   160   217     63    243    907     2    67   125  0.531  0.565  0.567  0.469  0.455  0.442  0.433  0.428  0.000  0.000
 1988 023   161   198     63    256    907     2    67   125  0.497  0.547  0.554  0.453  0.441  0.428  0.418  0.412  0.000  0.000
 1988 024   162   186     63    261    907     2    67   125  0.496  0.528  0.544  0.443  0.433  0.421  0.410  0.403  0.000  0.000
 1988 025   163   180     63    262    907     2    67   125  0.483  0.519  0.537  0.437  0.429  0.417  0.406  0.397  0.000  0.000
 1988 026   164   173     63    262    907     2    67   125  0.466  0.512  0.529  0.433  0.425  0.414  0.403  0.395  0.000  0.000

*DSSAT Cropping System Model Ver. 4.0.2.000               Aug 03, 2016; 15:38:15

*RUN   2        : UYMZ                    
 MODEL          : MZCER040 - Maize           
 EXPERIMENT     : UYMZ0131 MZ    late to create DSS                             
 TREATMENT  1   : UYMZ                    

@YEAR DOY   DAS  SWXD   ROFC   DRNC   PREC  IR#C  IRRC  DTWT   SW1D   SW2D   SW3D   SW4D   SW5D   SW6D   SW7D   SW8D   SW9D   SW10
 1988 227     0   117      0      0      0     0     0   125  0.371  0.394  0.394  0.335  0.375  0.419  0.408  0.395  0.000  0.000
 1988 228     1   115      0      0      0     0     0   125  0.341  0.393  0.394  0.335  0.376  0.418  0.408  0.395  0.000  0.000
 1988 229     2   112      0      0      0     0     0   125  0.284  0.392  0.394  0.336  0.376  0.418  0.408  0.395  0.000  0.000
 1988 230     3   154      0      0      0     1    44   125  0.516  0.566  0.476  0.336  0.377  0.417  0.408  0.395  0.000  0.000
 1988 231     4   150      0      0      0     1    44   125  0.468  0.536  0.487  0.338  0.377  0.417  0.408  0.395  0.000  0.000
 1988 232     5   148      0      0      0     1    44   125  0.475  0.512  0.488  0.341  0.378  0.416  0.408  0.395  0.000  0.000
 1988 233     6   165      0      0     19     1    44   125  0.530  0.557  0.544  0.345  0.378  0.416  0.408  0.395  0.000  0.000
 1988 234     7   161      0      0     19     1    44   125  0.470  0.546  0.540  0.354  0.378  0.415  0.408  0.395  0.000  0.000
 1988 235     8   158      0      0     19     1    44   125  0.452  0.525  0.534  0.359  0.379  0.415  0.408  0.395  0.000  0.000
 1988 236     9   156      0      0     19     1    44   125  0.458  0.513  0.526  0.362  0.379  0.415  0.408  0.395  0.000  0.000
 1988 237    10   155      0      0     19     1    44   125  0.459  0.506  0.520  0.366  0.380  0.414  0.408  0.395  0.000  0.000
 1988 238    11   154      0      0     19     1    44   125  0.459  0.501  0.515  0.369  0.380  0.414  0.407  0.395  0.000  0.000
 1988 239    12   154      0      0     19     1    44   125  0.458  0.497  0.510  0.371  0.381  0.414  0.407  0.395  0.000  0.000
 1988 240    13   153      0      0     19     1    44   125  0.457  0.493  0.506  0.373  0.382  0.413  0.407  0.395  0.000  0.000
 1988 241    14   152      0      0     19     1    44   125  0.455  0.489  0.503  0.375  0.382  0.413  0.407  0.395  0.000  0.000
 1988 242    15   152      0      0     19     1    44   125  0.453  0.486  0.500  0.377  0.383  0.413  0.407  0.395  0.000  0.000
 1988 243    16   151      0      0     19     1    44   125  0.451  0.484  0.497  0.379  0.383  0.412  0.407  0.395  0.000  0.000
 1988 244    17   150      0      0     19     1    44   125  0.449  0.481  0.494  0.380  0.384  0.412  0.407  0.395  0.000  0.000
 1988 245    18   150      0      0     19     1    44   125  0.447  0.478  0.492  0.381  0.384  0.412  0.407  0.395  0.000  0.000
 1988 246    19   149      0      0     19     1    44   125  0.445  0.476  0.490  0.382  0.385  0.412  0.407  0.395  0.000  0.000
 1988 247    20   149      0      0     19     1    44   125  0.443  0.474  0.488  0.383  0.385  0.411  0.407  0.395  0.000  0.000
 1988 248    21   148      0      0     19     1    44   125  0.441  0.472  0.486  0.384  0.386  0.411  0.407  0.395  0.000  0.000
 1988 249    22   148      0      0     19     1    44   125  0.439  0.470  0.484  0.385  0.386  0.411  0.407  0.395  0.000  0.000
 1988 250    23   147      0      0     19     1    44   125  0.437  0.468  0.482  0.385  0.387  0.411  0.407  0.395  0.000  0.000
 1988 251    24   158      0      0     31     1    44   125  0.542  0.521  0.481  0.386  0.387  0.410  0.406  0.395  0.000  0.000
 1988 252    25   156      0      0     31     1    44   125  0.497  0.522  0.485  0.386  0.388  0.410  0.406  0.395  0.000  0.000
 1988 253    26   164      0      0     41     1    44   125  0.549  0.554  0.498  0.387  0.388  0.410  0.406  0.395  0.000  0.000
 1988 254    27   171      0      0     49     1    44   125  0.544  0.560  0.542  0.388  0.389  0.410  0.406  0.395  0.000  0.000
 1988 255    28   169      0      0     49     1    44   125  0.490  0.552  0.539  0.397  0.389  0.410  0.406  0.395  0.000  0.000
 1988 256    29   165      0      0     49     1    44   125  0.461  0.530  0.538  0.399  0.390  0.409  0.406  0.394  0.000  0.000
 1988 257    30   162      0      0     49     1    44   125  0.446  0.517  0.531  0.402  0.391  0.409  0.406  0.394  0.000  0.000
 1988 258    31   161      0      0     49     1    44   125  0.446  0.507  0.525  0.403  0.391  0.409  0.406  0.394  0.000  0.000
 1988 259    32   160      0      0     49     1    44   125  0.446  0.500  0.520  0.405  0.392  0.409  0.406  0.394  0.000  0.000
 1988 260    33   159      0      0     49     1    44   125  0.445  0.495  0.516  0.405  0.393  0.409  0.406  0.394  0.000  0.000
 1988 261    34   158      0      0     49     1    44   125  0.444  0.491  0.512  0.406  0.394  0.408  0.406  0.394  0.000  0.000
 1988 262    35   157      0      0     49     1    44   125  0.443  0.488  0.509  0.406  0.394  0.408  0.405  0.394  0.000  0.000
 1988 263    36   156      0      0     49     1    44   125  0.442  0.485  0.506  0.407  0.395  0.408  0.405  0.394  0.000  0.000
 1988 264    37   155      0      0     49     1    44   125  0.441  0.482  0.503  0.407  0.395  0.408  0.405  0.394  0.000  0.000
 1988 265    38   163      0      0     58     1    44   125  0.551  0.505  0.500  0.407  0.396  0.408  0.405  0.394  0.000  0.000
 1988 266    39   212      1      1    110     1    44   125  0.515  0.576  0.569  0.470  0.461  0.442  0.422  0.400  0.000  0.000
 1988 267    40   221      1      8    129     1    44   125  0.536  0.558  0.567  0.470  0.460  0.447  0.439  0.432  0.000  0.000
 1988 268    41   204      1     22    129     1    44   125  0.495  0.548  0.557  0.457  0.449  0.436  0.427  0.417  0.000  0.000
 1988 269    42   195      1     30    129     1    44   125  0.504  0.531  0.549  0.449  0.442  0.429  0.419  0.408  0.000  0.000
 1988 270    43   220      1     33    158     1    44   125  0.561  0.564  0.564  0.470  0.460  0.447  0.439  0.418  0.000  0.000
 1988 271    44   221      1     37    165     1    44   125  0.531  0.567  0.568  0.470  0.460  0.447  0.439  0.429  0.000  0.000
 1988 272    45   203      1     51    165     1    44   125  0.465  0.549  0.557  0.457  0.449  0.436  0.427  0.415  0.000  0.000
 1988 273    46   191      1     59    165     1    44   125  0.452  0.524  0.546  0.449  0.442  0.429  0.419  0.407  0.000  0.000
 1988 274    47   184      1     64    165     1    44   125  0.446  0.512  0.537  0.445  0.437  0.425  0.415  0.402  0.000  0.000
 1988 275    48   180      1     66    165     1    44   125  0.445  0.505  0.530  0.441  0.435  0.423  0.412  0.399  0.000  0.000
 1988 276    49   177      1     68    165     1    44   125  0.445  0.499  0.525  0.439  0.433  0.421  0.410  0.398  0.000  0.000
 1988 277    50   193      1     68    185     1    44   125  0.529  0.563  0.554  0.444  0.435  0.421  0.411  0.398  0.000  0.000
 1988 278    51   186      1     70    185     1    44   125  0.463  0.545  0.545  0.441  0.433  0.421  0.411  0.398  0.000  0.000
 1988 279    52   181      1     70    185     1    44   125  0.449  0.522  0.537  0.439  0.433  0.421  0.411  0.398  0.000  0.000
 1988 280    53   178      1     70    185     1    44   125  0.451  0.508  0.529  0.438  0.433  0.421  0.411  0.398  0.000  0.000
 1988 281    54   176      1     70    185     1    44   125  0.449  0.499  0.521  0.436  0.433  0.421  0.411  0.398  0.000  0.000
 1988 282    55   174      1     70    185     1    44   125  0.445  0.491  0.514  0.434  0.433  0.421  0.411  0.398  0.000  0.000
 1988 283    56   172      1     70    185     1    44   125  0.441  0.486  0.510  0.432  0.433  0.421  0.411  0.398  0.000  0.000
 1988 284    57   170      1     70    185     1    44   125  0.437  0.479  0.503  0.430  0.433  0.421  0.411  0.398  0.000  0.000
 1988 285    58   168      1     70    187     1    44   125  0.453  0.472  0.496  0.427  0.432  0.421  0.411  0.398  0.000  0.000
 1988 286    59   165      1     70    187     1    44   125  0.440  0.466  0.489  0.424  0.432  0.421  0.411  0.398  0.000  0.000
 1988 287    60   163      1     70    187     1    44   125  0.430  0.460  0.483  0.422  0.431  0.421  0.411  0.398  0.000  0.000
 1988 288    61   161      1     70    187     1    44   125  0.422  0.454  0.478  0.419  0.430  0.421  0.411  0.398  0.000  0.000
 1988 289    62   158      1     70    187     1    44   125  0.414  0.448  0.472  0.415  0.429  0.421  0.411  0.398  0.000  0.000
 1988 290    63   155      1     70    187     1    44   125  0.407  0.441  0.466  0.412  0.428  0.421  0.411  0.398  0.000  0.000
 1988 291    64   153      1     70    187     1    44   125  0.400  0.435  0.461  0.408  0.427  0.421  0.411  0.398  0.000  0.000
 1988 292    65   150      1     70    187     1    44   125  0.393  0.428  0.454  0.403  0.426  0.421  0.411  0.398  0.000  0.000
 1988 293    66   177      1     70    187     2    74   125  0.545  0.565  0.497  0.401  0.424  0.421  0.411  0.398  0.000  0.000
 1988 294    67   171      1     70    187     2    74   125  0.481  0.541  0.502  0.397  0.423  0.421  0.411  0.398  0.000  0.000
 1988 295    68   166      1     70    187     2    74   125  0.473  0.511  0.497  0.394  0.421  0.421  0.411  0.398  0.000  0.000
 1988 296    69   163      1     70    187     2    74   125  0.457  0.498  0.493  0.392  0.419  0.421  0.411  0.398  0.000  0.000
 1988 297    70   157      1     70    187     2    74   125  0.422  0.483  0.484  0.387  0.417  0.420  0.411  0.398  0.000  0.000
 1988 298    71   153      1     70    187     2    74   125  0.407  0.468  0.475  0.382  0.414  0.420  0.411  0.398  0.000  0.000
 1988 299    72   154      1     70    191     2    74   125  0.488  0.460  0.470  0.381  0.411  0.420  0.411  0.398  0.000  0.000
 1988 300    73   149      1     70    191     2    74   125  0.438  0.456  0.462  0.377  0.408  0.420  0.411  0.398  0.000  0.000
 1988 301    74   144      1     70    191     2    74   125  0.406  0.447  0.453  0.374  0.403  0.420  0.411  0.398  0.000  0.000
 1988 302    75   139      1     70    191     2    74   125  0.388  0.434  0.443  0.371  0.396  0.419  0.411  0.398  0.000  0.000
 1988 303    76   163      1     70    191     3   104   125  0.537  0.557  0.488  0.368  0.388  0.419  0.411  0.398  0.000  0.000
 1988 304    77   161      1     70    191     3   104   125  0.528  0.537  0.493  0.368  0.387  0.418  0.411  0.398  0.000  0.000
 1988 305    78   186      1     70    221     3   104   125  0.543  0.549  0.562  0.449  0.390  0.418  0.411  0.398  0.000  0.000
 1988 306    79   181      1     70    221     3   104   125  0.510  0.540  0.546  0.435  0.400  0.417  0.411  0.398  0.000  0.000
 1988 307    80   175      1     70    221     3   104   125  0.502  0.525  0.535  0.429  0.395  0.416  0.411  0.398  0.000  0.000
 1988 308    81   169      1     70    221     3   104   125  0.483  0.514  0.524  0.421  0.389  0.415  0.411  0.398  0.000  0.000
 1988 309    82   163      1     70    221     3   104   125  0.470  0.502  0.514  0.412  0.385  0.413  0.411  0.398  0.000  0.000
 1988 310    83   156      1     70    221     3   104   125  0.449  0.490  0.503  0.403  0.380  0.411  0.411  0.398  0.000  0.000
 1988 311    84   150      1     70    221     3   104   125  0.429  0.477  0.492  0.394  0.377  0.409  0.410  0.398  0.000  0.000
 1988 312    85   143      1     70    221     3   104   125  0.411  0.463  0.480  0.384  0.374  0.405  0.410  0.398  0.000  0.000
 1988 313    86   138      1     70    221     3   104   125  0.404  0.453  0.471  0.379  0.372  0.402  0.410  0.398  0.000  0.000
 1988 314    87   131      1     70    221     3   104   125  0.392  0.440  0.459  0.374  0.369  0.397  0.410  0.398  0.000  0.000
 1988 315    88   127      1     70    221     3   104   125  0.385  0.431  0.450  0.371  0.367  0.393  0.409  0.398  0.000  0.000
 1988 316    89   167      1     70    235     4   135   125  0.562  0.561  0.559  0.392  0.366  0.389  0.409  0.398  0.000  0.000
 1988 317    90   182      1     70    255     4   135   125  0.549  0.560  0.557  0.465  0.406  0.386  0.409  0.398  0.000  0.000
 1988 318    91   175      1     70    255     4   135   125  0.524  0.545  0.543  0.445  0.421  0.383  0.408  0.398  0.000  0.000
 1988 319    92   169      1     70    255     4   135   125  0.520  0.532  0.535  0.434  0.415  0.380  0.408  0.398  0.000  0.000
 1988 320    93   163      1     70    255     4   135   125  0.511  0.521  0.526  0.425  0.408  0.377  0.407  0.398  0.000  0.000
 1988 321    94   156      1     70    255     4   135   125  0.500  0.511  0.516  0.416  0.400  0.375  0.407  0.398  0.000  0.000
 1988 322    95   149      1     70    255     4   135   125  0.487  0.500  0.506  0.407  0.390  0.372  0.407  0.398  0.000  0.000
 1988 323    96   147      1     70    255     4   135   125  0.486  0.495  0.501  0.404  0.388  0.371  0.406  0.398  0.000  0.000
 1988 324    97   157      1     70    271     4   135   125  0.555  0.558  0.522  0.395  0.382  0.369  0.406  0.398  0.000  0.000
 1988 325    98   152      1     70    271     4   135   125  0.537  0.540  0.522  0.389  0.378  0.367  0.405  0.398  0.000  0.000
 1988 326    99   162      1     70    283     4   135   125  0.566  0.560  0.560  0.402  0.377  0.367  0.404  0.397  0.000  0.000
 1988 327   100   169      1     70    295     4   135   125  0.558  0.563  0.555  0.449  0.386  0.365  0.402  0.397  0.000  0.000
 1988 328   101   163      1     70    295     4   135   125  0.539  0.550  0.540  0.433  0.398  0.363  0.399  0.397  0.000  0.000
 1988 329   102   157      1     70    295     4   135   125  0.526  0.539  0.534  0.424  0.390  0.361  0.394  0.397  0.000  0.000
 1988 330   103   150      1     70    295     4   135   125  0.521  0.526  0.525  0.416  0.384  0.360  0.388  0.397  0.000  0.000
 1988 331   104   146      1     70    295     4   135   125  0.515  0.519  0.519  0.411  0.382  0.360  0.383  0.396  0.000  0.000
 1988 332   105   140      1     70    295     4   135   125  0.503  0.511  0.511  0.403  0.378  0.358  0.377  0.396  0.000  0.000
 1988 333   106   134      1     70    295     4   135   125  0.492  0.501  0.501  0.395  0.375  0.357  0.372  0.395  0.000  0.000
 1988 334   107   127      1     70    295     4   135   125  0.479  0.490  0.491  0.386  0.372  0.356  0.368  0.395  0.000  0.000
 1988 335   108   121      1     70    295     4   135   125  0.464  0.477  0.479  0.379  0.368  0.355  0.364  0.394  0.000  0.000
 1988 336   109   115      1     70    295     4   135   125  0.452  0.466  0.469  0.374  0.366  0.353  0.361  0.393  0.000  0.000
 1988 337   110   110      1     70    295     4   135   125  0.437  0.454  0.457  0.370  0.363  0.352  0.358  0.392  0.000  0.000
 1988 338   111   102      1     70    295     4   135   125  0.418  0.438  0.442  0.365  0.360  0.350  0.355  0.392  0.000  0.000
 1988 339   112    95      1     70    295     4   135   125  0.405  0.421  0.425  0.360  0.357  0.348  0.352  0.391  0.000  0.000
 1988 340   113   120      1     70    295     5   168   125  0.551  0.553  0.477  0.353  0.351  0.345  0.347  0.390  0.000  0.000
 1988 341   114   114      1     70    295     5   168   125  0.526  0.526  0.473  0.353  0.350  0.344  0.345  0.389  0.000  0.000
 1988 342   115   110      1     70    295     5   168   125  0.512  0.511  0.468  0.352  0.349  0.343  0.345  0.388  0.000  0.000
 1988 343   116   109      1     70    299     5   168   125  0.549  0.508  0.459  0.352  0.348  0.342  0.344  0.386  0.000  0.000
 1988 344   117   103      1     70    299     5   168   125  0.500  0.500  0.448  0.350  0.346  0.341  0.343  0.384  0.000  0.000
 1988 345   118    97      1     70    299     5   168   125  0.476  0.481  0.436  0.349  0.345  0.340  0.341  0.380  0.000  0.000
 1988 346   119    89      1     70    299     5   168   125  0.449  0.461  0.422  0.347  0.343  0.339  0.340  0.375  0.000  0.000
 1988 347   120    87      1     70    299     5   168   125  0.444  0.452  0.421  0.347  0.343  0.339  0.340  0.373  0.000  0.000
 1988 348   121   144      1     70    332     6   198   125  0.544  0.549  0.561  0.468  0.370  0.338  0.339  0.367  0.000  0.000
 1988 349   122   137      1     70    332     6   198   125  0.521  0.535  0.542  0.443  0.390  0.337  0.338  0.363  0.000  0.000
 1988 350   123   129      1     70    332     6   198   125  0.510  0.523  0.530  0.429  0.385  0.337  0.337  0.360  0.000  0.000
 1988 351   124   122      1     70    332     6   198   125  0.496  0.511  0.518  0.417  0.379  0.336  0.336  0.357  0.000  0.000
 1988 352   125   118      1     70    332     6   198   125  0.489  0.502  0.509  0.410  0.377  0.336  0.336  0.355  0.000  0.000
 1988 353   126   111      1     70    332     6   198   125  0.471  0.489  0.497  0.398  0.372  0.336  0.335  0.353  0.000  0.000
 1988 354   127   105      1     70    332     6   198   125  0.460  0.479  0.487  0.390  0.370  0.335  0.335  0.351  0.000  0.000
 1988 355   128   103      1     70    336     6   198   125  0.523  0.467  0.475  0.380  0.367  0.335  0.334  0.349  0.000  0.000
 1988 356   129    96      1     70    336     6   198   125  0.476  0.464  0.462  0.373  0.363  0.334  0.333  0.346  0.000  0.000
 1988 357   130    91      1     70    336     6   198   125  0.454  0.455  0.452  0.369  0.361  0.334  0.333  0.345  0.000  0.000
 1988 358   131    85      1     70    336     6   198   125  0.427  0.442  0.439  0.365  0.358  0.333  0.332  0.343  0.000  0.000
 1988 359   132    77      1     70    336     6   198   125  0.404  0.423  0.422  0.360  0.355  0.332  0.331  0.340  0.000  0.000
 1988 360   133   103      1     70    336     7   231   125  0.546  0.551  0.480  0.353  0.350  0.331  0.329  0.337  0.000  0.000
 1988 361   134    96      1     70    336     7   231   125  0.513  0.522  0.472  0.352  0.349  0.330  0.328  0.335  0.000  0.000
 1988 362   135    92      1     70    336     7   231   125  0.502  0.505  0.466  0.352  0.348  0.330  0.327  0.334  0.000  0.000
 1988 363   136    87      1     70    336     7   231   125  0.477  0.488  0.455  0.351  0.346  0.329  0.327  0.333  0.000  0.000
 1988 364   137    80      1     70    336     7   231   125  0.448  0.468  0.440  0.350  0.345  0.329  0.326  0.332  0.000  0.000
 1988 365   138    73      1     70    336     7   231   125  0.417  0.448  0.424  0.348  0.343  0.328  0.325  0.330  0.000  0.000
 1988 366   139    96      1     70    336     8   262   125  0.542  0.540  0.486  0.345  0.341  0.327  0.324  0.329  0.000  0.000
 1989 001   140    88      1     70    336     8   262   125  0.497  0.513  0.471  0.345  0.339  0.326  0.323  0.327  0.000  0.000
 1989 002   141    80      1     70    336     8   262   125  0.460  0.485  0.453  0.344  0.338  0.326  0.322  0.326  0.000  0.000
 1989 003   142    72      1     70    336     8   262   125  0.424  0.461  0.435  0.343  0.337  0.325  0.322  0.325  0.000  0.000
 1989 004   143    64      1     70    336     8   262   125  0.392  0.433  0.416  0.341  0.335  0.324  0.321  0.324  0.000  0.000
 1989 005   144    90      1     70    336     9   295   125  0.538  0.537  0.480  0.338  0.333  0.323  0.319  0.322  0.000  0.000
 1989 006   145    84      1     70    336     9   295   125  0.502  0.516  0.471  0.338  0.332  0.323  0.319  0.321  0.000  0.000
 1989 007   146    79      1     70    336     9   295   125  0.477  0.495  0.461  0.339  0.332  0.322  0.318  0.321  0.000  0.000
 1989 008   147    72      1     70    336     9   295   125  0.444  0.475  0.447  0.339  0.331  0.322  0.318  0.320  0.000  0.000
 1989 009   148    65      1     70    336     9   295   125  0.407  0.453  0.431  0.338  0.330  0.322  0.317  0.319  0.000  0.000
 1989 010   149    89      1     70    336    10   325   125  0.540  0.544  0.486  0.337  0.329  0.321  0.317  0.318  0.000  0.000
 1989 011   150    82      1     70    336    10   325   125  0.493  0.519  0.475  0.338  0.329  0.321  0.316  0.318  0.000  0.000
 1989 012   151    75      1     70    336    10   325   125  0.454  0.491  0.461  0.338  0.328  0.320  0.316  0.317  0.000  0.000
 1989 013   152    68      1     70    336    10   325   125  0.420  0.468  0.446  0.338  0.328  0.320  0.315  0.317  0.000  0.000
 1989 014   153    61      1     70    336    10   325   125  0.381  0.446  0.429  0.337  0.327  0.319  0.315  0.316  0.000  0.000
 1989 015   154    88      1     70    336    11   357   125  0.545  0.549  0.487  0.336  0.326  0.319  0.314  0.315  0.000  0.000
 1989 016   155   110      1     70    366    11   357   125  0.510  0.545  0.558  0.433  0.326  0.319  0.314  0.315  0.000  0.000
 1989 017   156   103      1     70    366    11   357   125  0.477  0.524  0.538  0.426  0.328  0.318  0.314  0.314  0.000  0.000
 1989 018   157   100      1     70    366    11   357   125  0.486  0.512  0.529  0.420  0.330  0.318  0.314  0.314  0.000  0.000

*DSSAT Cropping System Model Ver. 4.0.2.000               Aug 03, 2016; 15:38:15

*RUN   3        : UYMZ                    
 MODEL          : MZCER040 - Maize           
 EXPERIMENT     : UYMZ0131 MZ    late to create DSS                             
 TREATMENT  1   : UYMZ                    

@YEAR DOY   DAS  SWXD   ROFC   DRNC   PREC  IR#C  IRRC  DTWT   SW1D   SW2D   SW3D   SW4D   SW5D   SW6D   SW7D   SW8D   SW9D   SW10
 1989 227     0   114      0      0      0     0     0   125  0.322  0.394  0.394  0.335  0.375  0.419  0.408  0.395  0.000  0.000
 1989 228     1   111      0      0      0     0     0   125  0.263  0.392  0.394  0.335  0.376  0.418  0.408  0.395  0.000  0.000
 1989 229     2   110      0      0      0     0     0   125  0.237  0.391  0.394  0.336  0.376  0.418  0.408  0.395  0.000  0.000
 1989 230     3   155      0      0      0     1    46   125  0.553  0.566  0.473  0.336  0.377  0.417  0.408  0.395  0.000  0.000
 1989 231     4   154      0      0      0     1    46   125  0.525  0.547  0.486  0.338  0.377  0.417  0.408  0.395  0.000  0.000
 1989 232     5   172      0      0     19     1    46   125  0.561  0.552  0.571  0.357  0.378  0.416  0.408  0.395  0.000  0.000
 1989 233     6   173      0      0     21     1    46   125  0.545  0.558  0.559  0.377  0.378  0.416  0.408  0.395  0.000  0.000
 1989 234     7   214      1      1     65     1    46   125  0.544  0.568  0.564  0.474  0.461  0.443  0.424  0.402  0.000  0.000
 1989 235     8   200      1     12     65     1    46   125  0.492  0.557  0.555  0.460  0.449  0.434  0.418  0.399  0.000  0.000
 1989 236     9   192      1     18     65     1    46   125  0.494  0.534  0.549  0.451  0.442  0.428  0.414  0.398  0.000  0.000
 1989 237    10   186      1     22     65     1    46   125  0.474  0.526  0.543  0.446  0.438  0.424  0.412  0.398  0.000  0.000
 1989 238    11   182      1     23     65     1    46   125  0.460  0.519  0.538  0.442  0.435  0.422  0.410  0.398  0.000  0.000
 1989 239    12   180      1     24     65     1    46   125  0.461  0.513  0.534  0.440  0.433  0.421  0.410  0.398  0.000  0.000
 1989 240    13   179      1     24     65     1    46   125  0.462  0.508  0.531  0.439  0.433  0.421  0.410  0.398  0.000  0.000
 1989 241    14   178      1     24     65     1    46   125  0.463  0.505  0.528  0.438  0.433  0.421  0.410  0.398  0.000  0.000
 1989 242    15   177      1     24     65     1    46   125  0.464  0.502  0.525  0.437  0.433  0.421  0.410  0.398  0.000  0.000
 1989 243    16   200      1     25     89     1    46   125  0.555  0.566  0.565  0.459  0.441  0.422  0.411  0.398  0.000  0.000
 1989 244    17   191      1     30     89     1    46   125  0.474  0.556  0.556  0.451  0.437  0.421  0.410  0.398  0.000  0.000
 1989 245    18   186      1     32     89     1    46   125  0.466  0.530  0.549  0.446  0.435  0.421  0.410  0.398  0.000  0.000
 1989 246    19   182      1     33     89     1    46   125  0.459  0.520  0.541  0.443  0.433  0.421  0.410  0.398  0.000  0.000
 1989 247    20   181      1     34     89     1    46   125  0.460  0.514  0.537  0.440  0.433  0.421  0.410  0.398  0.000  0.000
 1989 248    21   180      1     34     89     1    46   125  0.462  0.509  0.532  0.440  0.433  0.421  0.410  0.398  0.000  0.000
 1989 249    22   188      1     34    101     1    46   125  0.512  0.560  0.538  0.439  0.433  0.421  0.410  0.398  0.000  0.000
 1989 250    23   185      1     34    101     1    46   125  0.471  0.540  0.543  0.438  0.433  0.421  0.410  0.398  0.000  0.000
 1989 251    24   182      1     34    101     1    46   125  0.464  0.524  0.539  0.438  0.433  0.421  0.410  0.398  0.000  0.000
 1989 252    25   181      1     34    101     1    46   125  0.466  0.516  0.535  0.438  0.433  0.421  0.410  0.398  0.000  0.000
 1989 253    26   180      1     34    101     1    46   125  0.467  0.511  0.532  0.437  0.433  0.421  0.410  0.398  0.000  0.000
 1989 254    27   184      1     34    107     1    46   125  0.557  0.518  0.529  0.436  0.433  0.421  0.410  0.398  0.000  0.000
 1989 255    28   183      1     34    107     1    46   125  0.505  0.530  0.529  0.435  0.433  0.421  0.410  0.398  0.000  0.000
 1989 256    29   182      1     34    108     1    46   125  0.512  0.523  0.529  0.435  0.433  0.421  0.410  0.398  0.000  0.000
 1989 257    30   181      1     34    108     1    46   125  0.490  0.521  0.528  0.434  0.433  0.421  0.410  0.398  0.000  0.000
 1989 258    31   181      1     34    110     1    46   125  0.517  0.515  0.526  0.434  0.432  0.421  0.410  0.398  0.000  0.000
 1989 259    32   180      1     34    110     1    46   125  0.491  0.517  0.526  0.433  0.432  0.421  0.410  0.398  0.000  0.000
 1989 260    33   179      1     34    110     1    46   125  0.485  0.513  0.524  0.433  0.432  0.421  0.410  0.398  0.000  0.000
 1989 261    34   178      1     34    110     1    46   125  0.480  0.509  0.523  0.432  0.432  0.421  0.410  0.398  0.000  0.000
 1989 262    35   177      1     34    110     1    46   125  0.476  0.505  0.521  0.432  0.431  0.421  0.410  0.398  0.000  0.000
 1989 263    36   176      1     34    110     1    46   125  0.473  0.501  0.519  0.431  0.431  0.421  0.410  0.398  0.000  0.000
 1989 264    37   175      1     34    110     1    46   125  0.469  0.498  0.516  0.431  0.431  0.421  0.410  0.398  0.000  0.000
 1989 265    38   199      1     34    136     1    46   125  0.548  0.566  0.566  0.459  0.439  0.422  0.411  0.398  0.000  0.000
 1989 266    39   221      1     38    164     1    46   125  0.537  0.567  0.568  0.470  0.460  0.447  0.439  0.428  0.000  0.000
 1989 267    40   205      1     52    164     1    46   125  0.505  0.554  0.557  0.457  0.449  0.436  0.427  0.415  0.000  0.000
 1989 268    41   194      1     60    164     1    46   125  0.484  0.534  0.550  0.449  0.442  0.429  0.419  0.407  0.000  0.000
 1989 269    42   187      1     65    164     1    46   125  0.476  0.523  0.542  0.445  0.437  0.425  0.415  0.402  0.000  0.000
 1989 270    43   182      1     67    164     1    46   125  0.454  0.516  0.537  0.442  0.435  0.423  0.412  0.399  0.000  0.000
 1989 271    44   179      1     69    164     1    46   125  0.452  0.509  0.532  0.440  0.433  0.421  0.410  0.398  0.000  0.000
 1989 272    45   178      1     69    164     1    46   125  0.451  0.503  0.527  0.439  0.433  0.421  0.410  0.398  0.000  0.000
 1989 273    46   176      1     69    164     1    46   125  0.450  0.498  0.523  0.437  0.433  0.421  0.410  0.398  0.000  0.000
 1989 274    47   175      1     69    164     1    46   125  0.448  0.494  0.520  0.436  0.433  0.421  0.410  0.398  0.000  0.000
 1989 275    48   174      1     69    164     1    46   125  0.447  0.491  0.517  0.435  0.433  0.421  0.410  0.398  0.000  0.000
 1989 276    49   173      1     69    164     1    46   125  0.444  0.486  0.513  0.433  0.433  0.421  0.410  0.398  0.000  0.000
 1989 277    50   171      1     69    164     1    46   125  0.440  0.482  0.509  0.432  0.432  0.421  0.410  0.398  0.000  0.000
 1989 278    51   170      1     69    164     1    46   125  0.436  0.477  0.504  0.431  0.432  0.421  0.410  0.398  0.000  0.000
 1989 279    52   168      1     69    164     1    46   125  0.432  0.473  0.500  0.430  0.432  0.421  0.410  0.398  0.000  0.000
 1989 280    53   168      1     69    168     1    46   125  0.457  0.469  0.497  0.428  0.431  0.421  0.410  0.398  0.000  0.000
 1989 281    54   167      1     69    168     1    46   125  0.445  0.467  0.493  0.427  0.431  0.421  0.410  0.398  0.000  0.000
 1989 282    55   165      1     69    168     1    46   125  0.435  0.463  0.489  0.426  0.430  0.421  0.410  0.398  0.000  0.000
 1989 283    56   163      1     69    168     1    46   125  0.427  0.460  0.485  0.424  0.430  0.421  0.410  0.398  0.000  0.000
 1989 284    57   162      1     69    168     1    46   125  0.422  0.457  0.482  0.423  0.429  0.421  0.410  0.398  0.000  0.000
 1989 285    58   161      1     69    170     1    46   125  0.432  0.454  0.480  0.421  0.429  0.421  0.410  0.398  0.000  0.000
 1989 286    59   160      1     69    170     1    46   125  0.424  0.451  0.477  0.420  0.428  0.421  0.410  0.398  0.000  0.000
 1989 287    60   158      1     69    170     1    46   125  0.416  0.446  0.472  0.418  0.428  0.421  0.410  0.398  0.000  0.000
 1989 288    61   156      1     69    170     1    46   125  0.409  0.440  0.466  0.416  0.427  0.421  0.410  0.398  0.000  0.000
 1989 289    62   153      1     69    170     1    46   125  0.403  0.433  0.460  0.414  0.426  0.421  0.410  0.398  0.000  0.000
 1989 290    63   152      1     69    170     1    46   125  0.397  0.429  0.456  0.412  0.426  0.421  0.410  0.398  0.000  0.000
 1989 291    64   149      1     69    170     1    46   125  0.391  0.424  0.450  0.409  0.425  0.421  0.410  0.398  0.000  0.000
 1989 292    65   174      1     69    170     2    77   125  0.504  0.563  0.490  0.406  0.424  0.421  0.410  0.398  0.000  0.000
 1989 293    66   169      1     69    170     2    77   125  0.467  0.523  0.494  0.403  0.424  0.421  0.410  0.398  0.000  0.000
 1989 294    67   165      1     69    170     2    77   125  0.452  0.502  0.490  0.402  0.423  0.421  0.410  0.398  0.000  0.000
 1989 295    68   160      1     69    170     2    77   125  0.423  0.484  0.482  0.399  0.422  0.420  0.410  0.398  0.000  0.000
 1989 296    69   155      1     69    170     2    77   125  0.408  0.468  0.473  0.394  0.420  0.420  0.410  0.398  0.000  0.000
 1989 297    70   153      1     69    170     2    77   125  0.404  0.461  0.470  0.393  0.419  0.420  0.410  0.398  0.000  0.000
 1989 298    71   198      1     69    217     2    77   125  0.561  0.561  0.564  0.464  0.434  0.421  0.410  0.398  0.000  0.000
 1989 299    72   219      2     76    250     2    77   125  0.532  0.561  0.561  0.466  0.459  0.447  0.439  0.432  0.000  0.000
 1989 300    73   201      2     89    250     2    77   125  0.496  0.541  0.545  0.449  0.446  0.436  0.427  0.417  0.000  0.000
 1989 301    74   188      2     96    250     2    77   125  0.481  0.520  0.533  0.438  0.438  0.429  0.419  0.408  0.000  0.000
 1989 302    75   179      2     99    250     2    77   125  0.465  0.506  0.522  0.429  0.432  0.425  0.415  0.403  0.000  0.000
 1989 303    76   175      2    101    250     2    77   125  0.464  0.498  0.516  0.426  0.430  0.423  0.412  0.400  0.000  0.000
 1989 304    77   169      2    102    250     2    77   125  0.442  0.489  0.507  0.418  0.426  0.421  0.410  0.398  0.000  0.000
 1989 305    78   163      2    102    250     2    77   125  0.421  0.478  0.498  0.411  0.420  0.421  0.410  0.398  0.000  0.000
 1989 306    79   161      2    102    250     2    77   125  0.424  0.472  0.494  0.409  0.418  0.421  0.410  0.398  0.000  0.000
 1989 307    80   200      2    103    292     2    77   125  0.564  0.562  0.563  0.466  0.440  0.422  0.412  0.398  0.000  0.000
 1989 308    81   189      2    108    292     2    77   125  0.521  0.546  0.546  0.447  0.429  0.421  0.410  0.397  0.000  0.000
 1989 309    82   182      2    109    292     2    77   125  0.508  0.529  0.536  0.436  0.423  0.420  0.410  0.397  0.000  0.000
 1989 310    83   176      2    109    292     2    77   125  0.492  0.517  0.526  0.427  0.416  0.419  0.410  0.397  0.000  0.000
 1989 311    84   173      2    109    292     2    77   125  0.491  0.510  0.520  0.423  0.413  0.418  0.410  0.397  0.000  0.000
 1989 312    85   167      2    109    292     2    77   125  0.475  0.500  0.511  0.415  0.406  0.417  0.410  0.397  0.000  0.000
 1989 313    86   161      2    109    292     2    77   125  0.457  0.489  0.501  0.407  0.398  0.415  0.410  0.397  0.000  0.000
 1989 314    87   155      2    109    292     2    77   125  0.445  0.479  0.493  0.400  0.391  0.412  0.410  0.397  0.000  0.000
 1989 315    88   153      2    109    292     2    77   125  0.447  0.474  0.489  0.397  0.390  0.411  0.410  0.397  0.000  0.000
 1989 316    89   188      2    109    329     2    77   125  0.569  0.564  0.564  0.450  0.399  0.410  0.410  0.397  0.000  0.000
 1989 317    90   201      2    109    346     2    77   125  0.552  0.562  0.562  0.463  0.456  0.420  0.411  0.398  0.000  0.000
 1989 318    91   189      2    115    346     2    77   125  0.528  0.547  0.547  0.446  0.439  0.416  0.410  0.398  0.000  0.000
 1989 319    92   182      2    115    346     2    77   125  0.520  0.533  0.538  0.435  0.428  0.414  0.410  0.398  0.000  0.000
 1989 320    93   176      2    115    346     2    77   125  0.512  0.524  0.531  0.429  0.421  0.409  0.410  0.398  0.000  0.000
 1989 321    94   170      2    115    346     2    77   125  0.502  0.516  0.523  0.422  0.415  0.403  0.410  0.398  0.000  0.000
 1989 322    95   164      2    115    346     2    77   125  0.493  0.508  0.515  0.416  0.408  0.396  0.409  0.398  0.000  0.000
 1989 323    96   158      2    115    346     2    77   125  0.486  0.500  0.508  0.411  0.403  0.391  0.409  0.398  0.000  0.000
 1989 324    97   154      2    115    346     2    77   125  0.481  0.494  0.502  0.405  0.398  0.387  0.409  0.398  0.000  0.000
 1989 325    98   148      2    115    346     2    77   125  0.472  0.486  0.494  0.399  0.391  0.383  0.408  0.398  0.000  0.000
 1989 326    99   142      2    115    346     2    77   125  0.461  0.477  0.485  0.391  0.385  0.379  0.408  0.398  0.000  0.000
 1989 327   100   152      2    115    362     2    77   125  0.557  0.558  0.488  0.384  0.380  0.376  0.407  0.398  0.000  0.000
 1989 328   101   153      2    115    370     2    77   125  0.550  0.549  0.524  0.378  0.375  0.372  0.406  0.398  0.000  0.000
 1989 329   102   148      2    115    370     2    77   125  0.533  0.533  0.518  0.376  0.372  0.370  0.404  0.397  0.000  0.000
 1989 330   103   143      2    115    370     2    77   125  0.520  0.522  0.510  0.375  0.369  0.368  0.400  0.397  0.000  0.000
 1989 331   104   138      2    115    370     2    77   125  0.507  0.511  0.501  0.373  0.367  0.366  0.395  0.397  0.000  0.000
 1989 332   105   132      2    115    370     2    77   125  0.492  0.498  0.490  0.371  0.364  0.364  0.388  0.397  0.000  0.000
 1989 333   106   127      2    115    370     2    77   125  0.483  0.489  0.482  0.369  0.363  0.362  0.381  0.396  0.000  0.000
 1989 334   107   121      2    115    370     2    77   125  0.468  0.477  0.471  0.367  0.361  0.361  0.373  0.396  0.000  0.000
 1989 335   108   114      2    115    370     2    77   125  0.452  0.464  0.460  0.364  0.359  0.358  0.367  0.395  0.000  0.000
 1989 336   109   110      2    115    370     2    77   125  0.441  0.454  0.451  0.362  0.357  0.357  0.364  0.395  0.000  0.000
 1989 337   110   129      2    115    393     2    77   125  0.558  0.559  0.478  0.361  0.356  0.356  0.362  0.394  0.000  0.000
 1989 338   111   127      2    115    398     2    77   125  0.547  0.545  0.491  0.359  0.354  0.354  0.359  0.393  0.000  0.000
 1989 339   112   121      2    115    398     2    77   125  0.526  0.524  0.483  0.358  0.352  0.352  0.356  0.392  0.000  0.000
 1989 340   113   116      2    115    398     2    77   125  0.507  0.507  0.474  0.357  0.351  0.351  0.354  0.392  0.000  0.000
 1989 341   114   110      2    115    398     2    77   125  0.487  0.490  0.462  0.356  0.349  0.349  0.352  0.391  0.000  0.000
 1989 342   115   103      2    115    398     2    77   125  0.465  0.472  0.448  0.354  0.348  0.348  0.349  0.390  0.000  0.000
 1989 343   116    99      2    115    398     2    77   125  0.452  0.460  0.439  0.352  0.347  0.347  0.348  0.388  0.000  0.000
 1989 344   117    92      2    115    398     2    77   125  0.428  0.442  0.423  0.350  0.345  0.345  0.346  0.386  0.000  0.000
 1989 345   118   116      2    115    398     3   107   125  0.549  0.546  0.489  0.348  0.343  0.344  0.344  0.382  0.000  0.000
 1989 346   119   109      2    115    398     3   107   125  0.520  0.519  0.478  0.348  0.342  0.342  0.343  0.377  0.000  0.000
 1989 347   120   102      2    115    398     3   107   125  0.495  0.499  0.465  0.347  0.341  0.341  0.341  0.372  0.000  0.000
 1989 348   121    94      2    115    398     3   107   125  0.471  0.479  0.451  0.346  0.340  0.340  0.340  0.366  0.000  0.000
 1989 349   122    87      2    115    398     3   107   125  0.447  0.460  0.435  0.345  0.339  0.339  0.338  0.361  0.000  0.000
 1989 350   123    81      2    115    398     3   107   125  0.425  0.442  0.423  0.344  0.338  0.338  0.337  0.357  0.000  0.000
 1989 351   124   155     20    115    463     4   138   125  0.573  0.555  0.562  0.469  0.439  0.340  0.336  0.354  0.000  0.000
 1989 352   125   148     20    115    463     4   138   125  0.542  0.541  0.546  0.448  0.426  0.356  0.336  0.352  0.000  0.000
 1989 353   126   141     20    115    463     4   138   125  0.521  0.533  0.535  0.434  0.421  0.355  0.335  0.350  0.000  0.000
 1989 354   127   134     20    115    463     4   138   125  0.510  0.521  0.525  0.425  0.412  0.354  0.335  0.348  0.000  0.000
 1989 355   128   128     20    115    463     4   138   125  0.496  0.510  0.515  0.416  0.403  0.353  0.334  0.346  0.000  0.000
 1989 356   129   121     20    115    463     4   138   125  0.482  0.499  0.505  0.406  0.393  0.352  0.334  0.344  0.000  0.000
 1989 357   130   114     20    115    463     4   138   125  0.467  0.487  0.494  0.397  0.385  0.351  0.333  0.342  0.000  0.000
 1989 358   131   107     20    115    463     4   138   125  0.450  0.475  0.483  0.387  0.378  0.350  0.333  0.340  0.000  0.000
 1989 359   132   105     20    115    463     4   138   125  0.448  0.469  0.478  0.384  0.377  0.349  0.333  0.339  0.000  0.000
 1989 360   133   100     20    115    463     4   138   125  0.435  0.459  0.469  0.379  0.373  0.349  0.332  0.338  0.000  0.000
 1989 361   134    96     20    115    463     4   138   125  0.426  0.451  0.461  0.376  0.371  0.348  0.332  0.337  0.000  0.000
 1989 362   135    91     20    115    463     4   138   125  0.413  0.439  0.450  0.371  0.367  0.347  0.331  0.335  0.000  0.000
 1989 363   136    86     20    115    463     4   138   125  0.404  0.430  0.441  0.368  0.365  0.346  0.331  0.334  0.000  0.000
 1989 364   137   112     20    115    463     5   169   125  0.556  0.559  0.487  0.364  0.362  0.345  0.330  0.332  0.000  0.000
 1989 365   138   106     20    115    463     5   169   125  0.524  0.532  0.486  0.363  0.359  0.344  0.329  0.331  0.000  0.000
 1990 001   139   100     20    115    463     5   169   125  0.500  0.509  0.476  0.361  0.357  0.343  0.329  0.330  0.000  0.000
 1990 002   140    93     20    115    463     5   169   125  0.472  0.489  0.463  0.359  0.355  0.342  0.328  0.328  0.000  0.000
 1990 003   141    86     20    115    463     5   169   125  0.441  0.469  0.448  0.356  0.352  0.341  0.327  0.327  0.000  0.000
 1990 004   142    79     20    115    463     5   169   125  0.407  0.448  0.432  0.354  0.350  0.340  0.326  0.325  0.000  0.000
 1990 005   143   101     20    115    463     6   199   125  0.543  0.544  0.484  0.350  0.348  0.338  0.325  0.324  0.000  0.000
 1990 006   144    93     20    115    463     6   199   125  0.499  0.517  0.472  0.350  0.346  0.337  0.324  0.322  0.000  0.000
 1990 007   145    86     20    115    463     6   199   125  0.467  0.492  0.458  0.349  0.344  0.336  0.324  0.321  0.000  0.000
 1990 008   146    81     20    115    463     6   199   125  0.446  0.474  0.448  0.348  0.343  0.335  0.323  0.321  0.000  0.000
 1990 009   147    75     20    115    463     6   199   125  0.418  0.457  0.436  0.347  0.342  0.335  0.323  0.320  0.000  0.000
 1990 010   148    70     20    115    463     6   199   125  0.394  0.438  0.424  0.346  0.341  0.334  0.322  0.319  0.000  0.000
 1990 011   149    95     20    115    463     7   232   125  0.536  0.542  0.484  0.343  0.339  0.333  0.321  0.318  0.000  0.000
 1990 012   150    87     20    115    463     7   232   125  0.487  0.514  0.471  0.343  0.338  0.332  0.321  0.317  0.000  0.000
 1990 013   151    83     20    115    463     7   232   125  0.472  0.495  0.464  0.344  0.338  0.332  0.320  0.316  0.000  0.000
 1990 014   152    75     20    115    463     7   232   125  0.428  0.472  0.449  0.343  0.337  0.331  0.320  0.315  0.000  0.000
 1990 015   153    70     20    115    463     7   232   125  0.400  0.455  0.437  0.343  0.336  0.330  0.319  0.315  0.000  0.000
 1990 016   154    63     20    115    463     7   232   125  0.366  0.434  0.423  0.342  0.335  0.330  0.319  0.314  0.000  0.000
 1990 017   155    94     20    115    463     8   265   125  0.556  0.556  0.488  0.341  0.334  0.329  0.318  0.314  0.000  0.000
 1990 018   156    94     20    115    469     8   265   125  0.513  0.546  0.511  0.342  0.334  0.329  0.318  0.313  0.000  0.000
 1990 019   157    88     20    115    469     8   265   125  0.481  0.514  0.499  0.343  0.333  0.328  0.317  0.312  0.000  0.000
 1990 020   158    80     20    115    469     8   265   125  0.441  0.491  0.483  0.344  0.332  0.327  0.317  0.312  0.000  0.000

*DSSAT Cropping System Model Ver. 4.0.2.000               Aug 03, 2016; 15:38:15

*RUN   4        : UYMZ                    
 MODEL          : MZCER040 - Maize           
 EXPERIMENT     : UYMZ0131 MZ    late to create DSS                             
 TREATMENT  1   : UYMZ                    

@YEAR DOY   DAS  SWXD   ROFC   DRNC   PREC  IR#C  IRRC  DTWT   SW1D   SW2D   SW3D   SW4D   SW5D   SW6D   SW7D   SW8D   SW9D   SW10
 1990 227     0   144      0      0     28     0     0   125  0.536  0.568  0.407  0.335  0.375  0.419  0.408  0.395  0.000  0.000
 1990 228     1   141      0      0     28     0     0   125  0.478  0.545  0.420  0.335  0.376  0.418  0.408  0.395  0.000  0.000
 1990 229     2   138      0      0     28     0     0   125  0.467  0.515  0.425  0.336  0.376  0.418  0.408  0.395  0.000  0.000
 1990 230     3   136      0      0     28     0     0   125  0.443  0.499  0.428  0.337  0.377  0.417  0.408  0.395  0.000  0.000
 1990 231     4   135      0      0     28     0     0   125  0.434  0.486  0.430  0.338  0.377  0.417  0.408  0.395  0.000  0.000
 1990 232     5   134      0      0     28     0     0   125  0.426  0.476  0.432  0.339  0.378  0.416  0.408  0.395  0.000  0.000
 1990 233     6   133      0      0     28     0     0   125  0.419  0.468  0.433  0.340  0.378  0.416  0.408  0.395  0.000  0.000
 1990 234     7   132      0      0     28     0     0   125  0.413  0.462  0.434  0.341  0.378  0.415  0.408  0.395  0.000  0.000
 1990 235     8   131      0      0     28     0     0   125  0.407  0.456  0.434  0.342  0.379  0.415  0.408  0.395  0.000  0.000
 1990 236     9   131      0      0     28     0     0   125  0.401  0.451  0.434  0.343  0.379  0.415  0.408  0.395  0.000  0.000
 1990 237    10   157      0      0     28     1    30   125  0.514  0.563  0.500  0.343  0.379  0.414  0.408  0.395  0.000  0.000
 1990 238    11   154      0      0     28     1    30   125  0.466  0.535  0.508  0.346  0.379  0.414  0.407  0.395  0.000  0.000
 1990 239    12   194      0      0     70     1    30   125  0.557  0.556  0.567  0.473  0.422  0.414  0.407  0.395  0.000  0.000
 1990 240    13   193      0      0     72     1    30   125  0.502  0.559  0.562  0.466  0.437  0.416  0.407  0.395  0.000  0.000
 1990 241    14   187      0      3     72     1    30   125  0.472  0.537  0.554  0.455  0.435  0.419  0.408  0.395  0.000  0.000
 1990 242    15   182      0      5     72     1    30   125  0.448  0.523  0.545  0.448  0.433  0.419  0.408  0.395  0.000  0.000
 1990 243    16   180      0      5     72     1    30   125  0.461  0.514  0.540  0.444  0.433  0.419  0.408  0.395  0.000  0.000
 1990 244    17   182      0      5     75     1    30   125  0.507  0.511  0.535  0.441  0.434  0.420  0.408  0.395  0.000  0.000
 1990 245    18   180      0      5     75     1    30   125  0.480  0.515  0.532  0.440  0.434  0.420  0.408  0.395  0.000  0.000
 1990 246    19   179      0      5     75     1    30   125  0.475  0.512  0.529  0.439  0.434  0.420  0.408  0.395  0.000  0.000
 1990 247    20   178      0      5     75     1    30   125  0.473  0.508  0.527  0.438  0.434  0.420  0.408  0.395  0.000  0.000
 1990 248    21   177      0      5     75     1    30   125  0.472  0.506  0.525  0.437  0.434  0.420  0.408  0.395  0.000  0.000
 1990 249    22   177      0      5     76     1    30   125  0.490  0.503  0.523  0.436  0.434  0.420  0.408  0.395  0.000  0.000
 1990 250    23   184      0      5     84     1    30   125  0.556  0.545  0.522  0.435  0.433  0.420  0.408  0.395  0.000  0.000
 1990 251    24   201      0      5    102     1    30   125  0.544  0.563  0.572  0.468  0.445  0.422  0.410  0.397  0.000  0.000
 1990 252    25   191      0     11    102     1    30   125  0.454  0.554  0.560  0.456  0.439  0.421  0.410  0.397  0.000  0.000
 1990 253    26   186      0     14    102     1    30   125  0.458  0.527  0.550  0.449  0.436  0.421  0.410  0.397  0.000  0.000
 1990 254    27   207      0     15    126     1    30   125  0.541  0.565  0.564  0.470  0.460  0.430  0.417  0.400  0.000  0.000
 1990 255    28   195      0     23    126     1    30   125  0.476  0.555  0.555  0.457  0.449  0.426  0.413  0.398  0.000  0.000
 1990 256    29   188      0     28    126     1    30   125  0.475  0.530  0.548  0.449  0.442  0.423  0.411  0.398  0.000  0.000
 1990 257    30   184      0     30    126     1    30   125  0.463  0.521  0.541  0.445  0.437  0.421  0.410  0.398  0.000  0.000
 1990 258    31   182      0     31    126     1    30   125  0.463  0.515  0.536  0.442  0.435  0.421  0.410  0.398  0.000  0.000
 1990 259    32   180      0     31    126     1    30   125  0.465  0.510  0.532  0.439  0.433  0.421  0.410  0.398  0.000  0.000
 1990 260    33   179      0     31    126     1    30   125  0.466  0.507  0.529  0.438  0.433  0.421  0.410  0.398  0.000  0.000
 1990 261    34   208      0     32    158     1    30   125  0.545  0.565  0.565  0.469  0.460  0.433  0.418  0.401  0.000  0.000
 1990 262    35   197      0     41    158     1    30   125  0.486  0.555  0.556  0.456  0.449  0.427  0.414  0.399  0.000  0.000
 1990 263    36   190      0     46    158     1    30   125  0.500  0.532  0.549  0.449  0.442  0.424  0.412  0.397  0.000  0.000
 1990 264    37   186      0     49    158     1    30   125  0.492  0.526  0.543  0.445  0.437  0.422  0.410  0.397  0.000  0.000
 1990 265    38   182      0     50    158     1    30   125  0.466  0.521  0.538  0.442  0.435  0.421  0.410  0.397  0.000  0.000
 1990 266    39   180      0     50    158     1    30   125  0.465  0.514  0.534  0.440  0.433  0.421  0.410  0.397  0.000  0.000
 1990 267    40   179      0     50    158     1    30   125  0.464  0.508  0.530  0.439  0.433  0.421  0.410  0.397  0.000  0.000
 1990 268    41   178      0     50    158     1    30   125  0.463  0.504  0.527  0.438  0.433  0.421  0.410  0.397  0.000  0.000
 1990 269    42   177      0     50    158     1    30   125  0.462  0.500  0.524  0.437  0.433  0.421  0.410  0.397  0.000  0.000
 1990 270    43   176      0     50    158     1    30   125  0.460  0.497  0.521  0.435  0.433  0.421  0.410  0.397  0.000  0.000
 1990 271    44   175      0     50    158     1    30   125  0.459  0.495  0.519  0.434  0.433  0.421  0.410  0.397  0.000  0.000
 1990 272    45   174      0     50    158     1    30   125  0.457  0.492  0.516  0.433  0.433  0.421  0.410  0.397  0.000  0.000
 1990 273    46   173      0     50    158     1    30   125  0.455  0.489  0.513  0.432  0.432  0.421  0.410  0.397  0.000  0.000
 1990 274    47   172      0     50    158     1    30   125  0.452  0.486  0.510  0.431  0.432  0.421  0.410  0.397  0.000  0.000
 1990 275    48   171      0     50    158     1    30   125  0.448  0.482  0.506  0.430  0.432  0.421  0.410  0.397  0.000  0.000
 1990 276    49   169      0     50    158     1    30   125  0.444  0.478  0.503  0.429  0.431  0.421  0.410  0.397  0.000  0.000
 1990 277    50   168      0     50    158     1    30   125  0.440  0.474  0.500  0.428  0.431  0.421  0.410  0.397  0.000  0.000
 1990 278    51   167      0     50    158     1    30   125  0.438  0.472  0.498  0.427  0.430  0.421  0.410  0.397  0.000  0.000
 1990 279    52   189      0     50    182     1    30   125  0.540  0.565  0.545  0.429  0.430  0.421  0.410  0.397  0.000  0.000
 1990 280    53   192      0     50    187     1    30   125  0.543  0.566  0.555  0.441  0.430  0.421  0.410  0.397  0.000  0.000
 1990 281    54   221      1     57    226     1    30   125  0.529  0.565  0.566  0.470  0.461  0.447  0.439  0.432  0.000  0.000
 1990 282    55   202      1     72    226     1    30   125  0.459  0.546  0.553  0.456  0.449  0.436  0.427  0.417  0.000  0.000
 1990 283    56   190      1     79    226     1    30   125  0.461  0.520  0.541  0.448  0.442  0.429  0.419  0.408  0.000  0.000
 1990 284    57   184      1     84    226     1    30   125  0.460  0.512  0.534  0.443  0.437  0.425  0.415  0.403  0.000  0.000
 1990 285    58   215      1     86    264     1    30   125  0.513  0.559  0.558  0.468  0.460  0.447  0.438  0.413  0.000  0.000
 1990 286    59   198      1     98    264     1    30   125  0.471  0.534  0.544  0.455  0.449  0.436  0.426  0.406  0.000  0.000
 1990 287    60   186      1    104    264     1    30   125  0.442  0.515  0.532  0.446  0.442  0.429  0.419  0.401  0.000  0.000
 1990 288    61   179      1    107    264     1    30   125  0.439  0.501  0.522  0.440  0.437  0.425  0.415  0.399  0.000  0.000
 1990 289    62   174      1    109    264     1    30   125  0.434  0.489  0.512  0.436  0.434  0.423  0.412  0.397  0.000  0.000
 1990 290    63   170      1    110    264     1    30   125  0.429  0.481  0.507  0.432  0.433  0.421  0.410  0.397  0.000  0.000
 1990 291    64   167      1    110    264     1    30   125  0.423  0.471  0.498  0.427  0.432  0.421  0.410  0.397  0.000  0.000
 1990 292    65   171      1    110    272     1    30   125  0.552  0.472  0.492  0.423  0.431  0.421  0.410  0.397  0.000  0.000
 1990 293    66   173      1    110    277     1    30   125  0.502  0.525  0.487  0.419  0.429  0.421  0.410  0.397  0.000  0.000
 1990 294    67   168      1    110    277     1    30   125  0.471  0.506  0.484  0.414  0.427  0.421  0.410  0.397  0.000  0.000
 1990 295    68   163      1    110    277     1    30   125  0.451  0.488  0.477  0.407  0.425  0.421  0.410  0.397  0.000  0.000
 1990 296    69   158      1    110    277     1    30   125  0.425  0.475  0.472  0.402  0.422  0.421  0.410  0.397  0.000  0.000
 1990 297    70   153      1    110    277     1    30   125  0.405  0.464  0.466  0.396  0.419  0.421  0.410  0.397  0.000  0.000
 1990 298    71   150      1    110    277     1    30   125  0.395  0.455  0.462  0.392  0.416  0.421  0.410  0.397  0.000  0.000
 1990 299    72   145      1    110    277     1    30   125  0.382  0.442  0.453  0.384  0.411  0.421  0.410  0.397  0.000  0.000
 1990 300    73   141      1    110    277     1    30   125  0.371  0.432  0.445  0.379  0.407  0.420  0.410  0.397  0.000  0.000
 1990 301    74   170      1    110    277     2    61   125  0.564  0.563  0.494  0.378  0.404  0.420  0.410  0.397  0.000  0.000
 1990 302    75   173      1    110    283     2    61   125  0.552  0.554  0.525  0.378  0.401  0.420  0.410  0.397  0.000  0.000
 1990 303    76   188      1    110    304     2    61   125  0.537  0.553  0.557  0.450  0.403  0.419  0.410  0.397  0.000  0.000
 1990 304    77   182      1    110    304     2    61   125  0.516  0.541  0.542  0.435  0.411  0.418  0.410  0.397  0.000  0.000
 1990 305    78   179      1    110    306     2    61   125  0.550  0.530  0.533  0.428  0.405  0.417  0.410  0.397  0.000  0.000
 1990 306    79   175      1    110    306     2    61   125  0.519  0.530  0.527  0.421  0.400  0.416  0.410  0.397  0.000  0.000
 1990 307    80   172      1    110    306     2    61   125  0.517  0.523  0.523  0.418  0.398  0.415  0.410  0.397  0.000  0.000
 1990 308    81   200      1    110    339     2    61   125  0.557  0.561  0.561  0.464  0.452  0.420  0.411  0.398  0.000  0.000
 1990 309    82   190      1    116    339     2    61   125  0.533  0.546  0.547  0.447  0.436  0.418  0.410  0.398  0.000  0.000
 1990 310    83   185      1    117    339     2    61   125  0.530  0.536  0.541  0.439  0.430  0.417  0.410  0.398  0.000  0.000
 1990 311    84   182      1    117    341     2    61   125  0.549  0.536  0.534  0.433  0.424  0.414  0.410  0.398  0.000  0.000
 1990 312    85   181      1    117    341     2    61   125  0.536  0.537  0.533  0.431  0.422  0.413  0.410  0.398  0.000  0.000
 1990 313    86   177      1    117    341     2    61   125  0.527  0.532  0.530  0.427  0.419  0.410  0.410  0.398  0.000  0.000
 1990 314    87   173      1    117    341     2    61   125  0.529  0.525  0.524  0.422  0.414  0.407  0.409  0.398  0.000  0.000
 1990 315    88   168      1    117    341     2    61   125  0.512  0.520  0.518  0.416  0.408  0.402  0.409  0.398  0.000  0.000
 1990 316    89   165      1    117    341     2    61   125  0.511  0.515  0.515  0.414  0.405  0.400  0.409  0.398  0.000  0.000
 1990 317    90   159      1    117    341     2    61   125  0.499  0.507  0.507  0.407  0.398  0.394  0.409  0.398  0.000  0.000
 1990 318    91   157      1    117    343     2    61   125  0.535  0.500  0.502  0.402  0.394  0.391  0.408  0.398  0.000  0.000
 1990 319    92   155      1    117    343     2    61   125  0.511  0.507  0.500  0.400  0.392  0.390  0.408  0.398  0.000  0.000
 1990 320    93   204      1    117    396     2    61   125  0.558  0.563  0.564  0.466  0.457  0.425  0.413  0.399  0.000  0.000
 1990 321    94   191      1    124    396     2    61   125  0.540  0.548  0.548  0.448  0.440  0.417  0.411  0.397  0.000  0.000
 1990 322    95   183      1    125    396     2    61   125  0.529  0.538  0.539  0.437  0.429  0.413  0.409  0.397  0.000  0.000
 1990 323    96   177      1    125    396     2    61   125  0.523  0.529  0.532  0.430  0.422  0.407  0.407  0.397  0.000  0.000
 1990 324    97   174      1    125    396     2    61   125  0.521  0.525  0.528  0.427  0.419  0.405  0.406  0.397  0.000  0.000
 1990 325    98   168      1    125    398     2    61   125  0.536  0.519  0.520  0.420  0.412  0.399  0.402  0.397  0.000  0.000
 1990 326    99   162      1    125    398     2    61   125  0.512  0.518  0.515  0.414  0.406  0.393  0.399  0.397  0.000  0.000
 1990 327   100   155      1    125    398     2    61   125  0.502  0.509  0.508  0.408  0.400  0.389  0.393  0.397  0.000  0.000
 1990 328   101   150      1    125    398     2    61   125  0.495  0.502  0.502  0.403  0.394  0.385  0.388  0.397  0.000  0.000
 1990 329   102   145      1    125    398     2    61   125  0.489  0.496  0.497  0.398  0.390  0.383  0.383  0.396  0.000  0.000
 1990 330   103   161      1    125    419     2    61   125  0.561  0.561  0.547  0.400  0.386  0.380  0.379  0.396  0.000  0.000
 1990 331   104   155      1    125    419     2    61   125  0.540  0.547  0.535  0.406  0.382  0.377  0.374  0.395  0.000  0.000
 1990 332   105   149      1    125    419     2    61   125  0.527  0.534  0.527  0.399  0.378  0.374  0.370  0.395  0.000  0.000
 1990 333   106   142      1    125    419     2    61   125  0.517  0.521  0.517  0.392  0.374  0.371  0.367  0.394  0.000  0.000
 1990 334   107   139      1    125    419     2    61   125  0.511  0.515  0.511  0.389  0.373  0.370  0.366  0.393  0.000  0.000
 1990 335   108   133      1    125    419     2    61   125  0.500  0.506  0.502  0.384  0.371  0.367  0.363  0.393  0.000  0.000
 1990 336   109   132      1    125    419     2    61   125  0.498  0.501  0.498  0.383  0.370  0.367  0.363  0.392  0.000  0.000
 1990 337   110   135      1    125    429     2    61   125  0.552  0.545  0.493  0.377  0.367  0.364  0.360  0.391  0.000  0.000
 1990 338   111   129      1    125    429     2    61   125  0.530  0.525  0.490  0.373  0.365  0.362  0.358  0.389  0.000  0.000
 1990 339   112   125      1    125    429     2    61   125  0.514  0.514  0.485  0.372  0.363  0.361  0.357  0.386  0.000  0.000
 1990 340   113   164      1    125    471     2    61   125  0.557  0.557  0.563  0.468  0.407  0.359  0.356  0.384  0.000  0.000
 1990 341   114   215      4    128    534     2    61   125  0.553  0.560  0.560  0.461  0.453  0.446  0.438  0.415  0.000  0.000
[...]
 1992 236     9   149      0      0      7     1    45   125  0.520  0.489  0.482  0.349  0.379  0.415  0.408  0.395  0.000  0.000
 1992 237    10   146      0      0      7     1    45   125  0.461  0.495  0.482  0.351  0.379  0.414  0.408  0.395  0.000  0.000
 1992 238    11   145      0      0      7     1    45   125  0.446  0.488  0.481  0.353  0.380  0.414  0.407  0.395  0.000  0.000
 1992 239    12   144      0      0      7     1    45   125  0.437  0.482  0.480  0.355  0.380  0.414  0.407  0.395  0.000  0.000
 1992 240    13   143      0      0      7     1    45   125  0.431  0.476  0.478  0.356  0.381  0.413  0.407  0.395  0.000  0.000
 1992 241    14   142      0      0      7     1    45   125  0.425  0.472  0.477  0.358  0.381  0.413  0.407  0.395  0.000  0.000
 1992 242    15   141      0      0      7     1    45   125  0.420  0.467  0.475  0.359  0.381  0.413  0.407  0.395  0.000  0.000
 1992 243    16   141      0      0      7     1    45   125  0.416  0.464  0.473  0.361  0.382  0.412  0.407  0.395  0.000  0.000
 1992 244    17   145      0      0     13     1    45   125  0.516  0.460  0.472  0.362  0.382  0.412  0.407  0.395  0.000  0.000
 1992 245    18   144      0      0     13     1    45   125  0.475  0.470  0.471  0.363  0.382  0.412  0.407  0.395  0.000  0.000
 1992 246    19   143      0      0     13     1    45   125  0.455  0.470  0.470  0.364  0.383  0.411  0.407  0.395  0.000  0.000
 1992 247    20   142      0      0     13     1    45   125  0.442  0.468  0.469  0.365  0.383  0.411  0.407  0.395  0.000  0.000
 1992 248    21   142      0      0     13     1    45   125  0.432  0.465  0.468  0.366  0.383  0.411  0.407  0.395  0.000  0.000
 1992 249    22   141      0      0     13     1    45   125  0.425  0.462  0.467  0.367  0.384  0.411  0.407  0.395  0.000  0.000
 1992 250    23   140      0      0     13     1    45   125  0.419  0.459  0.466  0.368  0.384  0.410  0.407  0.395  0.000  0.000
 1992 251    24   139      0      0     13     1    45   125  0.414  0.456  0.465  0.369  0.384  0.410  0.406  0.395  0.000  0.000
 1992 252    25   139      0      0     13     1    45   125  0.410  0.453  0.464  0.370  0.384  0.410  0.406  0.395  0.000  0.000
 1992 253    26   138      0      0     13     1    45   125  0.405  0.450  0.463  0.371  0.385  0.410  0.406  0.395  0.000  0.000
 1992 254    27   138      0      0     13     1    45   125  0.402  0.447  0.462  0.371  0.385  0.409  0.406  0.395  0.000  0.000
 1992 255    28   140      0      0     17     1    45   125  0.449  0.444  0.461  0.372  0.385  0.409  0.406  0.395  0.000  0.000
 1992 256    29   140      0      0     19     1    45   125  0.453  0.445  0.460  0.372  0.386  0.409  0.406  0.394  0.000  0.000
 1992 257    30   139      0      0     19     1    45   125  0.438  0.446  0.459  0.373  0.386  0.409  0.406  0.394  0.000  0.000
 1992 258    31   138      0      0     19     1    45   125  0.427  0.445  0.457  0.373  0.386  0.409  0.406  0.394  0.000  0.000
 1992 259    32   137      0      0     19     1    45   125  0.418  0.443  0.456  0.374  0.386  0.408  0.406  0.394  0.000  0.000
 1992 260    33   137      0      0     19     1    45   125  0.410  0.440  0.455  0.374  0.387  0.408  0.406  0.394  0.000  0.000
 1992 261    34   136      0      0     19     1    45   125  0.404  0.438  0.453  0.375  0.387  0.408  0.405  0.394  0.000  0.000
 1992 262    35   136      0      0     23     1    45   125  0.423  0.434  0.451  0.375  0.387  0.408  0.405  0.394  0.000  0.000
 1992 263    36   135      0      0     23     1    45   125  0.413  0.432  0.448  0.375  0.387  0.408  0.405  0.394  0.000  0.000
 1992 264    37   134      0      0     23     1    45   125  0.405  0.430  0.445  0.376  0.388  0.407  0.405  0.394  0.000  0.000
 1992 265    38   159      0      0     23     2    75   125  0.481  0.565  0.496  0.376  0.388  0.407  0.405  0.394  0.000  0.000
 1992 266    39   169      0      0     35     2    75   125  0.563  0.550  0.548  0.377  0.388  0.407  0.405  0.394  0.000  0.000
 1992 267    40   176      0      0     45     2    75   125  0.511  0.566  0.562  0.414  0.388  0.407  0.405  0.394  0.000  0.000
 1992 268    41   175      0      0     45     2    75   125  0.514  0.543  0.551  0.430  0.389  0.407  0.405  0.394  0.000  0.000
 1992 269    42   188      0      0     62     2    75   125  0.518  0.559  0.564  0.469  0.413  0.407  0.405  0.394  0.000  0.000
 1992 270    43   184      0      0     62     2    75   125  0.475  0.539  0.554  0.456  0.432  0.411  0.405  0.394  0.000  0.000
 1992 271    44   180      0      0     62     2    75   125  0.446  0.522  0.544  0.449  0.432  0.417  0.405  0.394  0.000  0.000
 1992 272    45   178      0      0     62     2    75   125  0.448  0.511  0.536  0.444  0.432  0.419  0.405  0.394  0.000  0.000
 1992 273    46   176      0      0     62     2    75   125  0.447  0.503  0.529  0.441  0.432  0.419  0.407  0.394  0.000  0.000
 1992 274    47   174      0      0     62     2    75   125  0.445  0.497  0.523  0.439  0.432  0.419  0.407  0.394  0.000  0.000
 1992 275    48   173      0      0     62     2    75   125  0.443  0.492  0.519  0.438  0.432  0.419  0.407  0.394  0.000  0.000
 1992 276    49   172      0      0     64     2    75   125  0.464  0.488  0.515  0.436  0.431  0.419  0.407  0.394  0.000  0.000
 1992 277    50   171      0      0     64     2    75   125  0.453  0.485  0.511  0.434  0.431  0.419  0.407  0.394  0.000  0.000
 1992 278    51   169      0      0     64     2    75   125  0.445  0.481  0.506  0.433  0.431  0.419  0.407  0.394  0.000  0.000
 1992 279    52   168      0      0     64     2    75   125  0.440  0.478  0.504  0.431  0.431  0.419  0.407  0.394  0.000  0.000
 1992 280    53   175      0      0     76     2    75   125  0.515  0.528  0.498  0.429  0.430  0.419  0.407  0.394  0.000  0.000
 1992 281    54   171      0      0     76     2    75   125  0.468  0.515  0.498  0.428  0.430  0.419  0.407  0.394  0.000  0.000
 1992 282    55   168      0      0     76     2    75   125  0.453  0.498  0.495  0.426  0.430  0.419  0.407  0.394  0.000  0.000
 1992 283    56   165      0      0     76     2    75   125  0.440  0.486  0.491  0.424  0.429  0.419  0.407  0.394  0.000  0.000
 1992 284    57   162      0      0     76     2    75   125  0.428  0.475  0.486  0.421  0.429  0.419  0.407  0.394  0.000  0.000
 1992 285    58   160      0      0     76     2    75   125  0.419  0.467  0.482  0.419  0.428  0.419  0.407  0.394  0.000  0.000
 1992 286    59   157      0      0     76     2    75   125  0.410  0.457  0.475  0.417  0.427  0.419  0.407  0.394  0.000  0.000
 1992 287    60   154      0      0     76     2    75   125  0.402  0.447  0.468  0.413  0.427  0.419  0.407  0.394  0.000  0.000
 1992 288    61   150      0      0     76     2    75   125  0.394  0.437  0.460  0.409  0.426  0.419  0.407  0.394  0.000  0.000
 1992 289    62   149      0      0     76     2    75   125  0.386  0.433  0.457  0.407  0.425  0.418  0.407  0.394  0.000  0.000
 1992 290    63   177      0      0    106     2    75   125  0.554  0.564  0.505  0.405  0.424  0.418  0.407  0.394  0.000  0.000
 1992 291    64   172      0      0    106     2    75   125  0.499  0.540  0.510  0.403  0.423  0.418  0.407  0.394  0.000  0.000
 1992 292    65   167      0      0    106     2    75   125  0.480  0.514  0.503  0.401  0.421  0.418  0.407  0.394  0.000  0.000
 1992 293    66   165      0      0    106     2    75   125  0.480  0.503  0.500  0.400  0.420  0.418  0.407  0.394  0.000  0.000
 1992 294    67   175      0      0    120     2    75   125  0.535  0.556  0.516  0.397  0.419  0.418  0.407  0.394  0.000  0.000
 1992 295    68   170      0      0    120     2    75   125  0.497  0.534  0.514  0.394  0.416  0.418  0.407  0.394  0.000  0.000
 1992 296    69   164      0      0    120     2    75   125  0.479  0.513  0.506  0.391  0.414  0.418  0.407  0.394  0.000  0.000
 1992 297    70   159      0      0    120     2    75   125  0.460  0.497  0.497  0.386  0.411  0.418  0.407  0.394  0.000  0.000
 1992 298    71   154      0      0    120     2    75   125  0.429  0.482  0.487  0.382  0.407  0.417  0.407  0.394  0.000  0.000
 1992 299    72   151      0      0    120     2    75   125  0.428  0.473  0.482  0.381  0.405  0.417  0.407  0.394  0.000  0.000
 1992 300    73   145      0      0    120     2    75   125  0.401  0.459  0.470  0.376  0.400  0.417  0.407  0.394  0.000  0.000
 1992 301    74   139      0      0    120     2    75   125  0.384  0.443  0.456  0.371  0.394  0.416  0.407  0.394  0.000  0.000
 1992 302    75   139      0      0    122     2    75   125  0.413  0.437  0.452  0.371  0.393  0.416  0.407  0.394  0.000  0.000
 1992 303    76   134      0      0    123     2    75   125  0.411  0.426  0.440  0.367  0.388  0.416  0.407  0.394  0.000  0.000
 1992 304    77   160      0      0    123     3   105   125  0.544  0.561  0.486  0.364  0.383  0.415  0.407  0.394  0.000  0.000
 1992 305    78   154      0      0    123     3   105   125  0.511  0.534  0.485  0.363  0.379  0.414  0.407  0.394  0.000  0.000
 1992 306    79   149      0      0    123     3   105   125  0.494  0.508  0.476  0.362  0.376  0.413  0.407  0.394  0.000  0.000
 1992 307    80   142      0      0    123     3   105   125  0.466  0.489  0.465  0.360  0.372  0.412  0.407  0.394  0.000  0.000
 1992 308    81   155      0      0    140     3   105   125  0.553  0.553  0.485  0.359  0.370  0.411  0.406  0.394  0.000  0.000
 1992 309    82   151      0      0    140     3   105   125  0.523  0.530  0.484  0.359  0.367  0.409  0.406  0.394  0.000  0.000
 1992 310    83   146      0      0    140     3   105   125  0.506  0.512  0.478  0.359  0.366  0.408  0.406  0.394  0.000  0.000
 1992 311    84   141      0      0    140     3   105   125  0.481  0.497  0.470  0.358  0.364  0.406  0.406  0.394  0.000  0.000
 1992 312    85   136      0      0    140     3   105   125  0.457  0.481  0.460  0.357  0.362  0.404  0.406  0.394  0.000  0.000
 1992 313    86   130      0      0    140     3   105   125  0.431  0.465  0.449  0.356  0.360  0.402  0.406  0.394  0.000  0.000
 1992 314    87   124      0      0    140     3   105   125  0.410  0.448  0.437  0.354  0.358  0.398  0.406  0.394  0.000  0.000
 1992 315    88   152      0      0    140     4   135   125  0.567  0.560  0.497  0.353  0.358  0.397  0.405  0.394  0.000  0.000
 1992 316    89   150      0      0    144     4   135   125  0.541  0.549  0.511  0.354  0.357  0.394  0.405  0.394  0.000  0.000
 1992 317    90   144      0      0    144     4   135   125  0.512  0.526  0.501  0.355  0.355  0.391  0.405  0.394  0.000  0.000
 1992 318    91   138      0      0    144     4   135   125  0.493  0.504  0.487  0.354  0.354  0.388  0.405  0.394  0.000  0.000
 1992 319    92   133      0      0    144     4   135   125  0.478  0.490  0.477  0.354  0.353  0.386  0.404  0.393  0.000  0.000
 1992 320    93   155      0      0    171     4   135   125  0.550  0.553  0.550  0.367  0.352  0.384  0.404  0.393  0.000  0.000
 1992 321    94   149      0      0    171     4   135   125  0.523  0.536  0.530  0.375  0.351  0.382  0.404  0.393  0.000  0.000
 1992 322    95   144      0      0    171     4   135   125  0.512  0.520  0.516  0.373  0.350  0.380  0.403  0.393  0.000  0.000
 1992 323    96   138      0      0    171     4   135   125  0.494  0.505  0.502  0.370  0.349  0.378  0.403  0.393  0.000  0.000
 1992 324    97   132      0      0    171     4   135   125  0.474  0.489  0.487  0.367  0.348  0.375  0.403  0.393  0.000  0.000
 1992 325    98   127      0      0    171     4   135   125  0.459  0.476  0.475  0.364  0.348  0.373  0.402  0.393  0.000  0.000
 1992 326    99   125      0      0    171     4   135   125  0.457  0.470  0.470  0.364  0.348  0.373  0.401  0.393  0.000  0.000
 1992 327   100   120      0      0    171     4   135   125  0.441  0.458  0.459  0.362  0.347  0.371  0.400  0.393  0.000  0.000
 1992 328   101   116      0      0    171     4   135   125  0.428  0.448  0.449  0.360  0.347  0.370  0.397  0.393  0.000  0.000
 1992 329   102   111      0      0    171     4   135   125  0.416  0.436  0.438  0.358  0.346  0.368  0.394  0.392  0.000  0.000
 1992 330   103   136      0      0    171     5   165   125  0.559  0.558  0.489  0.356  0.345  0.366  0.390  0.392  0.000  0.000
 1992 331   104   132      0      0    171     5   165   125  0.537  0.535  0.492  0.356  0.345  0.365  0.386  0.392  0.000  0.000
 1992 332   105   125      0      0    171     5   165   125  0.511  0.515  0.482  0.356  0.344  0.363  0.381  0.392  0.000  0.000
 1992 333   106   121      0      0    171     5   165   125  0.497  0.501  0.474  0.355  0.343  0.362  0.378  0.391  0.000  0.000
 1992 334   107   116      0      0    171     5   165   125  0.481  0.487  0.465  0.355  0.343  0.361  0.375  0.391  0.000  0.000
 1992 335   108   145      0      0    205     5   165   125  0.551  0.554  0.558  0.395  0.342  0.359  0.372  0.390  0.000  0.000
 1992 336   109   139      0      0    205     5   165   125  0.527  0.539  0.538  0.398  0.342  0.358  0.369  0.390  0.000  0.000
 1992 337   110   133      0      0    205     5   165   125  0.516  0.524  0.524  0.389  0.343  0.356  0.367  0.389  0.000  0.000
 1992 338   111   127      0      0    205     5   165   125  0.503  0.512  0.512  0.382  0.343  0.355  0.365  0.388  0.000  0.000
 1992 339   112   121      0      0    205     5   165   125  0.483  0.497  0.497  0.376  0.342  0.353  0.363  0.388  0.000  0.000
 1992 340   113   116      0      0    205     5   165   125  0.473  0.487  0.487  0.373  0.342  0.352  0.362  0.387  0.000  0.000
 1992 341   114   141      0      0    235     5   165   125  0.549  0.554  0.555  0.402  0.342  0.351  0.360  0.387  0.000  0.000
 1992 342   115   135      0      0    235     5   165   125  0.528  0.540  0.538  0.405  0.342  0.350  0.359  0.386  0.000  0.000
 1992 343   116   130      0      0    235     5   165   125  0.519  0.526  0.525  0.396  0.342  0.349  0.357  0.385  0.000  0.000
 1992 344   117   125      0      0    235     5   165   125  0.507  0.516  0.515  0.390  0.343  0.348  0.356  0.384  0.000  0.000
 1992 345   118   120      0      0    235     5   165   125  0.494  0.505  0.504  0.383  0.343  0.347  0.355  0.382  0.000  0.000
 1992 346   119   115      0      0    235     5   165   125  0.480  0.493  0.493  0.378  0.342  0.346  0.354  0.381  0.000  0.000
 1992 347   120   108      0      0    235     5   165   125  0.460  0.478  0.479  0.372  0.342  0.345  0.353  0.379  0.000  0.000
 1992 348   121   101      0      0    235     5   165   125  0.437  0.462  0.464  0.367  0.341  0.344  0.351  0.375  0.000  0.000
 1992 349   122    95      0      0    235     5   165   125  0.417  0.447  0.450  0.363  0.340  0.343  0.349  0.372  0.000  0.000
 1992 350   123    88      0      0    235     5   165   125  0.403  0.430  0.435  0.360  0.340  0.342  0.348  0.369  0.000  0.000
 1992 351   124   114      0      0    235     6   196   125  0.556  0.556  0.484  0.356  0.339  0.341  0.346  0.365  0.000  0.000
 1992 352   125   110      0      0    235     6   196   125  0.532  0.532  0.485  0.356  0.338  0.340  0.345  0.364  0.000  0.000
 1992 353   126   103      0      0    235     6   196   125  0.502  0.510  0.473  0.354  0.337  0.339  0.344  0.361  0.000  0.000
 1992 354   127    99      0      0    235     6   196   125  0.488  0.494  0.465  0.354  0.337  0.338  0.343  0.359  0.000  0.000
 1992 355   128    91      0      0    235     6   196   125  0.455  0.473  0.448  0.352  0.336  0.337  0.342  0.357  0.000  0.000
 1992 356   129    85      0      0    235     6   196   125  0.432  0.455  0.435  0.350  0.335  0.336  0.340  0.355  0.000  0.000
 1992 357   130    88      0      0    241     6   196   125  0.541  0.447  0.429  0.349  0.335  0.336  0.340  0.354  0.000  0.000
 1992 358   131    86      0      0    241     6   196   125  0.498  0.454  0.426  0.348  0.335  0.336  0.340  0.353  0.000  0.000
 1992 359   132   110      0      0    272     6   196   125  0.522  0.554  0.524  0.346  0.334  0.335  0.338  0.351  0.000  0.000
 1992 360   133   105      0      0    272     6   196   125  0.514  0.524  0.514  0.348  0.333  0.334  0.337  0.350  0.000  0.000
 1992 361   134    98      0      0    272     6   196   125  0.486  0.503  0.496  0.349  0.333  0.333  0.336  0.349  0.000  0.000
 1992 362   135    91      0      0    272     6   196   125  0.459  0.483  0.478  0.349  0.332  0.332  0.335  0.347  0.000  0.000
 1992 363   136    84      0      0    272     6   196   125  0.430  0.463  0.461  0.348  0.331  0.332  0.334  0.346  0.000  0.000
 1992 364   137    82      0      0    272     6   196   125  0.427  0.455  0.455  0.348  0.331  0.331  0.334  0.345  0.000  0.000
 1992 365   138    85      0      0    277     6   196   125  0.523  0.447  0.449  0.348  0.331  0.331  0.334  0.345  0.000  0.000
 1992 366   139   140      0      0    334     6   196   125  0.535  0.574  0.563  0.470  0.375  0.331  0.334  0.344  0.000  0.000
 1993 001   140   210     17      0    423     6   196   125  0.575  0.578  0.582  0.486  0.461  0.447  0.412  0.347  0.000  0.000
 1993 002   141   214     17      0    429     6   196   125  0.559  0.566  0.566  0.468  0.459  0.446  0.437  0.387  0.000  0.000
 1993 003   142   218     17      2    437     6   196   125  0.559  0.567  0.567  0.469  0.458  0.445  0.437  0.412  0.000  0.000
 1993 004   143   220     17     14    454     6   196   125  0.551  0.566  0.566  0.467  0.458  0.445  0.437  0.430  0.000  0.000
 1993 005   144   201     17     27    454     6   196   125  0.518  0.553  0.553  0.451  0.443  0.431  0.422  0.413  0.000  0.000
 1993 006   145   187     17     34    454     6   196   125  0.500  0.534  0.544  0.440  0.433  0.421  0.412  0.404  0.000  0.000
 1993 007   146   183     17     34    454     6   196   125  0.508  0.525  0.539  0.438  0.431  0.419  0.408  0.400  0.000  0.000
 1993 008   147   204     17     35    480     6   196   125  0.554  0.564  0.562  0.466  0.457  0.426  0.412  0.400  0.000  0.000
 1993 009   148   190     17     42    480     6   196   125  0.509  0.549  0.551  0.449  0.444  0.419  0.405  0.396  0.000  0.000
 1993 010   149   181     17     44    480     6   196   125  0.493  0.529  0.543  0.439  0.435  0.414  0.403  0.394  0.000  0.000
 1993 011   150   174     17     44    480     6   196   125  0.475  0.518  0.534  0.433  0.428  0.409  0.399  0.393  0.000  0.000
 1993 012   151   166     17     44    480     6   196   125  0.449  0.508  0.526  0.428  0.423  0.404  0.395  0.391  0.000  0.000
 1993 013   152   160     17     44    480     6   196   125  0.435  0.498  0.519  0.424  0.419  0.401  0.392  0.390  0.000  0.000
 1993 014   153   156     17     44    480     6   196   125  0.427  0.490  0.513  0.421  0.416  0.398  0.390  0.389  0.000  0.000
 1993 015   154   201     17     44    532     6   196   125  0.540  0.559  0.561  0.465  0.456  0.433  0.406  0.387  0.000  0.000
 1993 016   155   192     17     49    532     6   196   125  0.511  0.549  0.551  0.452  0.443  0.425  0.406  0.394  0.000  0.000
 1993 017   156   184     17     51    532     6   196   125  0.494  0.532  0.543  0.443  0.435  0.419  0.405  0.394  0.000  0.000
 1993 018   157   179     17     51    532     6   196   125  0.488  0.522  0.536  0.437  0.430  0.416  0.405  0.393  0.000  0.000
 1993 019   158   173     17     51    532     6   196   125  0.458  0.514  0.530  0.433  0.427  0.412  0.402  0.392  0.000  0.000
 1993 020   159   167     17     51    532     6   196   125  0.447  0.503  0.523  0.429  0.423  0.408  0.399  0.391  0.000  0.000
 1993 021   160   161     17     51    532     6   196   125  0.439  0.494  0.516  0.424  0.419  0.404  0.395  0.389  0.000  0.000
