*SOIL TEMPERATURE OUTPUT FILE (DAILY)

*DSSAT Cropping System Model Ver. 4.0.2.000               Aug 03, 2016; 15:38:15

*RUN   1        : UYMZ                    
 MODEL          : MZCER040 - Maize           
 EXPERIMENT     : UYMZ0131 MZ    late to create DSS                             
 TREATMENT  1   : UYMZ                    

@YEAR DOY   DAS  TS1D  TS2D  TS3D  TS4D  TS5D  TS6D  TS7D  TS8D  TS9D  TS10
 1987 227     0  17.2  17.1  17.1  17.2  17.4  17.6  17.7  17.7   0.0   0.0
 1987 228     1  16.1  16.2  16.4  16.7  17.0  17.3  17.6  17.6   0.0   0.0
 1987 229     2  14.2  14.5  15.0  15.7  16.2  16.8  17.2  17.4   0.0   0.0
 1987 230     3  12.5  13.0  13.9  14.8  15.6  16.4  17.0  17.2   0.0   0.0
 1987 231     4  10.9  11.6  12.7  13.9  14.9  16.0  16.7  17.0   0.0   0.0
 1987 232     5   9.8  10.7  12.0  13.3  14.4  15.7  16.5  16.9   0.0   0.0
 1987 233     6   9.7  10.6  11.9  13.3  14.4  15.6  16.5  16.8   0.0   0.0
 1987 234     7  11.3  11.9  13.0  14.1  15.0  16.0  16.7  17.0   0.0   0.0
 1987 235     8  12.8  13.3  14.0  14.8  15.6  16.4  16.9  17.2   0.0   0.0
 1987 236     9  14.4  14.6  15.1  15.6  16.1  16.8  17.2  17.4   0.0   0.0
 1987 237    10  16.4  16.4  16.4  16.6  16.9  17.3  17.5  17.6   0.0   0.0
 1987 238    11  17.8  17.6  17.4  17.3  17.4  17.6  17.7  17.7   0.0   0.0
 1987 239    12  18.6  18.2  17.9  17.7  17.7  17.8  17.8  17.8   0.0   0.0
 1987 240    13  18.4  18.1  17.8  17.6  17.6  17.7  17.8  17.8   0.0   0.0
 1987 241    14  17.4  17.2  17.0  17.1  17.2  17.4  17.6  17.6   0.0   0.0
 1987 242    15  15.9  15.9  16.0  16.3  16.6  17.0  17.3  17.5   0.0   0.0
 1987 243    16  14.7  14.9  15.2  15.7  16.1  16.7  17.1  17.3   0.0   0.0
 1987 244    17  13.7  14.0  14.5  15.1  15.7  16.4  17.0  17.2   0.0   0.0
 1987 245    18  13.2  13.5  14.1  14.8  15.5  16.3  16.9  17.1   0.0   0.0
 1987 246    19  13.8  14.1  14.6  15.2  15.7  16.4  17.0  17.2   0.0   0.0
 1987 247    20  14.1  14.3  14.7  15.3  15.8  16.5  17.0  17.2   0.0   0.0
 1987 248    21  14.1  14.3  14.7  15.3  15.8  16.5  17.0  17.2   0.0   0.0
 1987 249    22  13.9  14.1  14.5  15.1  15.7  16.4  16.9  17.2   0.0   0.0
 1987 250    23  14.4  14.5  14.9  15.4  15.9  16.5  17.0  17.2   0.0   0.0
 1987 251    24  14.9  15.0  15.3  15.7  16.1  16.6  17.1  17.3   0.0   0.0
 1987 252    25  15.8  15.8  15.9  16.1  16.4  16.8  17.2  17.4   0.0   0.0
 1987 253    26  16.3  16.2  16.2  16.3  16.6  16.9  17.3  17.4   0.0   0.0
 1987 254    27  16.9  16.7  16.5  16.6  16.8  17.1  17.3  17.5   0.0   0.0
 1987 255    28  17.0  16.8  16.7  16.7  16.8  17.1  17.4  17.5   0.0   0.0
 1987 256    29  17.7  17.4  17.1  17.0  17.1  17.3  17.4  17.5   0.0   0.0
 1987 257    30  17.5  17.2  17.0  16.9  17.0  17.2  17.4  17.5   0.0   0.0
 1987 258    31  17.5  17.2  16.9  16.9  17.0  17.2  17.4  17.5   0.0   0.0
 1987 259    32  16.5  16.4  16.3  16.4  16.6  16.9  17.2  17.4   0.0   0.0
 1987 260    33  16.2  16.0  16.0  16.1  16.4  16.8  17.1  17.3   0.0   0.0
 1987 261    34  14.8  14.8  15.1  15.4  15.9  16.4  16.9  17.1   0.0   0.0
 1987 262    35  13.9  14.1  14.5  15.0  15.5  16.2  16.8  17.0   0.0   0.0
 1987 263    36  13.9  14.1  14.4  15.0  15.5  16.2  16.7  17.0   0.0   0.0
 1987 264    37  14.1  14.2  14.5  15.0  15.5  16.2  16.8  17.0   0.0   0.0
 1987 265    38  13.7  13.9  14.3  14.8  15.4  16.1  16.7  17.0   0.0   0.0
 1987 266    39  13.8  14.0  14.3  14.9  15.4  16.1  16.7  17.0   0.0   0.0
 1987 267    40  14.8  14.8  15.0  15.4  15.8  16.3  16.8  17.1   0.0   0.0
 1987 268    41  16.0  15.9  15.9  16.0  16.2  16.7  17.0  17.2   0.0   0.0
 1987 269    42  18.2  17.7  17.3  17.1  17.0  17.2  17.4  17.5   0.0   0.0
 1987 270    43  19.5  18.9  18.2  17.7  17.5  17.5  17.5  17.6   0.0   0.0
 1987 271    44  20.1  19.4  18.6  18.0  17.8  17.6  17.6  17.7   0.0   0.0
 1987 272    45  20.8  20.0  19.1  18.4  18.0  17.8  17.7  17.7   0.0   0.0
 1987 273    46  20.1  19.4  18.6  18.0  17.8  17.6  17.6  17.6   0.0   0.0
 1987 274    47  19.1  18.6  17.9  17.5  17.4  17.3  17.4  17.5   0.0   0.0
 1987 275    48  18.4  18.0  17.4  17.1  17.1  17.2  17.3  17.4   0.0   0.0
 1987 276    49  18.2  17.7  17.3  17.0  17.0  17.1  17.3  17.4   0.0   0.0
 1987 277    50  18.1  17.7  17.2  17.0  16.9  17.1  17.2  17.4   0.0   0.0
 1987 278    51  19.2  18.6  17.9  17.5  17.3  17.3  17.4  17.5   0.0   0.0
 1987 279    52  19.9  19.3  18.5  17.9  17.6  17.5  17.5  17.6   0.0   0.0
 1987 280    53  20.6  19.8  18.9  18.2  17.8  17.6  17.6  17.6   0.0   0.0
 1987 281    54  20.9  20.1  19.1  18.3  17.9  17.7  17.6  17.6   0.0   0.0
 1987 282    55  20.6  19.9  18.9  18.2  17.8  17.6  17.6  17.6   0.0   0.0
 1987 283    56  21.5  20.6  19.5  18.7  18.2  17.8  17.7  17.7   0.0   0.0
 1987 284    57  21.6  20.7  19.6  18.7  18.2  17.8  17.7  17.7   0.0   0.0
 1987 285    58  22.0  21.0  19.8  18.9  18.3  17.9  17.8  17.7   0.0   0.0
 1987 286    59  21.6  20.7  19.6  18.7  18.2  17.8  17.7  17.7   0.0   0.0
 1987 287    60  20.8  20.0  19.0  18.3  17.9  17.6  17.6  17.6   0.0   0.0
 1987 288    61  18.5  18.0  17.4  17.1  17.0  17.0  17.2  17.3   0.0   0.0
 1987 289    62  17.6  17.2  16.8  16.6  16.6  16.8  17.0  17.2   0.0   0.0
 1987 290    63  17.3  17.0  16.6  16.4  16.5  16.7  17.0  17.1   0.0   0.0
 1987 291    64  18.0  17.5  17.0  16.8  16.7  16.8  17.1  17.2   0.0   0.0
 1987 292    65  18.7  18.1  17.5  17.1  17.0  17.0  17.2  17.3   0.0   0.0
 1987 293    66  20.2  19.4  18.5  17.9  17.5  17.4  17.4  17.4   0.0   0.0
 1987 294    67  21.4  20.5  19.4  18.5  18.0  17.7  17.6  17.6   0.0   0.0
 1987 295    68  21.9  20.9  19.7  18.8  18.2  17.8  17.6  17.6   0.0   0.0
 1987 296    69  23.3  22.2  20.7  19.5  18.8  18.1  17.9  17.8   0.0   0.0
 1987 297    70  24.3  23.1  21.4  20.0  19.1  18.4  18.0  17.9   0.0   0.0
 1987 298    71  23.9  22.7  21.1  19.8  18.9  18.3  17.9  17.8   0.0   0.0
 1987 299    72  23.7  22.5  20.9  19.7  18.8  18.2  17.9  17.8   0.0   0.0
 1987 300    73  23.2  22.1  20.6  19.4  18.7  18.1  17.8  17.7   0.0   0.0
 1987 301    74  22.1  21.1  19.8  18.8  18.2  17.8  17.6  17.6   0.0   0.0
 1987 302    75  22.3  21.3  20.0  18.9  18.3  17.8  17.6  17.6   0.0   0.0
 1987 303    76  24.0  22.8  21.2  19.8  19.0  18.2  17.9  17.8   0.0   0.0
 1987 304    77  25.2  23.8  22.0  20.4  19.4  18.5  18.1  17.9   0.0   0.0
 1987 305    78  26.2  24.7  22.7  20.9  19.8  18.8  18.2  18.0   0.0   0.0
 1987 306    79  27.0  25.3  23.2  21.3  20.1  19.0  18.4  18.1   0.0   0.0
 1987 307    80  26.7  25.1  23.0  21.2  20.0  18.9  18.3  18.1   0.0   0.0
 1987 308    81  24.9  23.5  21.8  20.3  19.3  18.4  18.0  17.9   0.0   0.0
 1987 309    82  23.1  22.0  20.6  19.4  18.6  18.0  17.7  17.6   0.0   0.0
 1987 310    83  22.3  21.3  20.0  18.9  18.3  17.8  17.6  17.5   0.0   0.0
 1987 311    84  22.0  21.0  19.8  18.8  18.2  17.7  17.5  17.5   0.0   0.0
 1987 312    85  21.6  20.7  19.5  18.6  18.0  17.6  17.5  17.5   0.0   0.0
 1987 313    86  21.5  20.6  19.5  18.5  18.0  17.6  17.4  17.4   0.0   0.0
 1987 314    87  22.0  21.0  19.8  18.8  18.1  17.7  17.5  17.5   0.0   0.0
 1987 315    88  22.9  21.8  20.4  19.2  18.5  17.9  17.6  17.6   0.0   0.0
 1987 316    89  23.2  22.1  20.6  19.4  18.6  17.9  17.7  17.6   0.0   0.0
 1987 317    90  24.0  22.8  21.2  19.8  18.9  18.2  17.8  17.7   0.0   0.0
 1987 318    91  25.4  24.0  22.1  20.5  19.4  18.5  18.0  17.8   0.0   0.0
 1987 319    92  26.0  24.6  22.6  20.9  19.7  18.7  18.1  17.9   0.0   0.0
 1987 320    93  25.7  24.3  22.4  20.7  19.6  18.6  18.1  17.9   0.0   0.0
 1987 321    94  26.1  24.6  22.7  20.9  19.8  18.7  18.1  17.9   0.0   0.0
 1987 322    95  25.7  24.3  22.4  20.7  19.6  18.6  18.1  17.9   0.0   0.0
 1987 323    96  25.0  23.7  21.9  20.4  19.3  18.4  17.9  17.8   0.0   0.0
 1987 324    97  24.0  22.8  21.2  19.8  18.9  18.1  17.8  17.7   0.0   0.0
 1987 325    98  23.4  22.3  20.8  19.5  18.7  18.0  17.7  17.6   0.0   0.0
 1987 326    99  22.2  21.2  20.0  18.9  18.2  17.7  17.5  17.4   0.0   0.0
 1987 327   100  21.1  20.3  19.2  18.3  17.8  17.4  17.3  17.3   0.0   0.0
 1987 328   101  20.9  20.1  19.1  18.3  17.7  17.3  17.2  17.3   0.0   0.0
 1987 329   102  21.6  20.7  19.6  18.6  18.0  17.5  17.4  17.3   0.0   0.0
 1987 330   103  22.0  21.1  19.9  18.8  18.2  17.6  17.4  17.4   0.0   0.0
 1987 331   104  22.5  21.5  20.2  19.1  18.4  17.8  17.5  17.4   0.0   0.0
 1987 332   105  24.2  23.0  21.4  20.0  19.0  18.2  17.8  17.6   0.0   0.0
 1987 333   106  25.9  24.5  22.5  20.8  19.7  18.6  18.0  17.8   0.0   0.0
 1987 334   107  27.6  25.9  23.7  21.7  20.3  19.0  18.3  18.0   0.0   0.0
 1987 335   108  29.9  28.0  25.3  22.9  21.2  19.6  18.7  18.3   0.0   0.0
 1987 336   109  30.9  28.8  25.9  23.4  21.6  19.8  18.8  18.4   0.0   0.0
 1987 337   110  30.0  28.0  25.3  22.9  21.2  19.6  18.6  18.3   0.0   0.0
 1987 338   111  27.6  26.0  23.7  21.7  20.3  19.0  18.3  18.0   0.0   0.0
 1987 339   112  26.0  24.6  22.7  21.0  19.8  18.7  18.1  17.8   0.0   0.0
 1987 340   113  24.3  23.1  21.5  20.1  19.1  18.2  17.8  17.6   0.0   0.0
 1987 341   114  23.0  22.0  20.6  19.4  18.6  17.9  17.6  17.5   0.0   0.0
 1987 342   115  22.9  21.9  20.6  19.4  18.6  17.9  17.5  17.5   0.0   0.0
 1987 343   116  24.0  22.8  21.3  19.9  19.0  18.1  17.7  17.6   0.0   0.0
 1987 344   117  24.8  23.6  21.9  20.4  19.3  18.3  17.8  17.7   0.0   0.0
 1987 345   118  24.7  23.5  21.8  20.3  19.3  18.3  17.8  17.6   0.0   0.0
 1987 346   119  25.0  23.8  22.0  20.5  19.4  18.4  17.9  17.7   0.0   0.0
 1987 347   120  25.5  24.2  22.3  20.7  19.6  18.5  17.9  17.7   0.0   0.0
 1987 348   121  25.5  24.2  22.4  20.7  19.6  18.5  17.9  17.7   0.0   0.0
 1987 349   122  25.8  24.4  22.6  20.9  19.7  18.6  18.0  17.8   0.0   0.0
 1987 350   123  25.4  24.1  22.3  20.7  19.5  18.5  17.9  17.7   0.0   0.0
 1987 351   124  25.3  24.0  22.3  20.7  19.6  18.5  17.9  17.7   0.0   0.0
 1987 352   125  24.8  23.6  22.0  20.5  19.4  18.4  17.9  17.7   0.0   0.0
 1987 353   126  24.8  23.6  22.0  20.5  19.4  18.4  17.8  17.7   0.0   0.0
 1987 354   127  23.7  22.7  21.2  19.9  19.0  18.1  17.7  17.5   0.0   0.0
 1987 355   128  23.7  22.7  21.2  19.9  19.0  18.1  17.7  17.5   0.0   0.0
 1987 356   129  23.7  22.7  21.2  19.9  19.0  18.1  17.7  17.5   0.0   0.0
 1987 357   130  23.9  22.8  21.4  20.0  19.1  18.2  17.7  17.5   0.0   0.0
 1987 358   131  24.3  23.2  21.6  20.2  19.2  18.3  17.8  17.6   0.0   0.0
 1987 359   132  24.1  23.0  21.5  20.2  19.2  18.2  17.7  17.6   0.0   0.0
 1987 360   133  24.4  23.3  21.8  20.3  19.3  18.3  17.8  17.6   0.0   0.0
 1987 361   134  25.5  24.2  22.5  20.9  19.7  18.6  18.0  17.7   0.0   0.0
 1987 362   135  26.2  24.8  23.0  21.3  20.0  18.8  18.1  17.8   0.0   0.0
 1987 363   136  25.5  24.3  22.5  20.9  19.8  18.6  18.0  17.7   0.0   0.0
 1987 364   137  25.9  24.7  22.9  21.2  20.0  18.8  18.1  17.8   0.0   0.0
 1987 365   138  26.3  24.9  23.1  21.4  20.1  18.8  18.1  17.8   0.0   0.0
 1988 001   139  26.4  25.1  23.2  21.4  20.1  18.9  18.1  17.9   0.0   0.0
 1988 002   140  26.3  25.0  23.1  21.4  20.1  18.9  18.1  17.8   0.0   0.0
 1988 003   141  27.8  26.2  24.1  22.1  20.7  19.2  18.4  18.0   0.0   0.0
 1988 004   142  29.3  27.6  25.2  22.9  21.3  19.6  18.6  18.2   0.0   0.0
 1988 005   143  29.3  27.6  25.2  22.9  21.3  19.6  18.6  18.2   0.0   0.0
 1988 006   144  27.8  26.3  24.2  22.2  20.7  19.3  18.4  18.0   0.0   0.0
 1988 007   145  27.6  26.1  24.1  22.1  20.7  19.2  18.4  18.0   0.0   0.0
 1988 008   146  27.1  25.7  23.7  21.9  20.5  19.1  18.3  17.9   0.0   0.0
 1988 009   147  26.5  25.2  23.3  21.5  20.2  18.9  18.2  17.9   0.0   0.0
 1988 010   148  27.5  26.0  24.0  22.1  20.6  19.2  18.3  18.0   0.0   0.0
 1988 011   149  29.6  27.9  25.4  23.1  21.4  19.7  18.7  18.2   0.0   0.0
 1988 012   150  31.1  29.1  26.4  23.9  22.0  20.1  18.9  18.4   0.0   0.0
 1988 013   151  30.4  28.5  26.0  23.6  21.8  19.9  18.8  18.3   0.0   0.0
 1988 014   152  30.0  28.3  25.8  23.5  21.7  19.9  18.8  18.3   0.0   0.0
 1988 015   153  29.3  27.7  25.3  23.1  21.4  19.7  18.7  18.2   0.0   0.0
 1988 016   154  28.0  26.6  24.5  22.4  20.9  19.4  18.5  18.1   0.0   0.0
 1988 017   155  28.4  26.8  24.7  22.6  21.1  19.5  18.5  18.1   0.0   0.0
 1988 018   156  28.6  27.1  24.8  22.7  21.2  19.6  18.6  18.1   0.0   0.0
 1988 019   157  27.5  26.1  24.1  22.2  20.8  19.3  18.4  18.0   0.0   0.0
 1988 020   158  26.3  25.1  23.4  21.7  20.4  19.1  18.3  17.9   0.0   0.0
 1988 021   159  25.7  24.6  22.9  21.4  20.2  18.9  18.2  17.8   0.0   0.0
 1988 022   160  23.8  22.9  21.6  20.4  19.4  18.4  17.8  17.6   0.0   0.0
 1988 023   161  23.6  22.7  21.5  20.3  19.4  18.4  17.8  17.6   0.0   0.0
 1988 024   162  24.7  23.7  22.3  20.9  19.8  18.7  18.0  17.7   0.0   0.0
 1988 025   163  26.0  24.8  23.2  21.5  20.3  19.0  18.2  17.9   0.0   0.0
 1988 026   164  27.2  25.9  24.0  22.2  20.8  19.3  18.4  18.0   0.0   0.0

*DSSAT Cropping System Model Ver. 4.0.2.000               Aug 03, 2016; 15:38:15

*RUN   2        : UYMZ                    
 MODEL          : MZCER040 - Maize           
 EXPERIMENT     : UYMZ0131 MZ    late to create DSS                             
 TREATMENT  1   : UYMZ                    

@YEAR DOY   DAS  TS1D  TS2D  TS3D  TS4D  TS5D  TS6D  TS7D  TS8D  TS9D  TS10
 1988 227     0  15.7  15.8  16.1  16.5  16.8  17.2  17.5  17.6   0.0   0.0
 1988 228     1  16.5  16.5  16.6  16.9  17.1  17.4  17.6  17.7   0.0   0.0
 1988 229     2  16.8  16.8  16.8  17.0  17.2  17.5  17.7  17.7   0.0   0.0
 1988 230     3  17.1  17.0  17.0  17.1  17.3  17.5  17.7  17.7   0.0   0.0
 1988 231     4  18.3  18.0  17.8  17.7  17.7  17.8  17.9  17.8   0.0   0.0
 1988 232     5  18.9  18.5  18.2  18.0  17.9  18.0  17.9  17.9   0.0   0.0
 1988 233     6  18.9  18.5  18.2  18.0  17.9  17.9  17.9  17.9   0.0   0.0
 1988 234     7  19.2  18.8  18.4  18.2  18.1  18.0  18.0  17.9   0.0   0.0
 1988 235     8  19.9  19.4  18.9  18.5  18.3  18.2  18.1  18.0   0.0   0.0
 1988 236     9  21.0  20.3  19.6  19.0  18.7  18.4  18.2  18.1   0.0   0.0
 1988 237    10  20.9  20.3  19.5  19.0  18.7  18.4  18.2  18.1   0.0   0.0
 1988 238    11  20.4  19.8  19.2  18.7  18.4  18.2  18.1  18.0   0.0   0.0
 1988 239    12  19.0  18.6  18.2  17.9  17.9  17.9  17.9  17.8   0.0   0.0
 1988 240    13  17.4  17.2  17.1  17.1  17.2  17.5  17.6  17.7   0.0   0.0
 1988 241    14  14.7  14.9  15.2  15.7  16.2  16.8  17.2  17.3   0.0   0.0
 1988 242    15  14.1  14.4  14.8  15.4  15.9  16.6  17.1  17.3   0.0   0.0
 1988 243    16  14.6  14.7  15.1  15.6  16.1  16.7  17.1  17.3   0.0   0.0
 1988 244    17  16.1  16.1  16.1  16.4  16.7  17.1  17.4  17.5   0.0   0.0
 1988 245    18  16.4  16.3  16.3  16.5  16.8  17.1  17.4  17.5   0.0   0.0
 1988 246    19  16.1  16.1  16.1  16.4  16.6  17.0  17.3  17.5   0.0   0.0
 1988 247    20  14.9  15.0  15.3  15.7  16.1  16.7  17.1  17.3   0.0   0.0
 1988 248    21  14.7  14.8  15.1  15.6  16.0  16.6  17.1  17.3   0.0   0.0
 1988 249    22  15.0  15.1  15.3  15.7  16.1  16.7  17.1  17.3   0.0   0.0
 1988 250    23  15.7  15.7  15.8  16.1  16.4  16.9  17.2  17.4   0.0   0.0
 1988 251    24  17.1  16.9  16.7  16.8  16.9  17.2  17.4  17.5   0.0   0.0
 1988 252    25  18.9  18.5  18.0  17.7  17.6  17.6  17.7  17.7   0.0   0.0
 1988 253    26  18.8  18.4  17.9  17.6  17.5  17.6  17.7  17.7   0.0   0.0
 1988 254    27  17.2  17.0  16.8  16.8  16.9  17.2  17.4  17.5   0.0   0.0
 1988 255    28  17.2  16.9  16.7  16.7  16.9  17.1  17.4  17.5   0.0   0.0
 1988 256    29  17.4  17.2  16.9  16.9  17.0  17.2  17.4  17.5   0.0   0.0
 1988 257    30  17.0  16.8  16.6  16.6  16.8  17.1  17.3  17.4   0.0   0.0
 1988 258    31  16.8  16.6  16.5  16.5  16.7  17.0  17.3  17.4   0.0   0.0
 1988 259    32  16.9  16.6  16.5  16.5  16.7  17.0  17.3  17.4   0.0   0.0
 1988 260    33  15.9  15.8  15.8  16.0  16.3  16.7  17.1  17.3   0.0   0.0
 1988 261    34  14.5  14.6  14.8  15.3  15.7  16.4  16.9  17.1   0.0   0.0
 1988 262    35  13.8  14.0  14.4  14.9  15.5  16.2  16.7  17.0   0.0   0.0
 1988 263    36  14.6  14.7  14.9  15.3  15.8  16.4  16.9  17.1   0.0   0.0
 1988 264    37  16.4  16.2  16.1  16.2  16.4  16.8  17.1  17.3   0.0   0.0
 1988 265    38  17.4  17.1  16.8  16.7  16.8  17.1  17.3  17.4   0.0   0.0
 1988 266    39  18.7  18.2  17.7  17.4  17.3  17.3  17.5  17.5   0.0   0.0
 1988 267    40  19.6  19.0  18.3  17.9  17.7  17.6  17.6  17.6   0.0   0.0
 1988 268    41  18.8  18.3  17.7  17.4  17.3  17.3  17.5  17.5   0.0   0.0
 1988 269    42  17.5  17.2  16.9  16.8  16.8  17.0  17.2  17.4   0.0   0.0
 1988 270    43  16.5  16.3  16.1  16.2  16.4  16.7  17.1  17.2   0.0   0.0
 1988 271    44  15.9  15.8  15.7  15.9  16.1  16.6  16.9  17.2   0.0   0.0
 1988 272    45  14.9  14.9  15.1  15.4  15.7  16.3  16.8  17.0   0.0   0.0
 1988 273    46  15.7  15.6  15.6  15.7  16.0  16.5  16.9  17.1   0.0   0.0
 1988 274    47  16.9  16.6  16.4  16.3  16.5  16.8  17.1  17.2   0.0   0.0
 1988 275    48  19.2  18.6  18.0  17.5  17.4  17.3  17.4  17.5   0.0   0.0
 1988 276    49  20.6  19.8  18.9  18.2  17.9  17.7  17.6  17.7   0.0   0.0
 1988 277    50  20.3  19.6  18.7  18.1  17.8  17.6  17.6  17.6   0.0   0.0
 1988 278    51  20.2  19.5  18.6  18.0  17.7  17.6  17.6  17.6   0.0   0.0
 1988 279    52  19.8  19.1  18.3  17.8  17.5  17.4  17.5  17.5   0.0   0.0
 1988 280    53  19.1  18.6  17.9  17.5  17.3  17.3  17.4  17.4   0.0   0.0
 1988 281    54  19.2  18.6  17.9  17.5  17.3  17.3  17.4  17.4   0.0   0.0
 1988 282    55  20.8  20.0  19.0  18.3  17.9  17.7  17.6  17.6   0.0   0.0
 1988 283    56  20.8  20.0  19.0  18.3  17.9  17.7  17.6  17.6   0.0   0.0
 1988 284    57  21.1  20.3  19.2  18.4  18.0  17.7  17.6  17.6   0.0   0.0
 1988 285    58  21.4  20.5  19.4  18.6  18.1  17.8  17.7  17.7   0.0   0.0
 1988 286    59  21.4  20.6  19.4  18.6  18.1  17.8  17.7  17.7   0.0   0.0
 1988 287    60  20.4  19.7  18.7  18.1  17.7  17.5  17.5  17.5   0.0   0.0
 1988 288    61  20.8  20.0  19.0  18.3  17.8  17.6  17.6  17.6   0.0   0.0
 1988 289    62  20.1  19.4  18.5  17.9  17.5  17.4  17.4  17.5   0.0   0.0
 1988 290    63  19.2  18.6  17.9  17.4  17.2  17.2  17.3  17.4   0.0   0.0
 1988 291    64  18.6  18.1  17.5  17.1  17.0  17.0  17.2  17.3   0.0   0.0
 1988 292    65  19.8  19.1  18.3  17.7  17.4  17.3  17.4  17.4   0.0   0.0
 1988 293    66  19.6  19.0  18.2  17.6  17.3  17.2  17.3  17.4   0.0   0.0
 1988 294    67  20.8  20.0  19.0  18.2  17.8  17.5  17.5  17.5   0.0   0.0
 1988 295    68  22.1  21.1  19.9  18.9  18.3  17.8  17.7  17.6   0.0   0.0
 1988 296    69  23.1  22.0  20.6  19.4  18.7  18.1  17.8  17.8   0.0   0.0
 1988 297    70  23.1  22.0  20.5  19.4  18.6  18.1  17.8  17.7   0.0   0.0
 1988 298    71  24.1  22.8  21.2  19.9  19.0  18.3  18.0  17.8   0.0   0.0
 1988 299    72  23.1  22.0  20.5  19.4  18.6  18.0  17.8  17.7   0.0   0.0
 1988 300    73  21.7  20.7  19.5  18.6  18.1  17.7  17.6  17.5   0.0   0.0
 1988 301    74  21.3  20.4  19.3  18.4  17.9  17.6  17.5  17.5   0.0   0.0
 1988 302    75  21.8  20.8  19.6  18.7  18.1  17.7  17.6  17.5   0.0   0.0
 1988 303    76  22.8  21.7  20.3  19.2  18.5  17.9  17.7  17.7   0.0   0.0
 1988 304    77  23.7  22.5  20.9  19.6  18.8  18.2  17.8  17.7   0.0   0.0
 1988 305    78  24.1  22.9  21.2  19.9  19.0  18.3  17.9  17.8   0.0   0.0
 1988 306    79  23.4  22.3  20.8  19.5  18.7  18.1  17.8  17.7   0.0   0.0
 1988 307    80  22.4  21.3  20.0  19.0  18.3  17.8  17.6  17.6   0.0   0.0
 1988 308    81  21.0  20.2  19.1  18.3  17.8  17.5  17.4  17.4   0.0   0.0
 1988 309    82  21.8  20.8  19.6  18.7  18.1  17.6  17.5  17.5   0.0   0.0
 1988 310    83  23.6  22.4  20.9  19.6  18.8  18.1  17.8  17.7   0.0   0.0
 1988 311    84  25.7  24.2  22.3  20.7  19.6  18.6  18.1  17.9   0.0   0.0
 1988 312    85  27.5  25.8  23.5  21.6  20.3  19.0  18.4  18.1   0.0   0.0
 1988 313    86  28.0  26.2  23.8  21.8  20.4  19.2  18.4  18.2   0.0   0.0
 1988 314    87  28.0  26.2  23.9  21.8  20.4  19.2  18.4  18.2   0.0   0.0
 1988 315    88  27.1  25.4  23.2  21.3  20.1  18.9  18.3  18.0   0.0   0.0
 1988 316    89  26.0  24.5  22.5  20.8  19.7  18.6  18.1  17.9   0.0   0.0
 1988 317    90  24.8  23.5  21.7  20.2  19.2  18.4  17.9  17.8   0.0   0.0
 1988 318    91  25.3  23.9  22.1  20.5  19.4  18.5  18.0  17.8   0.0   0.0
 1988 319    92  25.1  23.7  21.9  20.4  19.3  18.4  18.0  17.8   0.0   0.0
 1988 320    93  25.6  24.1  22.2  20.6  19.5  18.5  18.0  17.9   0.0   0.0
 1988 321    94  27.1  25.5  23.3  21.4  20.1  18.9  18.3  18.0   0.0   0.0
 1988 322    95  28.9  27.0  24.5  22.3  20.8  19.4  18.5  18.2   0.0   0.0
 1988 323    96  28.3  26.5  24.1  22.0  20.5  19.2  18.4  18.1   0.0   0.0
 1988 324    97  28.9  27.1  24.5  22.3  20.8  19.4  18.5  18.2   0.0   0.0
 1988 325    98  29.2  27.3  24.7  22.5  20.9  19.4  18.6  18.2   0.0   0.0
 1988 326    99  26.9  25.3  23.2  21.3  20.0  18.8  18.2  18.0   0.0   0.0
 1988 327   100  24.5  23.2  21.5  20.1  19.1  18.2  17.8  17.7   0.0   0.0
 1988 328   101  24.1  22.9  21.3  19.9  19.0  18.2  17.8  17.6   0.0   0.0
 1988 329   102  23.6  22.4  20.9  19.6  18.7  18.0  17.7  17.6   0.0   0.0
 1988 330   103  23.6  22.5  21.0  19.6  18.8  18.0  17.7  17.6   0.0   0.0
 1988 331   104  24.6  23.4  21.6  20.2  19.2  18.3  17.8  17.7   0.0   0.0
 1988 332   105  24.7  23.4  21.7  20.2  19.2  18.3  17.8  17.7   0.0   0.0
 1988 333   106  24.4  23.2  21.5  20.1  19.1  18.2  17.8  17.7   0.0   0.0
 1988 334   107  24.5  23.3  21.6  20.1  19.1  18.2  17.8  17.7   0.0   0.0
 1988 335   108  24.4  23.2  21.5  20.0  19.1  18.2  17.8  17.6   0.0   0.0
 1988 336   109  24.5  23.3  21.6  20.1  19.1  18.2  17.8  17.6   0.0   0.0
 1988 337   110  25.7  24.3  22.4  20.7  19.6  18.5  18.0  17.8   0.0   0.0
 1988 338   111  27.3  25.7  23.5  21.6  20.2  18.9  18.2  17.9   0.0   0.0
 1988 339   112  28.7  26.9  24.4  22.2  20.7  19.2  18.4  18.1   0.0   0.0
 1988 340   113  30.3  28.3  25.5  23.1  21.3  19.6  18.7  18.3   0.0   0.0
 1988 341   114  31.8  29.6  26.6  23.9  21.9  20.0  18.9  18.4   0.0   0.0
 1988 342   115  31.8  29.6  26.6  23.8  21.9  20.0  18.9  18.4   0.0   0.0
 1988 343   116  30.9  28.8  25.9  23.4  21.6  19.8  18.8  18.3   0.0   0.0
 1988 344   117  29.8  27.9  25.3  22.9  21.2  19.5  18.6  18.2   0.0   0.0
 1988 345   118  28.5  26.7  24.3  22.2  20.7  19.2  18.4  18.1   0.0   0.0
 1988 346   119  28.3  26.6  24.2  22.1  20.6  19.2  18.3  18.0   0.0   0.0
 1988 347   120  27.4  25.8  23.6  21.6  20.2  18.9  18.2  17.9   0.0   0.0
 1988 348   121  27.4  25.8  23.6  21.7  20.3  18.9  18.2  17.9   0.0   0.0
 1988 349   122  27.8  26.2  23.9  21.9  20.5  19.1  18.3  18.0   0.0   0.0
 1988 350   123  27.6  26.1  23.8  21.8  20.4  19.1  18.3  18.0   0.0   0.0
 1988 351   124  27.1  25.6  23.5  21.6  20.2  18.9  18.2  17.9   0.0   0.0
 1988 352   125  28.6  26.9  24.5  22.3  20.8  19.3  18.4  18.1   0.0   0.0
 1988 353   126  29.3  27.5  25.0  22.7  21.1  19.5  18.5  18.1   0.0   0.0
 1988 354   127  29.2  27.4  24.9  22.6  21.0  19.4  18.5  18.1   0.0   0.0
 1988 355   128  28.7  27.0  24.6  22.4  20.8  19.3  18.4  18.1   0.0   0.0
 1988 356   129  28.2  26.6  24.3  22.2  20.6  19.2  18.3  18.0   0.0   0.0
 1988 357   130  27.7  26.1  23.9  21.9  20.4  19.1  18.3  17.9   0.0   0.0
 1988 358   131  28.0  26.4  24.1  22.1  20.6  19.1  18.3  18.0   0.0   0.0
 1988 359   132  29.1  27.3  24.8  22.6  21.0  19.4  18.5  18.1   0.0   0.0
 1988 360   133  30.7  28.7  26.0  23.4  21.6  19.8  18.7  18.3   0.0   0.0
 1988 361   134  32.0  29.9  26.9  24.2  22.1  20.2  18.9  18.4   0.0   0.0
 1988 362   135  32.3  30.2  27.1  24.3  22.3  20.2  19.0  18.5   0.0   0.0
 1988 363   136  31.8  29.7  26.8  24.1  22.1  20.1  18.9  18.4   0.0   0.0
 1988 364   137  30.6  28.6  25.9  23.4  21.6  19.8  18.7  18.3   0.0   0.0
 1988 365   138  29.5  27.7  25.2  22.9  21.2  19.5  18.5  18.1   0.0   0.0
 1988 366   139  29.1  27.4  24.9  22.7  21.1  19.4  18.5  18.1   0.0   0.0
 1989 001   140  30.2  28.3  25.7  23.2  21.5  19.7  18.7  18.2   0.0   0.0
 1989 002   141  31.4  29.4  26.5  23.9  21.9  20.0  18.8  18.4   0.0   0.0
 1989 003   142  32.7  30.5  27.4  24.5  22.4  20.3  19.0  18.5   0.0   0.0
 1989 004   143  34.0  31.6  28.3  25.2  22.9  20.6  19.2  18.6   0.0   0.0
 1989 005   144  34.6  32.1  28.6  25.4  23.1  20.8  19.3  18.7   0.0   0.0
 1989 006   145  34.2  31.8  28.5  25.3  23.0  20.7  19.3  18.7   0.0   0.0
 1989 007   146  33.7  31.3  28.1  25.1  22.8  20.6  19.2  18.6   0.0   0.0
 1989 008   147  33.0  30.8  27.6  24.7  22.6  20.4  19.1  18.5   0.0   0.0
 1989 009   148  32.2  30.1  27.1  24.3  22.3  20.2  19.0  18.4   0.0   0.0
 1989 010   149  31.6  29.5  26.6  24.0  22.0  20.1  18.9  18.4   0.0   0.0
 1989 011   150  31.1  29.2  26.4  23.8  21.9  20.0  18.8  18.3   0.0   0.0
 1989 012   151  31.1  29.1  26.4  23.8  21.9  20.0  18.8  18.3   0.0   0.0
 1989 013   152  31.1  29.1  26.4  23.8  21.9  20.0  18.8  18.3   0.0   0.0
 1989 014   153  31.0  29.0  26.3  23.8  21.9  20.0  18.8  18.3   0.0   0.0
 1989 015   154  30.9  29.0  26.2  23.7  21.8  20.0  18.8  18.3   0.0   0.0
 1989 016   155  30.5  28.7  26.1  23.6  21.8  19.9  18.8  18.3   0.0   0.0
 1989 017   156  30.9  29.0  26.4  23.9  22.0  20.1  18.9  18.4   0.0   0.0
 1989 018   157  30.6  28.8  26.1  23.7  21.9  20.0  18.8  18.3   0.0   0.0

*DSSAT Cropping System Model Ver. 4.0.2.000               Aug 03, 2016; 15:38:15

*RUN   3        : UYMZ                    
 MODEL          : MZCER040 - Maize           
 EXPERIMENT     : UYMZ0131 MZ    late to create DSS                             
 TREATMENT  1   : UYMZ                    

@YEAR DOY   DAS  TS1D  TS2D  TS3D  TS4D  TS5D  TS6D  TS7D  TS8D  TS9D  TS10
 1989 227     0  21.4  20.7  20.0  19.4  19.0  18.7  18.4  18.2   0.0   0.0
 1989 228     1  22.1  21.3  20.4  19.7  19.2  18.8  18.5  18.3   0.0   0.0
 1989 229     2  22.3  21.5  20.5  19.8  19.3  18.8  18.5  18.3   0.0   0.0
 1989 230     3  23.3  22.3  21.2  20.3  19.6  19.1  18.6  18.4   0.0   0.0
 1989 231     4  23.0  22.2  21.0  20.2  19.6  19.0  18.6  18.4   0.0   0.0
 1989 232     5  22.0  21.3  20.3  19.6  19.2  18.7  18.4  18.3   0.0   0.0
 1989 233     6  20.5  19.9  19.3  18.8  18.6  18.3  18.2  18.1   0.0   0.0
 1989 234     7  18.3  18.0  17.8  17.7  17.7  17.8  17.8  17.8   0.0   0.0
 1989 235     8  15.9  15.9  16.1  16.4  16.7  17.1  17.4  17.5   0.0   0.0
 1989 236     9  14.7  14.9  15.2  15.8  16.2  16.8  17.2  17.4   0.0   0.0
 1989 237    10  14.2  14.5  14.9  15.5  16.0  16.7  17.1  17.3   0.0   0.0
 1989 238    11  14.0  14.3  14.8  15.4  15.9  16.6  17.1  17.3   0.0   0.0
 1989 239    12  14.3  14.5  15.0  15.5  16.0  16.7  17.1  17.3   0.0   0.0
 1989 240    13  14.7  14.8  15.2  15.7  16.2  16.8  17.2  17.3   0.0   0.0
 1989 241    14  16.2  16.2  16.2  16.5  16.7  17.1  17.4  17.5   0.0   0.0
 1989 242    15  17.4  17.2  17.0  17.1  17.2  17.4  17.6  17.6   0.0   0.0
 1989 243    16  16.9  16.8  16.7  16.8  17.0  17.3  17.5  17.6   0.0   0.0
 1989 244    17  17.2  17.0  16.9  16.9  17.1  17.3  17.5  17.6   0.0   0.0
 1989 245    18  17.1  16.9  16.8  16.8  17.0  17.3  17.5  17.6   0.0   0.0
 1989 246    19  16.6  16.5  16.5  16.6  16.8  17.1  17.4  17.5   0.0   0.0
 1989 247    20  17.2  17.0  16.8  16.9  17.0  17.3  17.5  17.6   0.0   0.0
 1989 248    21  17.7  17.4  17.1  17.1  17.2  17.4  17.5  17.6   0.0   0.0
 1989 249    22  17.6  17.4  17.1  17.1  17.2  17.4  17.5  17.6   0.0   0.0
 1989 250    23  17.8  17.5  17.2  17.1  17.2  17.4  17.5  17.6   0.0   0.0
 1989 251    24  16.9  16.7  16.6  16.7  16.9  17.1  17.4  17.5   0.0   0.0
 1989 252    25  15.7  15.7  15.8  16.0  16.4  16.8  17.2  17.3   0.0   0.0
 1989 253    26  15.9  15.9  15.9  16.1  16.4  16.9  17.2  17.4   0.0   0.0
 1989 254    27  16.5  16.4  16.3  16.4  16.6  17.0  17.3  17.4   0.0   0.0
 1989 255    28  16.8  16.6  16.5  16.5  16.7  17.0  17.3  17.4   0.0   0.0
 1989 256    29  16.7  16.5  16.4  16.5  16.7  17.0  17.3  17.4   0.0   0.0
 1989 257    30  16.3  16.1  16.1  16.2  16.5  16.9  17.2  17.4   0.0   0.0
 1989 258    31  15.7  15.6  15.7  15.9  16.3  16.7  17.1  17.3   0.0   0.0
 1989 259    32  15.4  15.4  15.5  15.8  16.1  16.6  17.0  17.2   0.0   0.0
 1989 260    33  15.6  15.5  15.6  15.9  16.2  16.7  17.1  17.2   0.0   0.0
 1989 261    34  16.5  16.3  16.2  16.3  16.5  16.9  17.2  17.3   0.0   0.0
 1989 262    35  18.0  17.6  17.3  17.1  17.1  17.2  17.4  17.5   0.0   0.0
 1989 263    36  19.8  19.2  18.5  18.0  17.8  17.7  17.7  17.7   0.0   0.0
 1989 264    37  21.5  20.7  19.6  18.9  18.4  18.1  18.0  17.9   0.0   0.0
 1989 265    38  21.5  20.7  19.6  18.9  18.4  18.1  17.9  17.9   0.0   0.0
 1989 266    39  20.6  19.9  19.0  18.4  18.1  17.9  17.8  17.8   0.0   0.0
 1989 267    40  18.3  17.9  17.4  17.2  17.1  17.2  17.4  17.5   0.0   0.0
 1989 268    41  15.9  15.8  15.8  15.9  16.2  16.6  17.0  17.2   0.0   0.0
 1989 269    42  13.7  13.9  14.3  14.8  15.3  16.0  16.6  16.9   0.0   0.0
 1989 270    43  12.7  13.0  13.6  14.2  14.9  15.8  16.5  16.8   0.0   0.0
 1989 271    44  12.6  12.9  13.4  14.2  14.8  15.7  16.4  16.8   0.0   0.0
 1989 272    45  13.7  13.9  14.2  14.8  15.3  16.0  16.6  16.9   0.0   0.0
 1989 273    46  15.5  15.4  15.4  15.6  15.9  16.4  16.9  17.1   0.0   0.0
 1989 274    47  17.5  17.1  16.8  16.7  16.7  16.9  17.2  17.3   0.0   0.0
 1989 275    48  19.4  18.8  18.1  17.7  17.5  17.4  17.5  17.5   0.0   0.0
 1989 276    49  20.6  19.9  18.9  18.3  17.9  17.7  17.7  17.7   0.0   0.0
 1989 277    50  21.3  20.5  19.4  18.6  18.2  17.9  17.8  17.7   0.0   0.0
 1989 278    51  21.9  21.0  19.8  18.9  18.4  18.0  17.8  17.8   0.0   0.0
 1989 279    52  21.8  20.9  19.7  18.8  18.3  18.0  17.8  17.8   0.0   0.0
 1989 280    53  21.5  20.6  19.5  18.7  18.2  17.9  17.7  17.7   0.0   0.0
 1989 281    54  21.1  20.3  19.3  18.5  18.0  17.8  17.7  17.7   0.0   0.0
 1989 282    55  20.9  20.1  19.1  18.4  17.9  17.7  17.6  17.6   0.0   0.0
 1989 283    56  20.3  19.6  18.7  18.0  17.7  17.5  17.5  17.6   0.0   0.0
 1989 284    57  19.6  19.0  18.2  17.7  17.4  17.3  17.4  17.5   0.0   0.0
 1989 285    58  17.9  17.5  17.0  16.8  16.7  16.9  17.1  17.3   0.0   0.0
 1989 286    59  17.1  16.8  16.5  16.4  16.4  16.7  17.0  17.2   0.0   0.0
 1989 287    60  17.1  16.8  16.4  16.3  16.4  16.7  17.0  17.1   0.0   0.0
 1989 288    61  17.4  17.0  16.6  16.5  16.5  16.7  17.0  17.2   0.0   0.0
 1989 289    62  17.7  17.3  16.9  16.7  16.6  16.8  17.0  17.2   0.0   0.0
 1989 290    63  18.9  18.3  17.7  17.3  17.1  17.1  17.2  17.3   0.0   0.0
 1989 291    64  20.0  19.3  18.4  17.8  17.5  17.3  17.4  17.4   0.0   0.0
 1989 292    65  20.9  20.1  19.0  18.3  17.8  17.6  17.5  17.5   0.0   0.0
 1989 293    66  21.8  20.8  19.6  18.7  18.2  17.8  17.6  17.6   0.0   0.0
 1989 294    67  22.5  21.5  20.1  19.1  18.4  18.0  17.8  17.7   0.0   0.0
 1989 295    68  23.9  22.7  21.1  19.8  19.0  18.3  18.0  17.9   0.0   0.0
 1989 296    69  25.3  23.9  22.1  20.5  19.5  18.6  18.2  18.0   0.0   0.0
 1989 297    70  24.9  23.5  21.8  20.3  19.3  18.5  18.1  17.9   0.0   0.0
 1989 298    71  23.6  22.4  20.9  19.6  18.8  18.2  17.9  17.8   0.0   0.0
 1989 299    72  22.4  21.4  20.1  19.0  18.4  17.9  17.7  17.6   0.0   0.0
 1989 300    73  21.3  20.4  19.3  18.5  18.0  17.6  17.5  17.5   0.0   0.0
 1989 301    74  20.1  19.4  18.5  17.8  17.5  17.3  17.3  17.4   0.0   0.0
 1989 302    75  21.3  20.4  19.3  18.4  17.9  17.6  17.5  17.5   0.0   0.0
 1989 303    76  21.4  20.5  19.4  18.5  18.0  17.6  17.5  17.5   0.0   0.0
 1989 304    77  21.8  20.8  19.6  18.7  18.1  17.7  17.5  17.5   0.0   0.0
 1989 305    78  21.8  20.9  19.7  18.7  18.1  17.7  17.5  17.5   0.0   0.0
 1989 306    79  21.1  20.3  19.2  18.3  17.8  17.5  17.4  17.4   0.0   0.0
 1989 307    80  19.5  18.9  18.1  17.5  17.2  17.1  17.2  17.3   0.0   0.0
 1989 308    81  19.8  19.2  18.3  17.7  17.3  17.2  17.2  17.3   0.0   0.0
 1989 309    82  20.1  19.4  18.5  17.8  17.4  17.2  17.2  17.3   0.0   0.0
 1989 310    83  20.9  20.1  19.0  18.2  17.7  17.4  17.4  17.4   0.0   0.0
 1989 311    84  21.8  20.8  19.6  18.7  18.1  17.6  17.5  17.5   0.0   0.0
 1989 312    85  23.1  22.0  20.6  19.4  18.6  18.0  17.7  17.6   0.0   0.0
 1989 313    86  24.1  22.8  21.2  19.8  18.9  18.2  17.8  17.7   0.0   0.0
 1989 314    87  25.4  24.0  22.1  20.5  19.5  18.5  18.0  17.9   0.0   0.0
 1989 315    88  25.1  23.7  21.9  20.3  19.3  18.4  18.0  17.8   0.0   0.0
 1989 316    89  24.1  22.9  21.2  19.9  19.0  18.2  17.8  17.7   0.0   0.0
 1989 317    90  22.5  21.5  20.2  19.1  18.4  17.8  17.6  17.5   0.0   0.0
 1989 318    91  21.7  20.8  19.6  18.6  18.0  17.6  17.4  17.4   0.0   0.0
 1989 319    92  21.4  20.5  19.4  18.5  17.9  17.5  17.4  17.4   0.0   0.0
 1989 320    93  21.5  20.7  19.5  18.6  18.0  17.5  17.4  17.4   0.0   0.0
 1989 321    94  22.8  21.7  20.3  19.2  18.4  17.8  17.6  17.5   0.0   0.0
 1989 322    95  24.9  23.6  21.8  20.3  19.3  18.4  17.9  17.8   0.0   0.0
 1989 323    96  26.2  24.7  22.7  20.9  19.8  18.7  18.1  17.9   0.0   0.0
 1989 324    97  26.2  24.7  22.7  20.9  19.7  18.7  18.1  17.9   0.0   0.0
 1989 325    98  27.2  25.6  23.4  21.5  20.1  18.9  18.3  18.0   0.0   0.0
 1989 326    99  28.6  26.8  24.3  22.2  20.7  19.3  18.5  18.2   0.0   0.0
 1989 327   100  28.8  26.9  24.5  22.3  20.7  19.3  18.5  18.2   0.0   0.0
 1989 328   101  27.7  26.0  23.7  21.7  20.3  19.0  18.3  18.0   0.0   0.0
 1989 329   102  27.2  25.6  23.4  21.5  20.1  18.9  18.2  18.0   0.0   0.0
 1989 330   103  26.6  25.0  23.0  21.1  19.9  18.8  18.1  17.9   0.0   0.0
 1989 331   104  25.1  23.7  21.9  20.4  19.3  18.4  17.9  17.7   0.0   0.0
 1989 332   105  24.2  23.0  21.3  19.9  19.0  18.1  17.7  17.6   0.0   0.0
 1989 333   106  24.5  23.2  21.6  20.1  19.1  18.2  17.8  17.7   0.0   0.0
 1989 334   107  25.3  24.0  22.1  20.5  19.4  18.4  17.9  17.7   0.0   0.0
 1989 335   108  26.3  24.8  22.8  21.0  19.8  18.7  18.1  17.8   0.0   0.0
 1989 336   109  27.4  25.7  23.5  21.5  20.2  18.9  18.2  18.0   0.0   0.0
 1989 337   110  27.4  25.8  23.5  21.6  20.2  18.9  18.2  18.0   0.0   0.0
 1989 338   111  27.4  25.8  23.6  21.6  20.2  18.9  18.2  18.0   0.0   0.0
 1989 339   112  27.6  26.0  23.7  21.7  20.3  19.0  18.3  18.0   0.0   0.0
 1989 340   113  27.2  25.6  23.5  21.5  20.2  18.9  18.2  17.9   0.0   0.0
 1989 341   114  27.2  25.6  23.4  21.5  20.1  18.9  18.2  17.9   0.0   0.0
 1989 342   115  28.0  26.3  24.0  21.9  20.5  19.1  18.3  18.0   0.0   0.0
 1989 343   116  28.7  26.9  24.5  22.3  20.7  19.3  18.4  18.1   0.0   0.0
 1989 344   117  29.1  27.2  24.7  22.5  20.9  19.3  18.5  18.1   0.0   0.0
 1989 345   118  29.9  28.0  25.3  22.9  21.2  19.5  18.6  18.2   0.0   0.0
 1989 346   119  30.7  28.7  25.9  23.4  21.5  19.8  18.7  18.3   0.0   0.0
 1989 347   120  31.1  29.0  26.1  23.5  21.7  19.9  18.8  18.3   0.0   0.0
 1989 348   121  31.3  29.2  26.3  23.6  21.8  19.9  18.8  18.4   0.0   0.0
 1989 349   122  31.2  29.1  26.2  23.6  21.7  19.9  18.8  18.3   0.0   0.0
 1989 350   123  31.2  29.1  26.2  23.6  21.7  19.9  18.8  18.3   0.0   0.0
 1989 351   124  29.4  27.5  25.0  22.7  21.0  19.4  18.5  18.1   0.0   0.0
 1989 352   125  28.0  26.4  24.1  22.1  20.6  19.2  18.3  18.0   0.0   0.0
 1989 353   126  27.3  25.8  23.7  21.7  20.3  19.0  18.2  17.9   0.0   0.0
 1989 354   127  26.4  25.0  23.0  21.3  20.0  18.8  18.1  17.8   0.0   0.0
 1989 355   128  25.1  23.9  22.2  20.6  19.5  18.4  17.9  17.7   0.0   0.0
 1989 356   129  26.0  24.6  22.8  21.1  19.8  18.7  18.0  17.8   0.0   0.0
 1989 357   130  26.8  25.4  23.3  21.5  20.1  18.9  18.1  17.9   0.0   0.0
 1989 358   131  27.6  26.0  23.9  21.9  20.4  19.1  18.3  17.9   0.0   0.0
 1989 359   132  27.8  26.2  24.0  22.0  20.5  19.1  18.3  18.0   0.0   0.0
 1989 360   133  28.5  26.8  24.5  22.3  20.8  19.3  18.4  18.0   0.0   0.0
 1989 361   134  28.5  26.8  24.5  22.3  20.8  19.3  18.4  18.0   0.0   0.0
 1989 362   135  28.6  26.9  24.6  22.4  20.9  19.3  18.4  18.0   0.0   0.0
 1989 363   136  28.0  26.4  24.2  22.1  20.6  19.2  18.3  18.0   0.0   0.0
 1989 364   137  28.0  26.4  24.2  22.1  20.6  19.2  18.3  18.0   0.0   0.0
 1989 365   138  27.9  26.3  24.2  22.1  20.6  19.2  18.3  18.0   0.0   0.0
 1990 001   139  28.0  26.4  24.2  22.1  20.6  19.2  18.3  18.0   0.0   0.0
 1990 002   140  27.9  26.3  24.1  22.1  20.6  19.2  18.3  18.0   0.0   0.0
 1990 003   141  28.3  26.6  24.4  22.3  20.7  19.2  18.4  18.0   0.0   0.0
 1990 004   142  29.3  27.6  25.1  22.8  21.2  19.5  18.5  18.1   0.0   0.0
 1990 005   143  30.2  28.3  25.7  23.3  21.5  19.7  18.7  18.2   0.0   0.0
 1990 006   144  31.1  29.1  26.3  23.8  21.9  20.0  18.8  18.3   0.0   0.0
 1990 007   145  32.0  29.9  26.9  24.2  22.2  20.2  19.0  18.4   0.0   0.0
 1990 008   146  32.0  29.9  27.0  24.2  22.2  20.2  19.0  18.4   0.0   0.0
 1990 009   147  31.2  29.2  26.4  23.8  21.9  20.0  18.8  18.3   0.0   0.0
 1990 010   148  30.2  28.4  25.8  23.3  21.5  19.8  18.7  18.2   0.0   0.0
 1990 011   149  29.6  27.9  25.4  23.1  21.3  19.6  18.6  18.2   0.0   0.0
 1990 012   150  29.6  27.9  25.4  23.1  21.4  19.7  18.6  18.2   0.0   0.0
 1990 013   151  29.5  27.8  25.3  23.0  21.3  19.6  18.6  18.2   0.0   0.0
 1990 014   152  30.4  28.5  25.9  23.5  21.7  19.8  18.7  18.3   0.0   0.0
 1990 015   153  31.1  29.2  26.4  23.9  22.0  20.0  18.8  18.3   0.0   0.0
 1990 016   154  31.5  29.5  26.7  24.1  22.1  20.1  18.9  18.4   0.0   0.0
 1990 017   155  29.3  27.6  25.2  23.0  21.3  19.6  18.6  18.1   0.0   0.0
 1990 018   156  28.3  26.8  24.6  22.5  21.0  19.4  18.5  18.1   0.0   0.0
 1990 019   157  27.3  25.9  23.9  22.0  20.6  19.2  18.3  17.9   0.0   0.0
 1990 020   158  26.8  25.5  23.6  21.8  20.4  19.0  18.2  17.9   0.0   0.0

*DSSAT Cropping System Model Ver. 4.0.2.000               Aug 03, 2016; 15:38:15

*RUN   4        : UYMZ                    
 MODEL          : MZCER040 - Maize           
 EXPERIMENT     : UYMZ0131 MZ    late to create DSS                             
 TREATMENT  1   : UYMZ                    

@YEAR DOY   DAS  TS1D  TS2D  TS3D  TS4D  TS5D  TS6D  TS7D  TS8D  TS9D  TS10
 1990 227     0  20.6  20.0  19.4  19.0  18.7  18.5  18.3  18.1   0.0   0.0
 1990 228     1  19.6  19.1  18.7  18.4  18.3  18.2  18.1  18.0   0.0   0.0
 1990 229     2  18.9  18.6  18.3  18.1  18.0  18.0  18.0  17.9   0.0   0.0
 1990 230     3  18.2  18.0  17.8  17.7  17.7  17.8  17.9  17.8   0.0   0.0
 1990 231     4  17.5  17.4  17.3  17.3  17.4  17.6  17.7  17.8   0.0   0.0
 1990 232     5  18.4  18.1  17.8  17.7  17.7  17.8  17.9  17.8   0.0   0.0
 1990 233     6  18.7  18.3  18.0  17.9  17.8  17.9  17.9  17.9   0.0   0.0
 1990 234     7  18.2  17.9  17.7  17.6  17.6  17.7  17.8  17.8   0.0   0.0
 1990 235     8  17.4  17.2  17.1  17.2  17.3  17.5  17.7  17.7   0.0   0.0
 1990 236     9  16.6  16.5  16.6  16.8  17.0  17.3  17.5  17.6   0.0   0.0
 1990 237    10  16.9  16.8  16.8  16.9  17.1  17.4  17.6  17.6   0.0   0.0
 1990 238    11  17.8  17.6  17.4  17.3  17.4  17.6  17.7  17.7   0.0   0.0
 1990 239    12  17.5  17.3  17.1  17.2  17.3  17.5  17.6  17.7   0.0   0.0
 1990 240    13  16.6  16.5  16.5  16.7  16.9  17.2  17.5  17.6   0.0   0.0
 1990 241    14  16.0  16.0  16.1  16.4  16.7  17.1  17.4  17.5   0.0   0.0
 1990 242    15  15.5  15.6  15.7  16.1  16.5  16.9  17.3  17.4   0.0   0.0
 1990 243    16  13.1  13.5  14.1  14.8  15.5  16.3  16.9  17.1   0.0   0.0
 1990 244    17  11.9  12.4  13.2  14.2  15.0  16.0  16.7  17.0   0.0   0.0
 1990 245    18  11.9  12.4  13.2  14.2  15.0  16.0  16.7  17.0   0.0   0.0
 1990 246    19  12.4  12.8  13.6  14.4  15.2  16.1  16.7  17.0   0.0   0.0
 1990 247    20  11.5  12.0  12.9  13.9  14.8  15.8  16.6  16.9   0.0   0.0
 1990 248    21  12.6  13.0  13.7  14.5  15.2  16.1  16.7  17.0   0.0   0.0
 1990 249    22  13.9  14.1  14.6  15.2  15.7  16.4  16.9  17.2   0.0   0.0
 1990 250    23  15.0  15.0  15.3  15.7  16.1  16.7  17.1  17.3   0.0   0.0
 1990 251    24  14.7  14.8  15.1  15.5  16.0  16.6  17.0  17.2   0.0   0.0
 1990 252    25  16.1  16.0  16.0  16.2  16.5  16.9  17.2  17.4   0.0   0.0
 1990 253    26  17.6  17.3  17.0  17.0  17.1  17.3  17.5  17.5   0.0   0.0
 1990 254    27  18.6  18.2  17.7  17.5  17.5  17.5  17.6  17.7   0.0   0.0
 1990 255    28  18.3  17.9  17.5  17.3  17.3  17.4  17.5  17.6   0.0   0.0
 1990 256    29  17.8  17.5  17.2  17.1  17.1  17.3  17.5  17.5   0.0   0.0
 1990 257    30  16.2  16.1  16.1  16.2  16.5  16.9  17.2  17.3   0.0   0.0
 1990 258    31  14.7  14.8  15.0  15.4  15.9  16.5  16.9  17.2   0.0   0.0
 1990 259    32  14.5  14.6  14.9  15.3  15.8  16.4  16.9  17.1   0.0   0.0
 1990 260    33  15.1  15.1  15.3  15.6  16.0  16.5  17.0  17.2   0.0   0.0
 1990 261    34  16.1  16.0  16.0  16.1  16.4  16.8  17.1  17.3   0.0   0.0
 1990 262    35  16.8  16.6  16.5  16.5  16.6  16.9  17.2  17.4   0.0   0.0
 1990 263    36  16.9  16.6  16.5  16.5  16.6  16.9  17.2  17.4   0.0   0.0
 1990 264    37  16.8  16.5  16.4  16.4  16.6  16.9  17.2  17.3   0.0   0.0
 1990 265    38  17.0  16.7  16.5  16.5  16.6  16.9  17.2  17.4   0.0   0.0
 1990 266    39  16.4  16.2  16.1  16.2  16.4  16.8  17.1  17.3   0.0   0.0
 1990 267    40  15.9  15.8  15.8  15.9  16.2  16.6  17.0  17.2   0.0   0.0
 1990 268    41  15.6  15.5  15.6  15.8  16.1  16.5  17.0  17.2   0.0   0.0
 1990 269    42  15.6  15.5  15.5  15.7  16.0  16.5  16.9  17.2   0.0   0.0
 1990 270    43  16.4  16.2  16.1  16.2  16.4  16.7  17.1  17.2   0.0   0.0
 1990 271    44  17.7  17.3  16.9  16.8  16.8  17.0  17.2  17.4   0.0   0.0
 1990 272    45  18.9  18.4  17.8  17.4  17.3  17.3  17.4  17.5   0.0   0.0
 1990 273    46  20.5  19.7  18.8  18.2  17.9  17.7  17.7  17.7   0.0   0.0
 1990 274    47  21.9  20.9  19.8  18.9  18.4  18.0  17.9  17.8   0.0   0.0
 1990 275    48  22.1  21.1  20.0  19.0  18.5  18.1  17.9  17.8   0.0   0.0
 1990 276    49  23.2  22.1  20.7  19.6  18.9  18.4  18.1  18.0   0.0   0.0
 1990 277    50  24.7  23.4  21.7  20.3  19.5  18.7  18.3  18.1   0.0   0.0
 1990 278    51  24.0  22.8  21.2  20.0  19.2  18.5  18.2  18.0   0.0   0.0
 1990 279    52  23.0  21.9  20.6  19.5  18.8  18.3  18.0  17.9   0.0   0.0
 1990 280    53  22.5  21.5  20.2  19.2  18.6  18.1  17.9  17.8   0.0   0.0
 1990 281    54  21.4  20.5  19.4  18.6  18.1  17.8  17.7  17.7   0.0   0.0
 1990 282    55  20.0  19.3  18.5  17.9  17.6  17.5  17.5  17.5   0.0   0.0
 1990 283    56  20.3  19.6  18.7  18.1  17.7  17.5  17.5  17.6   0.0   0.0
 1990 284    57  20.2  19.4  18.6  18.0  17.6  17.5  17.5  17.5   0.0   0.0
 1990 285    58  19.9  19.2  18.4  17.8  17.5  17.4  17.4  17.5   0.0   0.0
 1990 286    59  20.1  19.4  18.6  17.9  17.6  17.4  17.5  17.5   0.0   0.0
 1990 287    60  20.3  19.5  18.6  18.0  17.6  17.5  17.5  17.5   0.0   0.0
 1990 288    61  20.0  19.3  18.4  17.8  17.5  17.4  17.4  17.5   0.0   0.0
 1990 289    62  19.8  19.2  18.3  17.8  17.5  17.3  17.4  17.4   0.0   0.0
 1990 290    63  19.9  19.2  18.4  17.8  17.5  17.3  17.4  17.4   0.0   0.0
 1990 291    64  20.4  19.7  18.7  18.0  17.7  17.5  17.5  17.5   0.0   0.0
 1990 292    65  20.6  19.8  18.9  18.1  17.7  17.5  17.5  17.5   0.0   0.0
 1990 293    66  21.2  20.3  19.2  18.4  17.9  17.6  17.6  17.6   0.0   0.0
 1990 294    67  21.8  20.9  19.7  18.7  18.2  17.8  17.6  17.6   0.0   0.0
 1990 295    68  22.7  21.7  20.3  19.2  18.5  18.0  17.8  17.7   0.0   0.0
 1990 296    69  22.9  21.8  20.4  19.3  18.6  18.0  17.8  17.7   0.0   0.0
 1990 297    70  22.7  21.6  20.3  19.2  18.5  18.0  17.8  17.7   0.0   0.0
 1990 298    71  22.7  21.6  20.2  19.1  18.5  18.0  17.7  17.7   0.0   0.0
 1990 299    72  23.2  22.1  20.6  19.4  18.7  18.1  17.8  17.7   0.0   0.0
 1990 300    73  23.8  22.6  21.0  19.7  18.9  18.2  17.9  17.8   0.0   0.0
 1990 301    74  23.5  22.3  20.8  19.6  18.8  18.1  17.8  17.8   0.0   0.0
 1990 302    75  24.3  23.0  21.4  20.0  19.1  18.3  18.0  17.8   0.0   0.0
 1990 303    76  25.4  24.0  22.1  20.5  19.5  18.6  18.1  18.0   0.0   0.0
 1990 304    77  24.8  23.5  21.7  20.3  19.3  18.5  18.0  17.9   0.0   0.0
 1990 305    78  24.2  22.9  21.3  19.9  19.0  18.3  17.9  17.8   0.0   0.0
 1990 306    79  24.7  23.3  21.6  20.2  19.2  18.4  18.0  17.8   0.0   0.0
 1990 307    80  24.8  23.5  21.7  20.2  19.3  18.4  18.0  17.9   0.0   0.0
 1990 308    81  23.6  22.4  20.9  19.6  18.8  18.1  17.8  17.7   0.0   0.0
 1990 309    82  22.7  21.7  20.3  19.2  18.5  17.9  17.7  17.6   0.0   0.0
 1990 310    83  22.0  21.0  19.8  18.8  18.2  17.7  17.5  17.5   0.0   0.0
 1990 311    84  21.4  20.5  19.4  18.5  17.9  17.5  17.4  17.4   0.0   0.0
 1990 312    85  19.6  19.0  18.2  17.6  17.2  17.1  17.1  17.2   0.0   0.0
 1990 313    86  19.5  18.9  18.1  17.5  17.2  17.0  17.1  17.2   0.0   0.0
 1990 314    87  20.4  19.6  18.7  18.0  17.5  17.3  17.2  17.3   0.0   0.0
 1990 315    88  21.6  20.7  19.5  18.6  18.0  17.6  17.4  17.4   0.0   0.0
 1990 316    89  21.7  20.8  19.6  18.6  18.0  17.6  17.4  17.4   0.0   0.0
 1990 317    90  24.7  23.4  21.7  20.2  19.2  18.3  17.9  17.8   0.0   0.0
 1990 318    91  26.7  25.1  23.0  21.2  19.9  18.8  18.2  18.0   0.0   0.0
 1990 319    92  26.5  25.0  22.9  21.1  19.9  18.8  18.2  18.0   0.0   0.0
 1990 320    93  25.6  24.2  22.3  20.6  19.5  18.5  18.0  17.9   0.0   0.0
 1990 321    94  26.0  24.6  22.6  20.9  19.7  18.7  18.1  17.9   0.0   0.0
 1990 322    95  25.2  23.9  22.0  20.5  19.4  18.5  18.0  17.8   0.0   0.0
 1990 323    96  25.5  24.1  22.2  20.6  19.5  18.5  18.0  17.8   0.0   0.0
 1990 324    97  26.3  24.8  22.8  21.0  19.8  18.7  18.1  17.9   0.0   0.0
 1990 325    98  27.8  26.1  23.8  21.8  20.4  19.1  18.4  18.1   0.0   0.0
 1990 326    99  28.2  26.5  24.1  22.0  20.5  19.2  18.4  18.1   0.0   0.0
 1990 327   100  28.0  26.3  24.0  21.9  20.5  19.1  18.4  18.1   0.0   0.0
 1990 328   101  27.2  25.6  23.4  21.5  20.1  18.9  18.2  18.0   0.0   0.0
 1990 329   102  27.3  25.7  23.5  21.5  20.2  18.9  18.3  18.0   0.0   0.0
 1990 330   103  26.6  25.1  23.0  21.2  19.9  18.8  18.1  17.9   0.0   0.0
 1990 331   104  25.4  24.0  22.2  20.6  19.5  18.5  18.0  17.8   0.0   0.0
 1990 332   105  24.7  23.4  21.7  20.2  19.2  18.3  17.8  17.7   0.0   0.0
 1990 333   106  24.4  23.2  21.5  20.1  19.1  18.2  17.8  17.6   0.0   0.0
 1990 334   107  23.8  22.7  21.1  19.8  18.9  18.1  17.7  17.6   0.0   0.0
 1990 335   108  24.0  22.9  21.3  19.9  18.9  18.1  17.7  17.6   0.0   0.0
 1990 336   109  24.1  22.9  21.3  19.9  19.0  18.1  17.7  17.6   0.0   0.0
 1990 337   110  23.8  22.7  21.1  19.8  18.9  18.1  17.7  17.6   0.0   0.0
 1990 338   111  23.9  22.7  21.2  19.8  18.9  18.1  17.7  17.6   0.0   0.0
 1990 339   112  24.9  23.6  21.9  20.3  19.3  18.3  17.8  17.7   0.0   0.0
 1990 340   113  24.8  23.5  21.8  20.3  19.2  18.3  17.8  17.7   0.0   0.0
 1990 341   114  25.4  24.1  22.2  20.6  19.5  18.5  17.9  17.7   0.0   0.0
 1990 342   115  25.8  24.5  22.6  20.9  19.7  18.6  18.0  17.8   0.0   0.0
 1990 343   116  24.3  23.1  21.5  20.1  19.1  18.2  17.8  17.6   0.0   0.0
 1990 344   117  22.1  21.2  20.0  19.0  18.3  17.7  17.4  17.4   0.0   0.0
 1990 345   118  21.9  21.1  19.9  18.9  18.2  17.6  17.4  17.3   0.0   0.0
 1990 346   119  21.1  20.3  19.3  18.5  17.9  17.4  17.2  17.2   0.0   0.0
 1990 347   120  20.7  20.0  19.1  18.3  17.7  17.3  17.2  17.2   0.0   0.0
 1990 348   121  21.2  20.4  19.4  18.5  17.9  17.4  17.3  17.2   0.0   0.0
 1990 349   122  22.7  21.8  20.5  19.3  18.5  17.8  17.5  17.4   0.0   0.0
 1990 350   123  23.7  22.7  21.2  19.9  18.9  18.1  17.7  17.5   0.0   0.0
 1990 351   124  25.2  24.0  22.2  20.6  19.5  18.5  17.9  17.7   0.0   0.0
 1990 352   125  25.8  24.4  22.6  20.9  19.7  18.6  18.0  17.8   0.0   0.0
 1990 353   126  26.5  25.1  23.1  21.4  20.1  18.8  18.1  17.9   0.0   0.0
 1990 354   127  26.5  25.1  23.2  21.4  20.1  18.8  18.1  17.9   0.0   0.0
 1990 355   128  26.4  25.0  23.1  21.3  20.0  18.8  18.1  17.8   0.0   0.0
 1990 356   129  25.8  24.5  22.6  21.0  19.8  18.6  18.0  17.8   0.0   0.0
 1990 357   130  26.0  24.7  22.9  21.2  19.9  18.7  18.1  17.8   0.0   0.0
 1990 358   131  25.6  24.3  22.6  20.9  19.8  18.6  18.0  17.8   0.0   0.0
 1990 359   132  25.3  24.1  22.4  20.8  19.7  18.6  17.9  17.7   0.0   0.0
 1990 360   133  25.6  24.4  22.6  21.0  19.8  18.6  18.0  17.8   0.0   0.0
 1990 361   134  26.9  25.5  23.5  21.6  20.3  19.0  18.2  17.9   0.0   0.0
 1990 362   135  25.9  24.6  22.8  21.1  19.9  18.7  18.0  17.8   0.0   0.0
 1990 363   136  25.8  24.6  22.8  21.1  19.9  18.7  18.0  17.8   0.0   0.0
 1990 364   137  26.1  24.8  23.0  21.3  20.0  18.8  18.1  17.8   0.0   0.0
 1990 365   138  25.8  24.6  22.8  21.1  19.9  18.7  18.0  17.8   0.0   0.0
 1991 001   139  25.7  24.4  22.6  21.0  19.8  18.6  18.0  17.7   0.0   0.0
 1991 002   140  27.0  25.5  23.5  21.7  20.3  19.0  18.2  17.9   0.0   0.0
 1991 003   141  28.1  26.5  24.3  22.2  20.7  19.2  18.4  18.0   0.0   0.0
 1991 004   142  28.4  26.8  24.5  22.4  20.9  19.3  18.4  18.1   0.0   0.0
 1991 005   143  28.2  26.6  24.4  22.3  20.8  19.3  18.4  18.0   0.0   0.0
 1991 006   144  28.1  26.5  24.3  22.3  20.8  19.3  18.4  18.0   0.0   0.0
 1991 007   145  28.7  27.0  24.7  22.6  21.0  19.4  18.5  18.1   0.0   0.0
 1991 008   146  29.7  27.9  25.4  23.1  21.4  19.7  18.6  18.2   0.0   0.0
 1991 009   147  29.0  27.3  24.9  22.8  21.1  19.5  18.5  18.1   0.0   0.0
 1991 010   148  29.3  27.6  25.2  22.9  21.3  19.6  18.6  18.2   0.0   0.0
 1991 011   149  28.8  27.2  24.9  22.7  21.1  19.5  18.5  18.1   0.0   0.0
 1991 012   150  27.8  26.3  24.2  22.2  20.7  19.2  18.3  18.0   0.0   0.0
 1991 013   151  26.2  24.9  23.1  21.4  20.1  18.8  18.1  17.8   0.0   0.0
 1991 014   152  26.7  25.4  23.5  21.7  20.3  19.0  18.2  17.9   0.0   0.0
 1991 015   153  27.0  25.6  23.6  21.8  20.4  19.0  18.2  17.9   0.0   0.0
 1991 016   154  26.0  24.8  23.0  21.3  20.1  18.8  18.1  17.8   0.0   0.0
 1991 017   155  25.6  24.4  22.7  21.1  19.9  18.7  18.0  17.8   0.0   0.0
 1991 018   156  25.9  24.7  23.0  21.3  20.1  18.8  18.1  17.8   0.0   0.0
 1991 019   157  26.2  24.9  23.1  21.5  20.2  18.9  18.1  17.8   0.0   0.0
 1991 020   158  26.0  24.8  23.1  21.4  20.1  18.9  18.1  17.8   0.0   0.0
 1991 021   159  26.2  25.0  23.2  21.5  20.2  18.9  18.2  17.8   0.0   0.0
 1991 022   160  27.1  25.7  23.8  22.0  20.6  19.2  18.3  18.0   0.0   0.0
 1991 023   161  27.3  26.0  24.0  22.2  20.7  19.3  18.4  18.0   0.0   0.0
 1991 024   162  26.3  25.1  23.3  21.6  20.3  19.0  18.2  17.9   0.0   0.0

*DSSAT Cropping System Model Ver. 4.0.2.000               Aug 03, 2016; 15:38:15

*RUN   5        : UYMZ                    
 MODEL          : MZCER040 - Maize           
 EXPERIMENT     : UYMZ0131 MZ    late to create DSS                             
 TREATMENT  1   : UYMZ                    

@YEAR DOY   DAS  TS1D  TS2D  TS3D  TS4D  TS5D  TS6D  TS7D  TS8D  TS9D  TS10
 1991 227     0  22.8  21.9  20.9  20.1  19.5  19.0  18.6  18.4   0.0   0.0
 1991 228     1  23.0  22.1  21.0  20.2  19.6  19.0  18.6  18.4   0.0   0.0
 1991 229     2  23.0  22.1  21.0  20.1  19.6  19.0  18.6  18.4   0.0   0.0
 1991 230     3  22.6  21.8  20.7  19.9  19.4  18.9  18.5  18.3   0.0   0.0
 1991 231     4  22.6  21.7  20.7  19.9  19.4  18.9  18.5  18.3   0.0   0.0
 1991 232     5  22.4  21.6  20.6  19.8  19.3  18.8  18.5  18.3   0.0   0.0
 1991 233     6  22.2  21.4  20.4  19.7  19.2  18.8  18.5  18.3   0.0   0.0
 1991 234     7  22.5  21.6  20.6  19.8  19.3  18.8  18.5  18.3   0.0   0.0
 1991 235     8  22.4  21.5  20.5  19.7  19.2  18.8  18.5  18.3   0.0   0.0
 1991 236     9  21.7  20.9  20.0  19.4  18.9  18.6  18.3  18.2   0.0   0.0
 1991 237    10  21.6  20.8  19.9  19.3  18.9  18.5  18.3  18.2   0.0   0.0
 1991 238    11  20.1  19.6  19.0  18.5  18.3  18.2  18.1  18.0   0.0   0.0
 1991 239    12  18.3  18.0  17.7  17.6  17.6  17.7  17.8  17.8   0.0   0.0
 1991 240    13  17.9  17.7  17.4  17.4  17.4  17.6  17.7  17.7   0.0   0.0
 1991 241    14  18.2  17.9  17.6  17.5  17.5  17.6  17.7  17.7   0.0   0.0
 1991 242    15  18.2  17.9  17.6  17.5  17.5  17.6  17.7  17.7   0.0   0.0
 1991 243    16  18.1  17.8  17.5  17.4  17.5  17.6  17.7  17.7   0.0   0.0
 1991 244    17  18.1  17.8  17.5  17.4  17.4  17.6  17.7  17.7   0.0   0.0
 1991 245    18  17.5  17.2  17.1  17.1  17.2  17.4  17.6  17.6   0.0   0.0
 1991 246    19  17.4  17.2  17.0  17.0  17.1  17.4  17.5  17.6   0.0   0.0
 1991 247    20  17.8  17.5  17.2  17.2  17.3  17.4  17.6  17.6   0.0   0.0
 1991 248    21  19.6  19.1  18.5  18.1  17.9  17.9  17.9  17.8   0.0   0.0
 1991 249    22  20.9  20.2  19.3  18.7  18.4  18.2  18.0  18.0   0.0   0.0
 1991 250    23  21.0  20.3  19.4  18.8  18.4  18.2  18.1  18.0   0.0   0.0
 1991 251    24  20.0  19.4  18.7  18.3  18.1  17.9  17.9  17.9   0.0   0.0
 1991 252    25  18.9  18.5  18.0  17.7  17.6  17.6  17.7  17.7   0.0   0.0
 1991 253    26  17.9  17.6  17.3  17.2  17.2  17.4  17.5  17.6   0.0   0.0
 1991 254    27  18.3  17.9  17.5  17.4  17.3  17.5  17.6  17.6   0.0   0.0
 1991 255    28  20.2  19.5  18.8  18.3  18.0  17.9  17.9  17.8   0.0   0.0
 1991 256    29  22.6  21.6  20.4  19.5  19.0  18.5  18.2  18.1   0.0   0.0
 1991 257    30  22.6  21.7  20.5  19.5  19.0  18.5  18.2  18.1   0.0   0.0
 1991 258    31  21.0  20.3  19.4  18.7  18.3  18.1  18.0  17.9   0.0   0.0
 1991 259    32  20.5  19.8  19.0  18.4  18.1  17.9  17.9  17.8   0.0   0.0
 1991 260    33  19.4  18.8  18.2  17.8  17.6  17.6  17.7  17.7   0.0   0.0
 1991 261    34  17.6  17.3  17.0  16.9  17.0  17.2  17.4  17.5   0.0   0.0
 1991 262    35  17.4  17.1  16.8  16.8  16.8  17.1  17.3  17.4   0.0   0.0
 1991 263    36  18.9  18.4  17.8  17.5  17.4  17.4  17.5  17.6   0.0   0.0
 1991 264    37  19.5  19.0  18.3  17.8  17.7  17.6  17.6  17.7   0.0   0.0
 1991 265    38  19.5  18.9  18.2  17.8  17.6  17.6  17.6  17.6   0.0   0.0
 1991 266    39  18.9  18.4  17.8  17.5  17.4  17.4  17.5  17.6   0.0   0.0
 1991 267    40  19.0  18.5  17.9  17.5  17.4  17.4  17.5  17.6   0.0   0.0
 1991 268    41  19.0  18.5  17.9  17.5  17.4  17.4  17.5  17.6   0.0   0.0
 1991 269    42  18.6  18.1  17.6  17.3  17.2  17.3  17.4  17.5   0.0   0.0
 1991 270    43  19.7  19.1  18.4  17.9  17.6  17.6  17.6  17.6   0.0   0.0
 1991 271    44  19.8  19.2  18.4  17.9  17.7  17.6  17.6  17.6   0.0   0.0
 1991 272    45  19.7  19.1  18.3  17.8  17.6  17.5  17.6  17.6   0.0   0.0
 1991 273    46  19.6  19.0  18.2  17.8  17.5  17.5  17.5  17.6   0.0   0.0
 1991 274    47  18.8  18.2  17.7  17.3  17.2  17.3  17.4  17.5   0.0   0.0
 1991 275    48  17.2  16.9  16.6  16.5  16.6  16.8  17.1  17.3   0.0   0.0
 1991 276    49  17.5  17.2  16.8  16.7  16.7  16.9  17.2  17.3   0.0   0.0
 1991 277    50  18.1  17.6  17.2  16.9  16.9  17.0  17.2  17.4   0.0   0.0
 1991 278    51  17.0  16.7  16.5  16.4  16.5  16.8  17.1  17.2   0.0   0.0
 1991 279    52  16.0  15.8  15.7  15.8  16.1  16.5  16.9  17.1   0.0   0.0
 1991 280    53  15.0  15.0  15.1  15.3  15.7  16.2  16.7  17.0   0.0   0.0
 1991 281    54  14.5  14.5  14.7  15.1  15.5  16.1  16.6  16.9   0.0   0.0
 1991 282    55  14.4  14.4  14.6  15.0  15.4  16.0  16.6  16.9   0.0   0.0
 1991 283    56  16.0  15.8  15.7  15.8  16.0  16.4  16.8  17.0   0.0   0.0
 1991 284    57  18.2  17.8  17.3  17.0  16.9  17.0  17.2  17.3   0.0   0.0
 1991 285    58  21.1  20.3  19.2  18.5  18.0  17.7  17.6  17.6   0.0   0.0
 1991 286    59  24.2  22.9  21.3  20.0  19.2  18.5  18.1  18.0   0.0   0.0
 1991 287    60  26.2  24.7  22.7  21.1  20.0  19.0  18.4  18.2   0.0   0.0
 1991 288    61  26.4  24.9  22.8  21.1  20.0  19.0  18.4  18.2   0.0   0.0
 1991 289    62  25.1  23.8  22.0  20.5  19.5  18.7  18.2  18.1   0.0   0.0
 1991 290    63  22.7  21.7  20.3  19.3  18.6  18.1  17.8  17.8   0.0   0.0
 1991 291    64  20.6  19.8  18.9  18.1  17.7  17.5  17.5  17.5   0.0   0.0
 1991 292    65  19.4  18.8  18.0  17.5  17.2  17.2  17.3  17.4   0.0   0.0
 1991 293    66  19.7  19.0  18.2  17.6  17.4  17.2  17.3  17.4   0.0   0.0
 1991 294    67  21.8  20.9  19.7  18.7  18.2  17.8  17.6  17.6   0.0   0.0
 1991 295    68  24.4  23.1  21.5  20.1  19.2  18.4  18.1  17.9   0.0   0.0
 1991 296    69  24.1  22.9  21.2  19.9  19.0  18.3  18.0  17.9   0.0   0.0
 1991 297    70  22.6  21.6  20.2  19.1  18.5  18.0  17.7  17.7   0.0   0.0
 1991 298    71  21.7  20.8  19.6  18.7  18.1  17.7  17.6  17.6   0.0   0.0
 1991 299    72  20.9  20.1  19.0  18.2  17.8  17.5  17.4  17.5   0.0   0.0
 1991 300    73  19.6  18.9  18.1  17.6  17.3  17.2  17.2  17.3   0.0   0.0
 1991 301    74  19.7  19.0  18.2  17.6  17.3  17.2  17.2  17.3   0.0   0.0
 1991 302    75  19.8  19.2  18.3  17.7  17.4  17.2  17.3  17.3   0.0   0.0
 1991 303    76  19.4  18.8  18.0  17.5  17.2  17.1  17.2  17.3   0.0   0.0
 1991 304    77  18.5  18.0  17.4  17.0  16.8  16.8  17.0  17.2   0.0   0.0
 1991 305    78  18.3  17.9  17.3  16.9  16.8  16.8  17.0  17.1   0.0   0.0
 1991 306    79  18.8  18.3  17.6  17.1  16.9  16.9  17.1  17.2   0.0   0.0
 1991 307    80  19.8  19.1  18.3  17.6  17.3  17.2  17.2  17.3   0.0   0.0
 1991 308    81  21.2  20.3  19.2  18.3  17.8  17.5  17.4  17.4   0.0   0.0
 1991 309    82  22.2  21.2  19.9  18.9  18.2  17.7  17.6  17.5   0.0   0.0
 1991 310    83  22.6  21.5  20.2  19.1  18.4  17.8  17.6  17.6   0.0   0.0
 1991 311    84  22.7  21.6  20.2  19.1  18.4  17.8  17.6  17.6   0.0   0.0
 1991 312    85  22.4  21.4  20.1  19.0  18.3  17.8  17.6  17.5   0.0   0.0
 1991 313    86  22.2  21.2  19.9  18.9  18.2  17.7  17.5  17.5   0.0   0.0
 1991 314    87  22.0  21.0  19.8  18.8  18.1  17.7  17.5  17.5   0.0   0.0
 1991 315    88  21.2  20.3  19.2  18.3  17.8  17.4  17.4  17.4   0.0   0.0
 1991 316    89  20.5  19.7  18.8  18.0  17.5  17.3  17.2  17.3   0.0   0.0
 1991 317    90  20.3  19.5  18.6  17.9  17.5  17.2  17.2  17.3   0.0   0.0
 1991 318    91  19.3  18.7  18.0  17.4  17.1  17.0  17.1  17.2   0.0   0.0
 1991 319    92  18.7  18.2  17.5  17.1  16.9  16.8  17.0  17.1   0.0   0.0
 1991 320    93  19.4  18.8  18.0  17.4  17.1  17.0  17.0  17.1   0.0   0.0
 1991 321    94  20.0  19.3  18.4  17.8  17.4  17.1  17.1  17.2   0.0   0.0
 1991 322    95  21.2  20.4  19.3  18.4  17.8  17.4  17.3  17.3   0.0   0.0
 1991 323    96  21.9  20.9  19.7  18.7  18.1  17.6  17.4  17.4   0.0   0.0
 1991 324    97  22.4  21.4  20.1  19.0  18.3  17.7  17.5  17.5   0.0   0.0
 1991 325    98  23.6  22.4  20.9  19.6  18.7  18.0  17.7  17.6   0.0   0.0
 1991 326    99  25.5  24.1  22.2  20.6  19.5  18.5  18.0  17.8   0.0   0.0
 1991 327   100  27.1  25.5  23.3  21.4  20.1  18.9  18.2  18.0   0.0   0.0
 1991 328   101  26.7  25.1  23.0  21.2  19.9  18.8  18.1  17.9   0.0   0.0
 1991 329   102  25.6  24.2  22.3  20.7  19.5  18.5  18.0  17.8   0.0   0.0
 1991 330   103  24.0  22.8  21.2  19.9  18.9  18.1  17.7  17.6   0.0   0.0
 1991 331   104  22.1  21.2  20.0  18.9  18.2  17.7  17.4  17.4   0.0   0.0
 1991 332   105  20.9  20.1  19.1  18.3  17.7  17.3  17.2  17.2   0.0   0.0
 1991 333   106  21.9  21.0  19.9  18.8  18.2  17.6  17.4  17.4   0.0   0.0
 1991 334   107  23.8  22.7  21.1  19.8  18.9  18.1  17.7  17.6   0.0   0.0
 1991 335   108  25.4  24.0  22.2  20.6  19.5  18.5  17.9  17.8   0.0   0.0
 1991 336   109  26.7  25.2  23.1  21.3  20.0  18.8  18.2  17.9   0.0   0.0
 1991 337   110  26.5  25.0  23.0  21.2  19.9  18.8  18.1  17.9   0.0   0.0
 1991 338   111  27.6  26.0  23.7  21.8  20.4  19.0  18.3  18.0   0.0   0.0
 1991 339   112  27.3  25.7  23.6  21.6  20.2  19.0  18.2  18.0   0.0   0.0
 1991 340   113  28.1  26.4  24.1  22.0  20.6  19.2  18.4  18.1   0.0   0.0
 1991 341   114  27.6  26.0  23.8  21.8  20.4  19.0  18.3  18.0   0.0   0.0
 1991 342   115  28.2  26.5  24.2  22.1  20.6  19.2  18.4  18.1   0.0   0.0
 1991 343   116  26.6  25.1  23.1  21.3  20.0  18.8  18.1  17.9   0.0   0.0
 1991 344   117  26.6  25.1  23.1  21.3  20.0  18.8  18.1  17.9   0.0   0.0
 1991 345   118  25.7  24.4  22.5  20.9  19.7  18.6  18.0  17.8   0.0   0.0
 1991 346   119  24.9  23.6  22.0  20.4  19.4  18.4  17.9  17.7   0.0   0.0
 1991 347   120  24.6  23.4  21.8  20.3  19.3  18.3  17.8  17.6   0.0   0.0
 1991 348   121  24.4  23.2  21.6  20.2  19.2  18.2  17.8  17.6   0.0   0.0
 1991 349   122  23.5  22.5  21.1  19.8  18.9  18.1  17.6  17.5   0.0   0.0
 1991 350   123  23.4  22.4  21.0  19.7  18.8  18.0  17.6  17.5   0.0   0.0
 1991 351   124  24.3  23.2  21.6  20.2  19.2  18.3  17.8  17.6   0.0   0.0
 1991 352   125  24.8  23.6  21.9  20.4  19.4  18.4  17.8  17.7   0.0   0.0
 1991 353   126  26.4  25.0  23.1  21.3  20.0  18.8  18.1  17.8   0.0   0.0
 1991 354   127  28.0  26.5  24.2  22.2  20.7  19.2  18.4  18.0   0.0   0.0
 1991 355   128  29.2  27.4  25.0  22.8  21.1  19.5  18.6  18.2   0.0   0.0
 1991 356   129  29.0  27.3  24.9  22.7  21.1  19.5  18.5  18.1   0.0   0.0
 1991 357   130  28.8  27.1  24.7  22.6  21.0  19.4  18.5  18.1   0.0   0.0
 1991 358   131  28.8  27.2  24.8  22.7  21.1  19.5  18.5  18.1   0.0   0.0
 1991 359   132  27.8  26.3  24.1  22.1  20.7  19.2  18.4  18.0   0.0   0.0
 1991 360   133  26.1  24.8  22.9  21.2  20.0  18.8  18.1  17.8   0.0   0.0
 1991 361   134  25.8  24.5  22.7  21.1  19.9  18.7  18.0  17.8   0.0   0.0
 1991 362   135  25.3  24.1  22.4  20.8  19.7  18.6  17.9  17.7   0.0   0.0
 1991 363   136  25.0  23.8  22.2  20.7  19.6  18.5  17.9  17.7   0.0   0.0
 1991 364   137  25.8  24.5  22.7  21.1  19.9  18.7  18.0  17.8   0.0   0.0
 1991 365   138  27.5  26.0  23.9  22.0  20.6  19.1  18.3  18.0   0.0   0.0
 1992 001   139  27.9  26.4  24.2  22.2  20.7  19.2  18.4  18.0   0.0   0.0
 1992 002   140  28.2  26.6  24.4  22.3  20.8  19.3  18.4  18.0   0.0   0.0
 1992 003   141  27.1  25.7  23.7  21.8  20.4  19.0  18.2  17.9   0.0   0.0
 1992 004   142  26.5  25.2  23.3  21.5  20.2  18.9  18.2  17.9   0.0   0.0
 1992 005   143  26.0  24.7  22.9  21.2  20.0  18.8  18.1  17.8   0.0   0.0
 1992 006   144  25.8  24.6  22.8  21.2  19.9  18.7  18.0  17.8   0.0   0.0
 1992 007   145  26.1  24.8  23.0  21.3  20.0  18.8  18.1  17.8   0.0   0.0
 1992 008   146  27.4  26.0  23.9  22.0  20.5  19.1  18.3  18.0   0.0   0.0
 1992 009   147  28.2  26.6  24.4  22.4  20.8  19.3  18.4  18.0   0.0   0.0
 1992 010   148  28.3  26.7  24.5  22.4  20.9  19.4  18.4  18.1   0.0   0.0
 1992 011   149  28.5  26.9  24.6  22.5  21.0  19.4  18.5  18.1   0.0   0.0
 1992 012   150  28.3  26.7  24.5  22.4  20.9  19.4  18.4  18.0   0.0   0.0
 1992 013   151  27.8  26.3  24.2  22.2  20.7  19.2  18.4  18.0   0.0   0.0
 1992 014   152  27.2  25.8  23.8  21.9  20.5  19.1  18.3  17.9   0.0   0.0
 1992 015   153  25.5  24.4  22.7  21.1  19.9  18.7  18.0  17.7   0.0   0.0
 1992 016   154  24.7  23.7  22.2  20.7  19.6  18.5  17.9  17.7   0.0   0.0
 1992 017   155  24.6  23.6  22.1  20.7  19.6  18.5  17.9  17.7   0.0   0.0
 1992 018   156  24.9  23.9  22.3  20.8  19.7  18.6  18.0  17.7   0.0   0.0

*DSSAT Cropping System Model Ver. 4.0.2.000               Aug 03, 2016; 15:38:15

*RUN   6        : UYMZ                    
 MODEL          : MZCER040 - Maize           
 EXPERIMENT     : UYMZ0131 MZ    late to create DSS                             
 TREATMENT  1   : UYMZ                    

@YEAR DOY   DAS  TS1D  TS2D  TS3D  TS4D  TS5D  TS6D  TS7D  TS8D  TS9D  TS10
 1992 227     0  15.5  15.6  15.9  16.4  16.7  17.2  17.5  17.6   0.0   0.0
 1992 228     1  15.6  15.7  16.0  16.4  16.8  17.2  17.5  17.6   0.0   0.0
 1992 229     2  16.3  16.3  16.5  16.8  17.0  17.4  17.6  17.6   0.0   0.0
 1992 230     3  17.3  17.1  17.1  17.2  17.4  17.6  17.7  17.7   0.0   0.0
 1992 231     4  17.9  17.7  17.5  17.5  17.6  17.7  17.8  17.8   0.0   0.0
 1992 232     5  18.2  18.0  17.7  17.7  17.7  17.8  17.8  17.8   0.0   0.0
 1992 233     6  18.4  18.1  17.9  17.8  17.8  17.8  17.9  17.8   0.0   0.0
 1992 234     7  18.7  18.3  18.0  17.8  17.8  17.9  17.9  17.9   0.0   0.0
 1992 235     8  18.3  18.0  17.8  17.7  17.7  17.8  17.8  17.8   0.0   0.0
 1992 236     9  18.2  17.9  17.6  17.6  17.6  17.7  17.8  17.8   0.0   0.0
 1992 237    10  18.4  18.1  17.8  17.7  17.7  17.8  17.8  17.8   0.0   0.0
 1992 238    11  18.9  18.5  18.1  17.9  17.8  17.8  17.9  17.8   0.0   0.0
 1992 239    12  18.4  18.1  17.8  17.6  17.6  17.7  17.8  17.8   0.0   0.0
 1992 240    13  19.1  18.7  18.2  18.0  17.9  17.9  17.9  17.9   0.0   0.0
 1992 241    14  19.1  18.6  18.2  17.9  17.9  17.8  17.9  17.8   0.0   0.0
 1992 242    15  19.6  19.1  18.5  18.2  18.0  18.0  17.9  17.9   0.0   0.0
 1992 243    16  19.6  19.1  18.5  18.2  18.0  18.0  17.9  17.9   0.0   0.0
 1992 244    17  18.6  18.2  17.9  17.7  17.6  17.7  17.8  17.8   0.0   0.0
 1992 245    18  16.7  16.6  16.5  16.7  16.9  17.2  17.4  17.5   0.0   0.0
 1992 246    19  15.8  15.8  15.9  16.2  16.5  17.0  17.3  17.4   0.0   0.0
 1992 247    20  14.6  14.8  15.1  15.6  16.0  16.6  17.1  17.3   0.0   0.0
 1992 248    21  14.2  14.4  14.8  15.3  15.9  16.5  17.0  17.2   0.0   0.0
 1992 249    22  15.3  15.3  15.5  15.9  16.3  16.8  17.2  17.3   0.0   0.0
 1992 250    23  16.3  16.2  16.2  16.4  16.6  17.0  17.3  17.4   0.0   0.0
 1992 251    24  17.5  17.2  17.0  17.0  17.1  17.3  17.5  17.6   0.0   0.0
 1992 252    25  18.0  17.7  17.3  17.2  17.2  17.4  17.5  17.6   0.0   0.0
 1992 253    26  18.3  17.9  17.5  17.3  17.3  17.5  17.6  17.6   0.0   0.0
 1992 254    27  18.4  18.0  17.6  17.4  17.4  17.5  17.6  17.6   0.0   0.0
 1992 255    28  18.8  18.3  17.9  17.6  17.5  17.6  17.6  17.7   0.0   0.0
 1992 256    29  18.7  18.2  17.8  17.5  17.5  17.5  17.6  17.6   0.0   0.0
 1992 257    30  18.1  17.7  17.4  17.2  17.2  17.4  17.5  17.6   0.0   0.0
 1992 258    31  18.0  17.6  17.3  17.1  17.1  17.3  17.5  17.5   0.0   0.0
 1992 259    32  18.0  17.6  17.2  17.1  17.1  17.3  17.5  17.5   0.0   0.0
 1992 260    33  18.1  17.7  17.3  17.2  17.2  17.3  17.5  17.5   0.0   0.0
 1992 261    34  19.3  18.7  18.1  17.7  17.6  17.6  17.6  17.7   0.0   0.0
 1992 262    35  19.5  18.9  18.3  17.9  17.7  17.6  17.7  17.7   0.0   0.0
 1992 263    36  19.5  18.9  18.3  17.8  17.7  17.6  17.6  17.7   0.0   0.0
 1992 264    37  20.2  19.5  18.7  18.2  17.9  17.8  17.7  17.7   0.0   0.0
 1992 265    38  21.5  20.6  19.6  18.8  18.4  18.1  17.9  17.9   0.0   0.0
 1992 266    39  19.3  18.8  18.1  17.7  17.5  17.5  17.6  17.6   0.0   0.0
 1992 267    40  19.3  18.7  18.1  17.7  17.5  17.5  17.6  17.6   0.0   0.0
 1992 268    41  18.3  17.9  17.4  17.2  17.1  17.2  17.4  17.5   0.0   0.0
 1992 269    42  16.2  16.0  16.0  16.1  16.3  16.7  17.0  17.2   0.0   0.0
 1992 270    43  13.4  13.6  14.0  14.6  15.2  15.9  16.6  16.9   0.0   0.0
 1992 271    44  14.3  14.4  14.6  15.1  15.5  16.2  16.7  17.0   0.0   0.0
 1992 272    45  15.0  15.0  15.1  15.4  15.8  16.3  16.8  17.0   0.0   0.0
 1992 273    46  16.6  16.4  16.2  16.2  16.4  16.7  17.1  17.2   0.0   0.0
 1992 274    47  19.1  18.5  17.9  17.5  17.3  17.3  17.4  17.5   0.0   0.0
 1992 275    48  21.1  20.3  19.3  18.5  18.1  17.8  17.8  17.7   0.0   0.0
 1992 276    49  21.6  20.7  19.6  18.7  18.3  17.9  17.8  17.8   0.0   0.0
 1992 277    50  21.5  20.6  19.5  18.7  18.2  17.9  17.8  17.7   0.0   0.0
 1992 278    51  21.8  20.9  19.7  18.8  18.3  18.0  17.8  17.8   0.0   0.0
 1992 279    52  20.4  19.6  18.8  18.1  17.8  17.6  17.6  17.6   0.0   0.0
 1992 280    53  18.9  18.3  17.7  17.3  17.2  17.2  17.3  17.4   0.0   0.0
 1992 281    54  17.8  17.4  16.9  16.7  16.7  16.9  17.1  17.3   0.0   0.0
 1992 282    55  17.4  17.1  16.7  16.5  16.6  16.8  17.1  17.2   0.0   0.0
 1992 283    56  16.7  16.5  16.2  16.2  16.3  16.6  17.0  17.1   0.0   0.0
 1992 284    57  18.0  17.6  17.1  16.8  16.8  16.9  17.1  17.3   0.0   0.0
 1992 285    58  19.7  19.1  18.3  17.7  17.4  17.4  17.4  17.5   0.0   0.0
 1992 286    59  21.4  20.5  19.4  18.5  18.1  17.8  17.7  17.6   0.0   0.0
 1992 287    60  22.6  21.6  20.3  19.2  18.6  18.1  17.9  17.8   0.0   0.0
 1992 288    61  24.2  22.9  21.3  20.0  19.1  18.4  18.1  18.0   0.0   0.0
 1992 289    62  24.9  23.5  21.8  20.3  19.4  18.6  18.2  18.0   0.0   0.0
 1992 290    63  24.1  22.8  21.2  19.9  19.1  18.4  18.0  17.9   0.0   0.0
 1992 291    64  23.5  22.4  20.9  19.6  18.9  18.3  18.0  17.9   0.0   0.0
 1992 292    65  22.8  21.7  20.3  19.2  18.6  18.0  17.8  17.8   0.0   0.0
 1992 293    66  20.9  20.1  19.0  18.3  17.8  17.6  17.5  17.5   0.0   0.0
 1992 294    67  19.1  18.5  17.8  17.3  17.1  17.1  17.2  17.3   0.0   0.0
 1992 295    68  19.1  18.5  17.8  17.4  17.1  17.1  17.2  17.3   0.0   0.0
 1992 296    69  19.6  19.0  18.2  17.6  17.3  17.2  17.3  17.4   0.0   0.0
 1992 297    70  20.7  19.9  18.9  18.1  17.7  17.5  17.4  17.5   0.0   0.0
 1992 298    71  22.9  21.8  20.4  19.3  18.6  18.0  17.8  17.7   0.0   0.0
 1992 299    72  24.2  22.9  21.3  19.9  19.1  18.3  18.0  17.8   0.0   0.0
 1992 300    73  25.4  24.0  22.1  20.6  19.5  18.6  18.2  18.0   0.0   0.0
 1992 301    74  26.6  25.0  22.9  21.1  20.0  18.9  18.3  18.1   0.0   0.0
 1992 302    75  24.5  23.1  21.4  20.0  19.1  18.4  18.0  17.8   0.0   0.0
 1992 303    76  22.8  21.7  20.3  19.2  18.5  17.9  17.7  17.6   0.0   0.0
 1992 304    77  22.0  21.0  19.8  18.8  18.2  17.7  17.6  17.6   0.0   0.0
 1992 305    78  21.3  20.4  19.3  18.4  17.9  17.5  17.5  17.5   0.0   0.0
 1992 306    79  20.7  19.9  18.9  18.1  17.7  17.4  17.4  17.4   0.0   0.0
 1992 307    80  23.4  22.2  20.7  19.5  18.7  18.1  17.8  17.7   0.0   0.0
 1992 308    81  23.3  22.1  20.6  19.4  18.6  18.0  17.7  17.7   0.0   0.0
 1992 309    82  22.0  21.0  19.8  18.8  18.1  17.7  17.5  17.5   0.0   0.0
 1992 310    83  20.6  19.8  18.8  18.0  17.6  17.3  17.3  17.3   0.0   0.0
 1992 311    84  19.1  18.5  17.8  17.3  17.0  17.0  17.1  17.2   0.0   0.0
 1992 312    85  17.5  17.1  16.7  16.4  16.4  16.5  16.8  17.0   0.0   0.0
 1992 313    86  18.3  17.8  17.3  16.9  16.7  16.7  16.9  17.1   0.0   0.0
 1992 314    87  21.0  20.2  19.1  18.3  17.8  17.4  17.3  17.4   0.0   0.0
 1992 315    88  22.2  21.2  19.9  18.8  18.2  17.7  17.5  17.5   0.0   0.0
 1992 316    89  23.8  22.6  21.0  19.7  18.8  18.1  17.8  17.7   0.0   0.0
 1992 317    90  25.4  24.0  22.1  20.5  19.4  18.5  18.0  17.8   0.0   0.0
 1992 318    91  26.0  24.5  22.5  20.8  19.7  18.6  18.1  17.9   0.0   0.0
 1992 319    92  26.1  24.6  22.6  20.9  19.7  18.7  18.1  17.9   0.0   0.0
 1992 320    93  26.9  25.3  23.1  21.3  20.0  18.8  18.2  18.0   0.0   0.0
 1992 321    94  25.7  24.3  22.3  20.7  19.6  18.6  18.0  17.9   0.0   0.0
 1992 322    95  24.2  23.0  21.3  19.9  19.0  18.2  17.8  17.7   0.0   0.0
 1992 323    96  23.4  22.2  20.8  19.5  18.7  18.0  17.7  17.6   0.0   0.0
 1992 324    97  23.0  21.9  20.5  19.3  18.5  17.9  17.6  17.5   0.0   0.0
 1992 325    98  23.6  22.4  20.9  19.6  18.7  18.0  17.7  17.6   0.0   0.0
 1992 326    99  23.5  22.4  20.9  19.6  18.7  18.0  17.7  17.6   0.0   0.0
 1992 327   100  23.1  22.0  20.6  19.4  18.6  17.9  17.6  17.5   0.0   0.0
 1992 328   101  22.4  21.4  20.1  19.0  18.3  17.7  17.5  17.4   0.0   0.0
 1992 329   102  21.9  21.0  19.7  18.7  18.1  17.6  17.4  17.4   0.0   0.0
 1992 330   103  20.9  20.1  19.1  18.2  17.7  17.3  17.2  17.3   0.0   0.0
 1992 331   104  21.7  20.8  19.6  18.7  18.0  17.5  17.4  17.4   0.0   0.0
 1992 332   105  23.2  22.1  20.7  19.4  18.6  17.9  17.6  17.5   0.0   0.0
 1992 333   106  24.5  23.3  21.6  20.1  19.1  18.2  17.8  17.7   0.0   0.0
 1992 334   107  25.3  23.9  22.1  20.5  19.4  18.4  17.9  17.7   0.0   0.0
 1992 335   108  26.0  24.6  22.6  20.9  19.7  18.6  18.0  17.8   0.0   0.0
 1992 336   109  25.9  24.5  22.6  20.9  19.7  18.6  18.0  17.8   0.0   0.0
 1992 337   110  25.5  24.1  22.3  20.6  19.5  18.5  17.9  17.8   0.0   0.0
 1992 338   111  25.5  24.1  22.3  20.6  19.5  18.5  17.9  17.7   0.0   0.0
 1992 339   112  25.6  24.2  22.3  20.7  19.5  18.5  17.9  17.8   0.0   0.0
 1992 340   113  25.4  24.1  22.2  20.6  19.5  18.5  17.9  17.7   0.0   0.0
 1992 341   114  26.3  24.9  22.9  21.1  19.8  18.7  18.1  17.8   0.0   0.0
 1992 342   115  26.6  25.1  23.1  21.3  20.0  18.8  18.1  17.9   0.0   0.0
 1992 343   116  26.8  25.3  23.2  21.3  20.0  18.8  18.1  17.9   0.0   0.0
 1992 344   117  26.2  24.8  22.8  21.1  19.8  18.7  18.0  17.8   0.0   0.0
 1992 345   118  26.2  24.8  22.8  21.1  19.8  18.7  18.0  17.8   0.0   0.0
 1992 346   119  25.6  24.3  22.4  20.8  19.6  18.5  17.9  17.7   0.0   0.0
 1992 347   120  25.8  24.5  22.6  20.9  19.7  18.6  18.0  17.8   0.0   0.0
 1992 348   121  26.3  24.9  22.9  21.1  19.9  18.7  18.0  17.8   0.0   0.0
 1992 349   122  26.8  25.3  23.2  21.4  20.0  18.8  18.1  17.9   0.0   0.0
 1992 350   123  27.0  25.5  23.4  21.5  20.1  18.9  18.1  17.9   0.0   0.0
 1992 351   124  27.6  26.0  23.7  21.8  20.3  19.0  18.2  17.9   0.0   0.0
 1992 352   125  27.5  26.0  23.8  21.8  20.4  19.0  18.2  17.9   0.0   0.0
 1992 353   126  27.5  26.0  23.8  21.8  20.4  19.0  18.2  17.9   0.0   0.0
 1992 354   127  27.7  26.1  23.9  21.9  20.4  19.0  18.3  18.0   0.0   0.0
 1992 355   128  28.7  27.0  24.6  22.4  20.8  19.3  18.4  18.1   0.0   0.0
 1992 356   129  29.3  27.5  25.0  22.7  21.0  19.4  18.5  18.1   0.0   0.0
 1992 357   130  29.5  27.6  25.1  22.8  21.1  19.5  18.5  18.1   0.0   0.0
 1992 358   131  28.9  27.1  24.7  22.5  20.9  19.3  18.4  18.1   0.0   0.0
 1992 359   132  28.8  27.0  24.6  22.4  20.9  19.3  18.4  18.1   0.0   0.0
 1992 360   133  27.5  26.0  23.8  21.9  20.4  19.0  18.2  17.9   0.0   0.0
 1992 361   134  26.7  25.2  23.3  21.4  20.1  18.8  18.1  17.8   0.0   0.0
 1992 362   135  26.7  25.3  23.3  21.5  20.1  18.8  18.1  17.8   0.0   0.0
 1992 363   136  27.6  26.1  23.9  21.9  20.5  19.1  18.3  17.9   0.0   0.0
 1992 364   137  26.9  25.5  23.5  21.6  20.2  18.9  18.2  17.9   0.0   0.0
 1992 365   138  26.2  24.9  23.0  21.2  20.0  18.7  18.0  17.8   0.0   0.0
 1992 366   139  24.9  23.7  22.1  20.6  19.5  18.4  17.9  17.6   0.0   0.0
 1993 001   140  23.6  22.6  21.2  19.9  19.0  18.1  17.7  17.5   0.0   0.0
 1993 002   141  21.7  21.0  19.9  19.0  18.3  17.7  17.4  17.3   0.0   0.0
 1993 003   142  21.0  20.4  19.5  18.7  18.1  17.5  17.3  17.2   0.0   0.0
 1993 004   143  21.8  21.1  20.1  19.1  18.4  17.7  17.4  17.3   0.0   0.0
 1993 005   144  23.7  22.7  21.3  20.1  19.1  18.2  17.7  17.5   0.0   0.0
 1993 006   145  25.7  24.5  22.8  21.1  19.9  18.7  18.0  17.8   0.0   0.0
 1993 007   146  26.7  25.4  23.4  21.6  20.3  19.0  18.2  17.9   0.0   0.0
 1993 008   147  27.6  26.1  24.0  22.1  20.7  19.2  18.4  18.0   0.0   0.0
 1993 009   148  27.5  26.1  24.0  22.1  20.7  19.2  18.4  18.0   0.0   0.0
 1993 010   149  27.7  26.2  24.1  22.2  20.7  19.3  18.4  18.0   0.0   0.0
 1993 011   150  27.7  26.3  24.2  22.2  20.8  19.3  18.4  18.0   0.0   0.0
 1993 012   151  28.9  27.3  25.0  22.8  21.2  19.6  18.6  18.1   0.0   0.0
 1993 013   152  30.0  28.3  25.8  23.4  21.7  19.9  18.8  18.3   0.0   0.0
 1993 014   153  30.5  28.7  26.1  23.7  21.9  20.0  18.8  18.3   0.0   0.0
 1993 015   154  30.5  28.7  26.1  23.7  21.9  20.0  18.8  18.3   0.0   0.0
 1993 016   155  29.8  28.1  25.7  23.4  21.7  19.9  18.8  18.3   0.0   0.0
 1993 017   156  28.0  26.6  24.5  22.5  21.0  19.4  18.5  18.1   0.0   0.0
 1993 018   157  26.5  25.2  23.4  21.7  20.4  19.1  18.2  17.9   0.0   0.0
 1993 019   158  25.8  24.6  23.0  21.4  20.1  18.9  18.1  17.8   0.0   0.0
 1993 020   159  25.6  24.5  22.9  21.3  20.1  18.8  18.1  17.8   0.0   0.0
 1993 021   160  26.3  25.1  23.3  21.6  20.3  19.0  18.2  17.9   0.0   0.0
