*GROWTH ASPECTS OUTPUT FILE

*DSSAT Cropping System Model Ver. 4.0.2.000               Aug 23, 2016; 19:17:45

*RUN   1        : UYSB                    
 MODEL          : CRGRO040 - Soybean         
 EXPERIMENT     : UYSB0396 SB    late to create DSS                             
 TREATMENT  1   : UYSB                    

@YEAR DOY   DAS   DAP   L#SD   GSTD   LAID   LWAD   SWAD   GWAD   RWAD   CWAD   G#AD    GWGD   HIAD   PWAD   P#AD   WSPD   WSGD   NSTD   EWSD    LN%D   SH%D   HIPD   PWDD   PWTD   SLAD   CHTD   CWID   NWAD   RDPD   RL1D   RL2D   RL3D   RL4D   RL5D   RL6D   RL7D   RL8D   RL9D   RL10   SNW0C   SNW1C
 1999 235     3     0    0.0      0   0.00      0      0      0      0      0      0     0.0  0.000      0      0  0.000  0.000  0.000  0.000    0.00   0.00   0.00      0      0    0.0   0.00   0.00    0.0   0.00   0.00   0.00   0.00   0.00   0.00   0.00   0.00   0.00   0.00   0.00       0       0
 1999 236     4     1    0.0      0   0.00      0      0      0      0      0      0     0.0  0.000      0      0  0.000  0.000  0.000  0.000    0.00   0.00   0.00      0      0    0.0   0.00   0.00    0.0   0.00   0.00   0.00   0.00   0.00   0.00   0.00   0.00   0.00   0.00   0.00       0       0
 1999 237     5     2    0.0      0   0.00      0      0      0      0      0      0     0.0  0.000      0      0  0.000  0.000  0.000  0.000    0.00   0.00   0.00      0      0    0.0   0.00   0.00    0.0   0.00   0.00   0.00   0.00   0.00   0.00   0.00   0.00   0.00   0.00   0.00       0       0
 1999 238     6     3    0.0      0   0.00      0      0      0      0      0      0     0.0  0.000      0      0  0.000  0.000  0.000  0.000    0.00   0.00   0.00      0      0    0.0   0.00   0.00    0.0   0.00   0.00   0.00   0.00   0.00   0.00   0.00   0.00   0.00   0.00   0.00       0       0
 1999 239     7     4    0.0      0   0.00      0      0      0      0      0      0     0.0  0.000      0      0  0.000  0.000  0.000  0.000    0.00   0.00   0.00      0      0    0.0   0.00   0.00    0.0   0.00   0.00   0.00   0.00   0.00   0.00   0.00   0.00   0.00   0.00   0.00       0       0
 1999 240     8     5    0.0      0   0.00      0      0      0      0      0      0     0.0  0.000      0      0  0.000  0.000  0.000  0.000    0.00   0.00   0.00      0      0    0.0   0.00   0.00    0.0   0.00   0.00   0.00   0.00   0.00   0.00   0.00   0.00   0.00   0.00   0.00       0       0
 1999 241     9     6    0.0      0   0.00      0      0      0      0      0      0     0.0  0.000      0      0  0.000  0.000  0.000  0.000    0.00   0.00   0.00      0      0    0.0   0.00   0.00    0.0   0.00   0.00   0.00   0.00   0.00   0.00   0.00   0.00   0.00   0.00   0.00       0       0
 1999 242    10     7    0.0      0   0.00      0      0      0      0      0      0     0.0  0.000      0      0  0.000  0.000  0.000  0.000    0.00   0.00   0.00      0      0    0.0   0.00   0.00    0.0   0.00   0.00   0.00   0.00   0.00   0.00   0.00   0.00   0.00   0.00   0.00       0       0
 1999 243    11     8    0.0      0   0.00      0      0      0      0      0      0     0.0  0.000      0      0  0.000  0.000  0.000  0.000    0.00   0.00   0.00      0      0    0.0   0.00   0.00    0.0   0.00   0.00   0.00   0.00   0.00   0.00   0.00   0.00   0.00   0.00   0.00       0       0
 1999 244    12     9    0.0      0   0.00      0      0      0      0      0      0     0.0  0.000      0      0  0.000  0.000  0.000  0.000    0.00   0.00   0.00      0      0    0.0   0.00   0.00    0.0   0.00   0.00   0.00   0.00   0.00   0.00   0.00   0.00   0.00   0.00   0.00       0       0
 1999 245    13    10    0.0      0   0.00      0      0      0      0      0      0     0.0  0.000      0      0  0.000  0.000  0.000  0.000    0.00   0.00   0.00      0      0    0.0   0.00   0.00    0.0   0.00   0.00   0.00   0.00   0.00   0.00   0.00   0.00   0.00   0.00   0.00       0       0
 1999 246    14    11    0.0      0   0.01      3      1      0      4      4      0     0.0  0.000      0      0  0.000  0.000  0.000  0.000    5.70   0.00   0.00      0      0  193.0   0.03   0.03    0.9   0.30   0.04   0.04   0.02   0.00   0.00   0.00   0.00   0.00   0.00   0.00       0       0
 1999 247    15    12    0.1      0   0.01      3      1      0      4      4      0     0.0  0.000      0      0  0.000  0.000  0.000  0.000    5.70   0.00   0.00      0      0  198.9   0.03   0.03    0.9   0.36   0.04   0.04   0.02   0.00   0.00   0.00   0.00   0.00   0.00   0.00       0       0
 1999 248    16    13    0.2      0   0.01      3      1      0      4      4      0     0.0  0.000      0      0  0.000  0.000  0.000  0.000    5.70   0.00   0.00      0      0  209.0   0.03   0.03    0.8   0.43   0.04   0.04   0.03   0.00   0.00   0.00   0.00   0.00   0.00   0.00       0       0
 1999 249    17    14    0.3      0   0.01      3      1      0      4      4      0     0.0  0.000      0      0  0.000  0.000  0.000  0.000    5.70   0.00   0.00      0      0  218.9   0.04   0.04    0.8   0.53   0.04   0.04   0.03   0.00   0.00   0.00   0.00   0.00   0.00   0.00       0       0
 1999 250    18    15    0.3      0   0.01      4      1      0      4      4      0     0.0  0.000      0      0  0.000  0.000  0.000  0.000    5.71   0.00   0.00      0      0  223.5   0.04   0.04    0.8   0.59   0.04   0.04   0.03   0.00   0.00   0.00   0.00   0.00   0.00   0.00       0       0
 1999 251    19    16    0.4      0   0.01      4      1      0      5      5      0     0.0  0.000      0      0  0.000  0.000  0.000  0.000    5.71   0.00   0.00      0      0  220.6   0.04   0.04    0.8   0.63   0.04   0.04   0.03   0.00   0.00   0.00   0.00   0.00   0.00   0.00       0       0
 1999 252    20    17    0.4      0   0.01      4      1      0      5      5      0     0.0  0.000      0      0  0.000  0.000  0.000  0.000    5.71   0.00   0.00      0      0  216.5   0.04   0.04    0.8   0.67   0.05   0.05   0.03   0.01   0.00   0.00   0.00   0.00   0.00   0.00       0       0
 1999 253    21    18    0.5      0   0.01      4      1      0      6      5      0     0.0  0.000      0      0  0.000  0.000  0.000  0.000    5.71   0.00   0.00      0      0  212.5   0.04   0.04    0.8   0.70   0.05   0.05   0.04   0.01   0.00   0.00   0.00   0.00   0.00   0.00       0       0
 1999 254    22    19    0.5      0   0.01      4      1      0      6      6      0     0.0  0.000      0      0  0.000  0.000  0.000  0.000    5.71   0.00   0.00      0      0  209.9   0.04   0.04    0.7   0.72   0.05   0.05   0.04   0.01   0.00   0.00   0.00   0.00   0.00   0.00       0       0
 1999 255    23    20    0.5      0   0.01      5      1      0      7      6      0     0.0  0.000      0      0  0.000  0.000  0.000  0.000    5.71   0.00   0.00      0      0  209.0   0.04   0.04    0.8   0.77   0.05   0.05   0.04   0.01   0.01   0.00   0.00   0.00   0.00   0.00       0       0
 1999 256    24    21    0.6      0   0.01      5      1      0      7      6      0     0.0  0.000      0      0  0.000  0.000  0.000  0.000    5.71   0.00   0.00      0      0  214.3   0.04   0.04    0.8   0.85   0.06   0.06   0.04   0.01   0.01   0.00   0.00   0.00   0.00   0.00       0       1
 1999 257    25    22    0.7      0   0.01      5      2      0      8      7      0     0.0  0.000      0      0  0.000  0.000  0.000  0.000    5.71   0.00   0.00      0      0  212.8   0.05   0.05    0.8   0.90   0.06   0.06   0.05   0.01   0.01   0.00   0.00   0.00   0.00   0.00       0       1
 1999 258    26    23    0.7      0   0.01      5      2      0      9      7      0     0.0  0.000      0      0  0.000  0.000  0.000  0.000    5.71   0.00   0.00      0      0  210.6   0.05   0.05    0.8   0.94   0.06   0.06   0.05   0.01   0.01   0.00   0.00   0.00   0.00   0.00       0       1
 1999 259    27    24    0.8      0   0.01      6      2      0      9      8      0     0.0  0.000      0      0  0.000  0.000  0.000  0.000    5.71   0.00   0.00      0      0  211.3   0.05   0.05    0.9   1.01   0.07   0.07   0.05   0.01   0.01   0.01   0.00   0.00   0.00   0.00       0       1
 1999 260    28    25    0.9      0   0.01      6      2      0     10      8      0     0.0  0.000      0      0  0.000  0.000  0.000  0.000    5.72   0.00   0.00      0      0  211.4   0.05   0.05    0.9   1.07   0.07   0.07   0.06   0.02   0.01   0.01   0.00   0.00   0.00   0.00       0       1
 1999 261    29    26    1.0      0   0.01      6      3      0     12      9      0     0.0  0.000      0      0  0.000  0.000  0.000  0.000    5.72   0.00   0.00      0      0  214.0   0.05   0.05    1.0   1.17   0.08   0.08   0.06   0.02   0.01   0.01   0.00   0.00   0.00   0.00       0       1
 1999 262    30    27    1.1      0   0.01      7      3      0     12     10      0     0.0  0.000      0      0  0.000  0.000  0.000  0.000    5.72   0.00   0.00      0      0  209.3   0.06   0.06    1.0   1.23   0.08   0.08   0.07   0.02   0.02   0.01   0.00   0.00   0.00   0.00       0       1
 1999 263    31    28    1.2      0   0.02      8      3      0     13     11      0     0.0  0.000      0      0  0.000  0.000  0.000  0.000    5.72   0.00   0.00      0      0  211.4   0.06   0.06    1.0   1.25   0.08   0.08   0.07   0.02   0.02   0.01   0.00   0.00   0.00   0.00       0       1
 1999 264    32    29    1.4      0   0.02      9      3      0     14     12      0     0.0  0.000      0      0  0.000  0.000  0.000  0.000    5.72   0.00   0.00      0      0  210.9   0.07   0.06    1.0   1.25   0.08   0.08   0.07   0.02   0.02   0.01   0.01   0.00   0.00   0.00       0       1
 1999 265    33    30    1.5      0   0.02     10      3      0     15     13      0     0.0  0.000      0      0  0.000  0.000  0.000  0.000    5.72   0.00   0.00      0      0  208.9   0.07   0.07    1.1   1.25   0.09   0.09   0.08   0.02   0.02   0.01   0.01   0.00   0.00   0.00       0       1
 1999 266    34    31    1.6      0   0.02     11      4      0     16     14      0     0.0  0.000      0      0  0.000  0.000  0.000  0.000    5.72   0.00   0.00      0      0  205.7   0.07   0.07    1.1   1.25   0.09   0.09   0.08   0.03   0.02   0.01   0.01   0.00   0.00   0.00       0       1
 1999 267    35    32    1.7      0   0.02     11      4      0     17     16      0     0.0  0.000      0      0  0.000  0.000  0.000  0.000    5.72   0.00   0.00      0      0  205.0   0.08   0.08    1.2   1.25   0.10   0.10   0.09   0.03   0.02   0.02   0.01   0.00   0.00   0.00       0       1
 1999 268    36    33    1.8      0   0.02     12      4      0     17     16      0     0.0  0.000      0      0  0.000  0.000  0.000  0.000    5.72   0.00   0.00      0      0  209.7   0.08   0.08    1.1   1.25   0.10   0.10   0.09   0.03   0.02   0.02   0.01   0.00   0.00   0.00       0       1
 1999 269    37    34    2.0      0   0.03     12      5      0     18     17      0     0.0  0.000      0      0  0.000  0.000  0.000  0.000    5.72   0.00   0.00      0      0  214.1   0.08   0.08    1.1   1.25   0.10   0.10   0.09   0.03   0.03   0.02   0.01   0.00   0.00   0.00       0       1
 1999 270    38    35    2.1      0   0.03     14      5      0     19     19      0     0.0  0.000      0      0  0.000  0.000  0.000  0.000    5.72   0.00   0.00      0      0  212.9   0.09   0.09    1.2   1.25   0.11   0.11   0.10   0.03   0.03   0.02   0.01   0.00   0.00   0.00       0       1
 1999 271    39    36    2.2      0   0.03     15      5      0     20     20      0     0.0  0.000      0      0  0.000  0.000  0.000  0.000    5.72   0.00   0.00      0      0  220.9   0.09   0.09    1.2   1.25   0.11   0.11   0.10   0.03   0.03   0.02   0.01   0.00   0.00   0.00       0       2
 1999 272    40    37    2.3      0   0.03     16      6      0     21     22      0     0.0  0.000      0      0  0.000  0.000  0.000  0.000    5.72   0.00   0.00      0      0  213.9   0.10   0.10    1.2   1.25   0.11   0.11   0.10   0.04   0.03   0.02   0.01   0.00   0.00   0.00       0       2
 1999 273    41    38    2.4      0   0.04     17      6      0     22     23      0     0.0  0.000      0      0  0.000  0.000  0.000  0.000    5.72   0.00   0.00      0      0  211.6   0.10   0.10    1.3   1.25   0.12   0.12   0.11   0.04   0.03   0.02   0.01   0.01   0.00   0.00       0       2
 1999 274    42    39    2.5      0   0.04     18      7      0     23     24      0     0.0  0.000      0      0  0.000  0.000  0.000  0.000    5.72   0.00   0.00      0      0  210.7   0.10   0.10    1.2   1.25   0.12   0.12   0.11   0.04   0.03   0.02   0.02   0.01   0.00   0.00       0       2
 1999 275    43    40    2.5      0   0.04     19      7      0     24     26      0     0.0  0.000      0      0  0.000  0.000  0.000  0.000    5.72   0.00   0.00      0      0  205.5   0.10   0.10    1.2   1.25   0.12   0.13   0.12   0.04   0.04   0.03   0.02   0.01   0.00   0.00       0       2
 1999 276    44    41    2.6      0   0.04     19      8      0     25     27      0     0.0  0.000      0      0  0.000  0.000  0.000  0.000    5.72   0.00   0.00      0      0  201.5   0.11   0.10    1.2   1.25   0.13   0.13   0.12   0.04   0.04   0.03   0.02   0.01   0.00   0.00       0       2
 1999 277    45    42    2.6      0   0.04     20      8      0     26     28      0     0.0  0.000      0      0  0.000  0.000  0.000  0.000    5.72   0.00   0.00      0      0  198.2   0.11   0.10    1.2   1.25   0.13   0.13   0.12   0.04   0.04   0.03   0.02   0.01   0.00   0.00       0       2
 1999 278    46    43    2.7      0   0.04     21      8      0     26     29      0     0.0  0.000      0      0  0.000  0.000  0.000  0.000    5.72   0.00   0.00      0      0  198.6   0.11   0.11    1.2   1.25   0.14   0.14   0.13   0.05   0.04   0.03   0.02   0.01   0.00   0.00       0       2
 1999 279    47    44    2.8      0   0.04     22      9      0     28     31      0     0.0  0.000      0      0  0.000  0.000  0.000  0.000    5.72   0.00   0.00      0      0  202.3   0.11   0.11    1.3   1.25   0.14   0.14   0.13   0.05   0.04   0.03   0.02   0.01   0.00   0.00       0       2
 1999 280    48    45    2.9      0   0.05     23      9      0     28     32      0     0.0  0.000      0      0  0.000  0.000  0.000  0.000    5.72   0.00   0.00      0      0  206.4   0.11   0.11    1.3   1.25   0.14   0.15   0.14   0.05   0.04   0.03   0.02   0.01   0.00   0.00       0       2
 1999 281    49    46    3.0      0   0.05     24     10      0     30     34      0     0.0  0.000      0      0  0.000  0.000  0.000  0.000    5.72   0.00   0.00      0      0  208.5   0.12   0.12    1.3   1.25   0.15   0.15   0.14   0.05   0.05   0.03   0.02   0.01   0.00   0.00       0       2
 1999 282    50    47    3.1      0   0.05     26     11      0     31     37      0     0.0  0.000      0      0  0.000  0.000  0.000  0.000    5.72   0.00   0.00      0      0  206.7   0.12   0.12    1.4   1.25   0.16   0.16   0.15   0.05   0.05   0.04   0.02   0.01   0.00   0.00       0       2
 1999 283    51    48    3.3      0   0.06     28     12      0     34     40      0     0.0  0.000      0      0  0.000  0.000  0.000  0.000    5.72   0.00   0.00      0      0  204.6   0.13   0.12    1.4   1.25   0.17   0.17   0.16   0.06   0.05   0.04   0.03   0.01   0.00   0.00       0       3
 1999 284    52    49    3.4      0   0.06     31     14      0     37     45      0     0.0  0.000      0      0  0.000  0.000  0.000  0.000    5.72   0.00   0.00      0      0  204.7   0.13   0.13    1.6   1.25   0.18   0.18   0.17   0.07   0.06   0.04   0.03   0.01   0.00   0.00       0       3
 1999 285    53    50    3.5      0   0.07     32     15      0     38     47      0     0.0  0.000      0      0  0.000  0.000  0.000  0.037    5.72   0.00   0.00      0      0  210.6   0.14   0.13    1.6   1.25   0.18   0.19   0.17   0.07   0.06   0.05   0.03   0.01   0.00   0.00       0       3
 1999 286    54    51    3.7      0   0.07     33     16      0     39     49      0     0.0  0.000      0      0  0.000  0.000  0.000  0.037    5.72   0.00   0.00      0      0  217.6   0.14   0.14    1.6   1.25   0.19   0.19   0.18   0.07   0.06   0.05   0.03   0.01   0.00   0.00       0       3
 1999 287    55    52    3.8      0   0.08     35     16      0     40     51      0     0.0  0.000      0      0  0.000  0.000  0.000  0.000    5.72   0.00   0.00      0      0  218.7   0.15   0.14    1.6   1.25   0.19   0.19   0.18   0.07   0.06   0.05   0.03   0.02   0.00   0.00       0       3
 1999 288    56    53    4.0      0   0.08     36     19      0     42     55      0     0.0  0.000      0      0  0.000  0.000  0.000  0.000    5.72   0.00   0.00      0      0  225.4   0.15   0.15    1.7   1.25   0.21   0.20   0.19   0.08   0.07   0.05   0.04   0.02   0.00   0.00       0       4
 1999 289    57    54    4.1      0   0.09     40     22      0     46     61      0     0.0  0.000      0      0  0.000  0.000  0.000  0.000    5.72   0.00   0.00      0      0  224.4   0.16   0.15    1.9   1.25   0.22   0.22   0.21   0.08   0.07   0.06   0.04   0.02   0.00   0.00       0       4
 1999 290    58    55    4.3      0   0.10     43     26      0     52     69      0     0.0  0.000      0      0  0.000  0.000  0.000  0.000    5.72   0.00   0.00      0      0  223.4   0.16   0.15    2.1   1.25   0.25   0.25   0.24   0.09   0.08   0.07   0.04   0.02   0.00   0.00       0       4
 1999 291    59    56    4.5      0   0.11     47     32      0     58     79      0     0.0  0.000      0      0  0.000  0.000  0.000  0.000    5.72   0.00   0.00      0      0  225.3   0.17   0.15    2.4   1.25   0.27   0.27   0.26   0.11   0.09   0.07   0.05   0.02   0.00   0.00       0       4
 1999 292    60    57    4.6      0   0.11     51     38      0     65     89      0     0.0  0.000      0      0  0.000  0.000  0.000  0.000    5.72   0.00   0.00      0      0  224.5   0.18   0.15    2.7   1.25   0.30   0.30   0.29   0.12   0.11   0.08   0.06   0.03   0.00   0.00       0       5
 1999 293    61    58    4.8      0   0.12     55     45      0     73    100      0     0.0  0.000      0      0  0.000  0.000  0.000  0.000    5.73   0.00   0.00      0      0  226.2   0.19   0.15    3.2   1.25   0.34   0.34   0.33   0.13   0.12   0.09   0.07   0.03   0.00   0.00       0       5
 1999 294    62    59    5.0      0   0.14     62     50      0     77    112      0     0.0  0.000      0      0  0.000  0.000  0.000  0.000    5.73   0.00   0.00      0      0  231.9   0.20   0.15    3.4   1.25   0.36   0.36   0.35   0.14   0.13   0.10   0.07   0.03   0.00   0.00       0       6
 1999 295    63    60    5.2      0   0.16     69     55      0     82    125      0     0.0  0.000      0      0  0.000  0.000  0.000  0.000    5.72   0.00   0.00      0      0  234.0   0.21   0.15    3.7   1.25   0.38   0.38   0.37   0.15   0.13   0.11   0.08   0.04   0.00   0.00       0       6
 1999 296    64    61    5.4      0   0.18     76     61      0     87    137      0     0.0  0.000      0      0  0.000  0.000  0.000  0.000    5.72   0.00   0.00      0      0  237.8   0.21   0.15    3.9   1.25   0.40   0.40   0.39   0.16   0.14   0.11   0.08   0.04   0.00   0.00       0       6
 1999 297    65    62    5.5      0   0.20     83     66      0     92    150      0     0.0  0.000      0      0  0.000  0.000  0.000  0.000    5.72   0.00   0.00      0      0  243.3   0.22   0.15    4.2   1.25   0.42   0.42   0.41   0.17   0.15   0.12   0.08   0.04   0.00   0.00       0       7
 1999 298    66    63    5.7      0   0.23     92     73      0     98    165      0     0.0  0.000      0      0  0.000  0.000  0.000  0.000    5.72   0.00   0.00      0      0  251.7   0.23   0.15    4.5   1.25   0.44   0.44   0.43   0.18   0.16   0.13   0.09   0.05   0.00   0.00       0       7
 1999 299    67    64    5.9      0   0.26    105     83      0    107    189      0     0.0  0.000      0      0  0.000  0.000  0.000  0.000    5.72   0.00   0.00      0      0  250.5   0.23   0.15    4.9   1.25   0.48   0.48   0.47   0.20   0.18   0.14   0.10   0.05   0.00   0.00       0       8
 1999 300    68    65    6.1      0   0.31    121     96      0    117    216      0     0.0  0.000      0      0  0.000  0.000  0.000  0.000    5.72   0.00   0.00      0      0  253.6   0.24   0.15    5.4   1.25   0.53   0.53   0.52   0.22   0.19   0.16   0.11   0.06   0.00   0.00       0       9
 1999 301    69    66    6.3      0   0.35    136    109      0    128    245      0     0.0  0.000      0      0  0.000  0.000  0.000  0.000    5.72   0.00   0.00      0      0  260.6   0.26   0.15    6.0   1.25   0.57   0.57   0.56   0.24   0.21   0.17   0.12   0.06   0.00   0.00       0      10
 1999 302    70    67    6.6      0   0.41    155    126      0    141    281      0     0.0  0.000      0      0  0.000  0.000  0.000  0.000    5.72   0.00   0.00      0      0  266.2   0.27   0.15    6.7   1.25   0.63   0.63   0.62   0.26   0.23   0.19   0.13   0.07   0.00   0.00       0      10
 1999 303    71    68    6.8      0   0.47    171    140      0    152    310      0     0.0  0.000      0      0  0.000  0.000  0.000  0.000    5.72   0.00   0.00      0      0  277.7   0.28   0.15    7.2   1.25   0.68   0.68   0.67   0.28   0.25   0.20   0.15   0.07   0.00   0.00       0      11
 1999 304    72    69    7.0      0   0.54    193    160      0    167    353      0     0.0  0.000      0      0  0.000  0.000  0.000  0.000    5.72   0.00   0.00      0      0  282.4   0.29   0.15    8.0   1.25   0.74   0.74   0.73   0.31   0.28   0.22   0.16   0.08   0.00   0.00       0      12
 1999 305    73    70    7.2      0   0.61    208    174      0    177    382      0     0.0  0.000      0      0  0.000  0.000  0.000  0.000    5.72   0.00   0.00      0      0  293.8   0.30   0.15    8.6   1.25   0.79   0.79   0.78   0.33   0.29   0.24   0.17   0.09   0.00   0.00       0      13
 1999 306    74    71    7.4      1   0.69    237    203      0    198    439      0     0.0  0.000      0      0  0.000  0.000  0.000  0.000    5.72   0.00   0.00      0      0  291.5   0.31   0.15    9.6   1.25   0.88   0.88   0.87   0.37   0.33   0.27   0.19   0.10   0.00   0.00       0      15
 1999 307    75    72    7.6      1   0.76    266    232      0    219    498      0     0.0  0.000      0      0  0.000  0.000  0.000  0.000    5.72   0.00   0.00      0      0  287.3   0.32   0.15   10.7   1.25   0.97   0.97   0.96   0.41   0.36   0.30   0.21   0.11   0.00   0.00       0      16
 1999 308    76    73    7.7      1   0.79    277    243      0    226    520      0     0.0  0.000      0      0  0.000  0.000  0.000  0.000    5.72   0.00   0.00      0      0  286.4   0.33   0.15   10.9   1.25   1.00   1.00   0.99   0.42   0.38   0.31   0.22   0.11   0.00   0.00       0      17
 1999 309    77    74    7.9      1   0.85    308    276      0    248    585      0     0.0  0.000      0      0  0.000  0.000  0.000  0.000    5.71   0.00   0.00      0      0  275.0   0.33   0.15   11.9   1.25   1.10   1.10   1.09   0.46   0.41   0.34   0.24   0.12   0.00   0.00       0      18
 1999 310    78    75    8.0      1   0.92    348    319      0    277    667      0     0.0  0.000      0      0  0.000  0.000  0.000  0.000    5.70   0.00   0.00      0      0  265.2   0.34   0.15   13.3   1.25   1.22   1.22   1.21   0.51   0.46   0.38   0.27   0.14   0.00   0.00       1      19
 1999 311    79    76    8.2      1   0.98    372    345      0    293    717      0     0.0  0.000      0      0  0.000  0.000  0.000  0.000    5.70   0.00   0.00      0      0  264.0   0.35   0.15   14.1   1.25   1.29   1.29   1.28   0.54   0.49   0.40   0.29   0.15   0.00   0.00       1      20
 1999 312    80    77    8.3      1   1.02    399    376      0    313    775      0     0.0  0.000      0      0  0.000  0.000  0.000  0.000    5.70   0.00   0.00      0      0  254.7   0.35   0.15   15.0   1.25   1.38   1.37   1.37   0.58   0.52   0.43   0.31   0.16   0.00   0.00       2      21
 1999 313    81    78    8.4      1   1.04    425    405      0    332    830      0     0.0  0.000      0      0  0.000  0.000  0.000  0.000    5.71   0.00   0.00      0      0  245.4   0.36   0.15   15.8   1.25   1.46   1.46   1.45   0.62   0.55   0.45   0.32   0.17   0.00   0.00       3      22
 1999 314    82    79    8.5      1   1.08    454    439      0    353    893      0     0.0  0.000      0      0  0.000  0.000  0.000  0.000    5.71   0.00   0.00      0      0  237.2   0.36   0.15   16.7   1.25   1.55   1.55   1.54   0.65   0.59   0.48   0.35   0.18   0.00   0.00       4      23
 1999 315    83    80    8.6      1   1.14    495    488      0    383    984      0     0.0  0.000      0      0  0.000  0.000  0.000  0.000    5.72   0.00   0.00      0      0  230.4   0.36   0.15   18.0   1.25   1.68   1.68   1.67   0.71   0.64   0.52   0.38   0.19   0.00   0.00       6      25
 1999 316    84    81    8.8      1   1.22    542    545      0    416   1087      0     0.0  0.000      0      0  0.000  0.000  0.000  0.000    5.72   0.00   0.00      0      0  225.2   0.37   0.15   19.7   1.25   1.82   1.82   1.81   0.77   0.70   0.57   0.41   0.21   0.00   0.00       9      27
 1999 317    85    82    9.0      1   1.31    588    603      0    450   1192      0     0.0  0.000      0      0  0.000  0.000  0.000  0.000    5.73   0.00   0.00      0      0  223.2   0.38   0.15   21.4   1.25   1.97   1.97   1.96   0.84   0.75   0.61   0.44   0.23   0.00   0.00      14      30
 1999 318    86    83    9.2      1   1.40    634    664      0    485   1298      0     0.0  0.000      0      0  0.000  0.000  0.000  0.000    5.71   0.00   0.00      0      0  220.4   0.39   0.15   23.4   1.25   2.12   2.12   2.11   0.90   0.81   0.66   0.48   0.25   0.00   0.00      20      32
 1999 319    87    84    9.4      1   1.49    685    734      0    522   1420      0     0.0  0.000      0      0  0.000  0.000  0.000  0.000    5.68   0.00   0.00      0      0  217.0   0.40   0.15   27.2   1.25   2.26   2.28   2.28   0.97   0.88   0.72   0.52   0.27   0.00   0.00      24      36
 1999 320    88    85    9.6      1   1.57    740    811      0    563   1551      0     0.0  0.000      0      0  0.000  0.000  0.000  0.000    5.61   0.00   0.00      0      0  212.6   0.41   0.15   31.7   1.25   2.40   2.47   2.46   1.05   0.95   0.77   0.56   0.29   0.00   0.00      28      39
 1999 321    89    86    9.8      3   1.66    793    888      0    602   1680      0     0.0  0.000      0      0  0.000  0.000  0.000  0.000    5.53   0.00   0.00      0      0  209.2   0.42   0.15   37.0   1.25   2.51   2.64   2.63   1.13   1.02   0.83   0.60   0.31   0.00   0.00      32      43
 1999 322    90    87   10.1      3   1.75    846    967      0    641   1816      0     0.0  0.000      2     17  0.000  0.000  0.000  0.000    5.43   0.00   0.00      0      2  206.5   0.43   0.15   43.1   1.25   2.59   2.82   2.81   1.20   1.09   0.89   0.64   0.33   0.00   0.00      36      48
 1999 323    91    88   10.3      3   1.83    893   1041      0    676   1944      0     0.0  0.000      9     50  0.000  0.000  0.000  0.000    5.36   0.00   0.00      0      9  204.7   0.44   0.15   50.2   1.25   2.65   2.99   2.98   1.27   1.15   0.94   0.68   0.35   0.00   0.00      41      53
 1999 324    92    89   10.5      3   1.91    939   1115      0    710   2073      0     0.0  0.000     19     70  0.000  0.000  0.000  0.000    5.30   0.00   0.01      0     19  203.0   0.46   0.15   58.5   1.25   2.68   3.15   3.14   1.34   1.21   0.99   0.71   0.37   0.00   0.00      46      58
 1999 325    93    90   10.7      3   1.98    996   1207      0    751   2235      0     0.0  0.000     32     97  0.000  0.000  0.000  0.000    5.21   0.00   0.01      0     32  199.0   0.47   0.15   68.1   1.25   2.71   3.33   3.33   1.43   1.29   1.05   0.76   0.39   0.00   0.00      51      63
 1999 326    94    91   10.9      3   2.04   1052   1299      0    791   2400      0     0.0  0.000     49    128  0.000  0.000  0.000  0.000    5.13   0.00   0.02      0     49  194.2   0.48   0.15   79.3   1.25   2.71   3.49   3.53   1.51   1.37   1.12   0.81   0.42   0.00   0.00      55      68
 1999 327    95    92   11.1      3   2.09   1083   1354      0    813   2506      0     0.0  0.000     69    146  0.000  0.000  0.000  0.000    5.12   0.00   0.03      0     69  193.3   0.48   0.15   79.5   1.25   2.71   3.57   3.63   1.56   1.41   1.15   0.83   0.43   0.00   0.00      60      74
 1999 328    96    93   11.3      3   2.15   1127   1432      0    844   2650      0     0.0  0.000     91    161  0.000  0.000  0.000  0.000    5.08   0.00   0.03      0     91  190.7   0.49   0.15   90.2   1.25   2.70   3.68   3.77   1.64   1.48   1.21   0.87   0.45   0.00   0.00      65      81
 1999 329    97    94   11.5      3   2.20   1172   1512      0    875   2798      0     0.0  0.000    114    185  0.000  0.000  0.000  0.000    5.08   0.00   0.04      0    114  187.7   0.50   0.15   90.3   1.25   2.86   3.83   3.87   1.70   1.53   1.26   0.91   0.47   0.00   0.00      70      87
 1999 330    98    95   11.7      3   2.23   1188   1547      0    887   2879      0     0.0  0.000    144    214  0.000  0.000  0.000  0.000    5.05   0.00   0.05      0    144  188.0   0.51   0.15   90.4   1.25   2.92   3.89   3.91   1.73   1.56   1.27   0.92   0.47   0.00   0.00      75      92
 1999 331    99    96   11.9      3   2.28   1229   1625      0    916   3031      0     0.0  0.000    177    246  0.000  0.000  0.000  0.000    5.03   0.00   0.06      0    177  185.3   0.52   0.15   92.9   1.25   3.07   4.03   4.01   1.79   1.61   1.32   0.95   0.49   0.00   0.00      80      99
 1999 332   100    97   12.1      3   2.32   1275   1714      0    949   3204      0     0.0  0.000    215    291  0.000  0.000  0.000  0.000    4.99   0.00   0.07      0    215  181.7   0.53   0.15  106.3   1.25   3.23   4.18   4.12   1.85   1.67   1.37   0.99   0.51   0.00   0.00      86     106
 1999 333   101    98   12.3      3   2.35   1316   1798      0    978   3372      0     0.0  0.000    258    332  0.000  0.000  0.000  0.000    4.97   0.00   0.08      0    258  178.7   0.54   0.15  110.9   1.25   3.30   4.33   4.22   1.92   1.73   1.41   1.02   0.53   0.00   0.00      92     114
 1999 334   102    99   12.5      3   2.35   1343   1861      0   1043   3510      0     0.0  0.000    306    383  0.000  0.314  0.000  0.000    4.93   0.00   0.09      0    306  175.3   0.55   0.15  111.5   1.25   3.36   4.61   4.43   2.08   1.87   1.53   1.11   0.57   0.00   0.00      98     126
 1999 335   103   100   12.8      3   2.38   1363   1910      0   1054   3637      0     0.0  0.000    364    444  0.000  0.000  0.000  0.000    4.90   0.00   0.10      0    364  174.4   0.56   0.15  111.6   1.25   3.28   4.65   4.45   2.11   1.91   1.56   1.13   0.58   0.00   0.00     105     138
 1999 336   104   101   13.0      3   2.37   1362   1922      0   1049   3715      0     0.0  0.000    431    498  0.000  0.000  0.000  0.000    4.86   0.00   0.12      0    431  174.0   0.58   0.15  111.7   1.25   3.28   4.64   4.40   2.11   1.90   1.56   1.12   0.58   0.00   0.00     110     145
 1999 337   105   102   13.1      3   2.38   1384   1975      0   1063   3859      0     0.0  0.000    500    523  0.000  0.000  0.000  0.000    4.84   0.00   0.13      0    500  172.1   0.58   0.15  111.8   1.25   3.37   4.72   4.41   2.14   1.93   1.58   1.14   0.59   0.00   0.00     116     153
 1999 338   106   103   13.4      3   2.40   1416   2048      0   1083   4038      0     0.0  0.000    574    565  0.000  0.000  0.000  0.000    4.82   0.00   0.14      0    574  169.4   0.59   0.15  112.8   1.25   3.49   4.83   4.44   2.19   1.98   1.62   1.17   0.60   0.00   0.00     122     163
 1999 339   107   104   13.5      3   2.40   1419   2063      0   1083   4131      0     0.0  0.000    649    628  0.000  0.000  0.000  0.000    4.80   0.00   0.16      0    649  168.8   0.60   0.15  113.2   1.25   3.51   4.85   4.41   2.20   1.98   1.62   1.17   0.60   0.00   0.00     126     169
 1999 340   108   105   13.6      3   2.40   1444   2121      0   1099   4280      0     0.0  0.000    715    649  0.000  0.000  0.000  0.000    4.79   0.00   0.17      0    715  166.1   0.61   0.15  115.1   1.25   3.55   4.94   4.43   2.24   2.02   1.65   1.19   0.62   0.00   0.00     130     175
 1999 341   109   106   13.8      3   2.40   1462   2165      0   1108   4410      0     0.0  0.000    783    667  0.000  0.000  0.000  0.000    4.77   0.00   0.18      0    783  164.2   0.61   0.15  116.7   1.25   3.48   5.01   4.43   2.27   2.05   1.68   1.21   0.63   0.00   0.00     133     183
 1999 342   110   107   13.9      5   2.39   1477   2212      0   1158   4548      0     0.0  0.000    858    681  0.085  0.390  0.000  0.000    4.73   0.00   0.19      0    858  162.0   0.62   0.15  117.0   1.25   3.41   5.22   4.54   2.40   2.18   1.78   1.29   0.67   0.00   0.00     139     196
 1999 343   111   108   14.0      5   2.38   1485   2254      0   1194   4658     20     0.0  0.000    919    701  0.204  0.469  0.000  0.000    4.68   0.00   0.20      0    919  160.1   0.62   0.15  116.1   1.25   3.34   5.33   4.60   2.49   2.29   1.87   1.35   0.70   0.00   0.00     164     211
 1999 344   112   109   14.1      5   2.36   1480   2280      1   1183   4724     57     2.4  0.000    964    723  0.449  0.633  0.000  0.000    4.61   0.14   0.20      0    964  159.3   0.62   0.15  112.2   1.25   3.26   5.26   4.53   2.47   2.28   1.87   1.35   0.70   0.00   0.00     212     230
 1999 345   113   110   14.2      5   2.34   1473   2297      5   1168   4798     79     6.8  0.001   1027    748  0.406  0.604  0.000  0.000    4.56   0.52   0.21      0   1027  158.7   0.62   0.15  109.0   1.25   3.19   5.18   4.45   2.45   2.26   1.86   1.34   0.69   0.00   0.00     245     250
 1999 346   114   111   14.3      5   2.31   1461   2293     11   1169   4844    108    10.3  0.002   1090    770  0.029  0.353  0.000  0.000    4.53   1.02   0.23      0   1090  158.4   0.63   0.15  108.2   1.25   3.28   5.12   4.40   2.45   2.28   1.88   1.36   0.70   0.00   0.00     296     266
 1999 347   115   112   14.5      5   2.28   1445   2304     19   1164   4901    142    13.4  0.004   1153    794  0.000  0.000  0.000  0.000    4.49   1.65   0.24      0   1153  157.5   0.63   0.15  109.9   1.25   3.31   5.11   4.34   2.43   2.27   1.88   1.36   0.70   0.00   0.00     369     278
 1999 348   116   113   14.7      5   2.21   1423   2346     29   1166   5004    162    18.0  0.006   1235    828  0.000  0.000  0.023  0.000    4.43   2.36   0.25      0   1235  155.0   0.64   0.15  127.3   1.25   3.33   5.14   4.28   2.43   2.28   1.90   1.37   0.71   0.00   0.00     458     291
 1999 349   117   114   14.8      5   2.13   1382   2348     41   1150   5036    178    22.8  0.008   1305    875  0.410  0.607  0.000  0.000    4.37   3.10   0.26      0   1305  154.4   0.65   0.15  123.4   1.25   3.25   5.07   4.20   2.40   2.25   1.89   1.36   0.70   0.00   0.00     538     312
 1999 350   118   115   14.9      5   2.11   1372   2356     53   1134   5080    206    25.6  0.010   1353    901  0.516  0.678  0.000  0.000    4.31   3.89   0.27      0   1353  154.0   0.65   0.15  118.8   1.25   3.18   5.00   4.12   2.36   2.22   1.87   1.35   0.70   0.00   0.00     578     333
 1999 351   119   116   15.0      5   2.09   1357   2338     67   1116   5081    238    28.1  0.013   1386    914  0.658  0.772  0.000  0.000    4.27   4.83   0.27      0   1386  154.3   0.65   0.15  112.7   1.25   3.11   4.92   4.04   2.33   2.19   1.85   1.34   0.69   0.00   0.00     620     356
 1999 352   120   117   15.0      5   2.07   1340   2314     83   1098   5066    275    30.1  0.016   1411    917  0.650  0.767  0.000  0.000    4.23   5.86   0.28      0   1411  154.7   0.65   0.15  104.8   1.25   3.04   4.83   3.95   2.29   2.16   1.83   1.33   0.69   0.00   0.00     666     381
 1999 353   121   118   15.1      5   2.00   1291   2271    103   1079   4981    326    31.5  0.021   1419    911  0.703  0.802  0.000  0.000    4.19   7.23   0.28      0   1419  155.2   0.65   0.15   97.5   1.25   2.96   4.74   3.87   2.25   2.13   1.81   1.32   0.68   0.00   0.00     777     406
 1999 354   122   119   15.1      5   1.92   1236   2226    124   1062   4891    373    33.3  0.025   1429    906  0.728  0.819  0.000  0.000    4.15   8.70   0.29      0   1429  155.7   0.65   0.15   90.7   1.25   2.90   4.65   3.79   2.22   2.10   1.79   1.31   0.68   0.00   0.00     894     429
 1999 355   123   120   15.1      5   1.83   1171   2175    150   1043   4774    433    34.7  0.031   1428    890  0.651  0.768  0.000  0.000    4.11  10.50   0.30      0   1428  156.2   0.65   0.15   84.3   1.25   2.84   4.56   3.71   2.18   2.07   1.77   1.30   0.67   0.00   0.00    1037     452
 1999 356   124   121   15.2      5   1.74   1112   2127    181   1025   4645    504    36.0  0.039   1406    876  0.765  0.843  0.000  0.000    4.07  12.89   0.30      0   1406  156.6   0.65   0.15   78.4   1.25   2.77   4.47   3.63   2.14   2.04   1.75   1.29   0.67   0.00   0.00    1184     475
 1999 357   125   122   15.2      5   1.65   1052   2082    212   1009   4524    566    37.5  0.047   1391    857  0.763  0.842  0.000  0.000    4.03  15.26   0.31      0   1391  157.0   0.65   0.15   72.9   1.25   2.72   4.39   3.56   2.11   2.01   1.73   1.28   0.66   0.00   0.00    1325     496
 1999 358   126   123   15.2      5   1.57    994   2035    249    991   4425    595    41.8  0.056   1396    851  0.771  0.848  0.000  0.000    3.99  17.81   0.32      0   1396  157.5   0.65   0.15   67.8   1.25   2.65   4.30   3.48   2.07   1.98   1.71   1.27   0.66   0.00   0.00    1431     518
 1999 359   127   124   15.2      5   1.50    947   1995    270    972   4308    645    41.9  0.063   1366    835  0.823  0.882  0.000  0.000    3.97  19.76   0.32      0   1366  158.0   0.65   0.15   63.1   1.25   2.59   4.20   3.40   2.03   1.95   1.68   1.26   0.65   0.00   0.00    1543     541
 1999 360   128   125   15.3      5   1.42    897   1955    285    954   4161    717    39.8  0.069   1309    806  0.775  0.850  0.000  0.000    3.96  21.77   0.31      0   1309  158.5   0.65   0.15   58.7   1.25   2.53   4.11   3.32   1.99   1.91   1.66   1.24   0.65   0.00   0.00    1683     563
 1999 361   129   126   15.3      5   1.35    849   1916    298    935   4062    741    40.3  0.073   1297    796  0.776  0.850  0.000  0.000    3.95  23.01   0.32      0   1297  159.0   0.65   0.15   54.6   1.25   2.47   4.01   3.24   1.95   1.88   1.63   1.23   0.64   0.00   0.00    1773     586
 1999 362   130   127   15.3      5   1.27    796   1872    354    917   3982    781    45.3  0.089   1314    782  0.324  0.549  0.000  0.000    3.87  26.93   0.33      0   1314  159.5   0.65   0.15   52.8   1.25   2.42   3.92   3.17   1.92   1.84   1.61   1.21   0.64   0.00   0.00    1874     604
 1999 363   131   128   15.3      5   1.19    743   1830    403    900   3909    815    49.4  0.103   1335    770  0.571  0.714  0.000  0.000    3.80  30.18   0.34      0   1335  160.0   0.65   0.15   49.1   1.25   2.36   3.84   3.10   1.88   1.81   1.59   1.20   0.63   0.00   0.00    1964     624
 1999 364   132   129   15.3      5   1.12    696   1791    453    883   3840    863    52.4  0.118   1353    753  0.346  0.564  0.000  0.000    3.73  33.46   0.35      0   1353  160.5   0.65   0.15   45.7   1.25   2.31   3.75   3.03   1.84   1.78   1.56   1.19   0.63   0.00   0.00    2050     644
 1999 365   133   130   15.3      5   1.06    657   1757    476    866   3770    909    52.3  0.126   1356    739  0.819  0.880  0.000  0.000    3.69  35.08   0.36      0   1356  161.0   0.65   0.15   42.5   1.25   2.26   3.67   2.96   1.81   1.75   1.54   1.17   0.62   0.00   0.00    2121     663
 2000 001   134   131   15.3      5   1.05    649   1742    496    850   3753    942    52.6  0.132   1361    718  0.837  0.891  0.000  0.000    3.67  36.41   0.36      0   1361  161.5   0.65   0.15   39.5   1.25   2.21   3.59   2.90   1.77   1.72   1.51   1.16   0.62   0.00   0.00    2138     682
 2000 002   135   132   15.3      5   1.04    643   1729    515    834   3741    958    53.7  0.138   1369    685  0.827  0.885  0.000  0.000    3.64  37.60   0.37      0   1369  162.0   0.65   0.15   36.7   1.25   2.16   3.51   2.84   1.74   1.69   1.49   1.14   0.62   0.00   0.00    2149     700
 2000 003   136   133   15.3      5   1.04    638   1716    531    818   3732    967    54.9  0.142   1378    647  0.853  0.902  0.000  0.000    3.62  38.51   0.37      0   1378  162.5   0.65   0.15   34.2   1.25   2.11   3.43   2.77   1.70   1.66   1.47   1.13   0.61   0.00   0.00    2156     718
 2000 004   137   134   15.3      5   1.03    633   1703    547    803   3728    967    56.6  0.147   1392    592  0.838  0.892  0.000  0.000    3.60  39.32   0.37      0   1392  163.0   0.65   0.15   31.8   1.25   2.07   3.36   2.71   1.67   1.62   1.44   1.12   0.61   0.00   0.00    2159     736
 2000 005   138   135   15.3      5   1.03    629   1691    558    787   3720    967    57.7  0.150   1401    554  0.855  0.904  0.000  0.000    3.59  39.81   0.38      0   1401  163.5   0.65   0.15   29.5   1.25   2.02   3.28   2.65   1.64   1.59   1.42   1.10   0.60   0.00   0.00    2160     754
 2000 006   139   136   15.3      5   1.03    625   1680    565    772   3712    967    58.4  0.152   1407    527  0.873  0.915  0.000  0.000    3.58  40.14   0.38      0   1407  164.0   0.65   0.15   27.5   1.25   1.98   3.21   2.59   1.60   1.56   1.39   1.08   0.60   0.00   0.00    2161     771
 2000 007   140   137   15.3      5   1.02    623   1669    566    756   3700    967    58.6  0.153   1408    509  0.885  0.923  0.000  0.000    3.59  40.22   0.38      0   1408  164.5   0.65   0.15   25.6   1.25   1.93   3.13   2.53   1.57   1.53   1.37   1.07   0.59   0.00   0.00    2162     789
 2000 008   141   138   15.3      5   1.02    621   1659    566    741   3688    967    58.6  0.154   1408    493  0.900  0.933  0.000  0.000    3.60  40.22   0.38      0   1408  165.0   0.65   0.15   23.8   1.25   1.88   3.06   2.47   1.53   1.50   1.34   1.05   0.59   0.00   0.00    2162     805
 2000 009   142   139   15.3      5   1.02    619   1650    566    725   3677    967    58.6  0.154   1408    479  0.854  0.903  0.000  0.000    3.61  40.23   0.38      0   1408  165.4   0.65   0.15   22.1   1.25   1.84   2.99   2.41   1.50   1.47   1.32   1.04   0.58   0.00   0.00    2162     822
 2000 010   143   140   15.3      5   1.02    617   1640    569    710   3666    967    58.9  0.155   1410    471  0.865  0.910  0.000  0.000    3.62  40.36   0.38      0   1410  165.9   0.65   0.15   20.6   1.25   1.80   2.92   2.36   1.46   1.43   1.29   1.02   0.57   0.00   0.00    2162     839
 2000 011   144   141   15.3      5   1.02    615   1630    569    696   3655    967    58.9  0.156   1410    457  0.900  0.933  0.000  0.000    3.63  40.36   0.39      0   1410  166.4   0.65   0.15   19.1   1.25   1.76   2.85   2.30   1.43   1.40   1.27   1.00   0.57   0.00   0.00    2162     855
 2000 012   145   142   15.3      7   1.02    613   1622    569    681   3645    967    58.9  0.156   1410    444  0.883  0.922  0.000  0.000    3.64  40.36   0.39      0   1410  166.9   0.65   0.15   17.8   1.25   1.71   2.78   2.25   1.40   1.37   1.24   0.99   0.56   0.00   0.00    2162     871
 2000 013   146   143   15.3      7   0.82    489   1542    569    668   3441    967    58.9  0.165   1410    439  0.911  0.941  0.000  0.000    3.65  40.37   0.41      0   1410  167.4   0.65   0.15   16.5   1.25   1.70   2.72   2.20   1.37   1.34   1.22   0.97   0.56   0.00   0.00    2356     886
 2000 014   147   144   15.3      7   0.65    387   1475    602    656   3298    967    62.2  0.182   1437    439  0.280  0.520  0.000  0.000    3.56  41.86   0.44      0   1437  167.9   0.65   0.15   15.4   1.25   1.68   2.70   2.15   1.34   1.32   1.20   0.96   0.55   0.00   0.00    2510     898
 2000 015   148   145   15.3      7   0.51    306   1419    657    644   3211    967    67.9  0.205   1486    439  0.000  0.000  0.000  0.000    3.45  44.18   0.46      0   1486  168.4   0.65   0.15   14.3   1.25   1.67   2.67   2.10   1.31   1.29   1.17   0.94   0.55   0.00   0.00    2633     911
 2000 016   149   146   15.3      7   0.41    242   1374    700    632   3139    967    72.4  0.223   1524    439  0.000  0.000  0.000  0.000    3.34  45.91   0.49      0   1524  168.9   0.66   0.15   13.3   1.25   1.66   2.65   2.05   1.28   1.26   1.15   0.93   0.54   0.00   0.00    2729     924
 2000 017   150   147   15.3      7   0.32    192   1338    719    621   3069    967    74.4  0.234   1540    439  0.000  0.000  0.000  0.000    3.27  46.72   0.50      0   1540  169.4   0.66   0.15   12.4   1.25   1.64   2.63   2.01   1.25   1.23   1.13   0.91   0.53   0.00   0.00    2805     935
 2000 018   151   148   15.3      7   0.26    152   1308    753    610   3028    967    77.9  0.249   1568    439  0.000  0.000  0.000  0.000    3.18  48.00   0.52      0   1568  169.8   0.66   0.15   12.4   1.25   1.63   2.61   1.97   1.22   1.21   1.10   0.90   0.53   0.00   0.00    2866     945
 2000 019   152   149   15.3      7   0.20    120   1283    778    600   2993    967    80.5  0.260   1590    439  0.000  0.000  0.000  0.000    3.09  48.97   0.53      0   1590  170.2   0.66   0.15   11.5   1.25   1.62   2.59   1.94   1.19   1.18   1.08   0.88   0.52   0.00   0.00    2914     956
 2000 020   153   150   15.3      7   0.16     95   1263    796    590   2961    967    82.3  0.269   1603    439  0.000  0.000  0.000  0.000    3.02  49.63   0.54      0   1603  170.6   0.66   0.15   10.7   1.25   1.60   2.57   1.90   1.16   1.16   1.06   0.87   0.52   0.00   0.00    2952     967
 2000 021   154   151   15.3      7   0.13     76   1247    802    580   2931    967    82.9  0.273   1608    439  0.000  0.000  0.000  0.000    3.00  49.86   0.55      0   1608  171.0   0.66   0.15    9.9   1.25   1.58   2.54   1.86   1.14   1.13   1.04   0.86   0.51   0.00   0.00    2982     978
 2000 022   155   152   15.3      7   0.10     61   1235    802    570   2903    967    82.9  0.276   1608    439  0.000  0.000  0.000  0.000    3.01  49.86   0.55      0   1608  171.4   0.66   0.15    9.3   1.25   1.56   2.52   1.83   1.11   1.11   1.02   0.84   0.51   0.00   0.00    3006     988
 2000 023   156   153   15.3      7   0.08     48   1224    805    561   2883    967    83.3  0.279   1611    439  0.000  0.000  0.000  0.000    2.99  50.01   0.56      0   1611  171.7   0.66   0.15    8.6   1.25   1.53   2.50   1.80   1.09   1.08   1.00   0.83   0.50   0.00   0.00    3025     998
 2000 024   157   154   15.3      8   0.07     39   1216    805    551   2865    967    83.3  0.281   1611    439  0.000  0.000  0.000  0.000    3.00  50.01   0.56      0   1611  172.0   0.66   0.15    8.0   1.25   1.50   2.48   1.77   1.06   1.06   0.98   0.82   0.49   0.00   0.00    3040    1008

*DSSAT Cropping System Model Ver. 4.0.2.000               Aug 23, 2016; 19:17:45

*RUN   2        : UYSB                    
 MODEL          : CRGRO040 - Soybean         
 EXPERIMENT     : UYSB0396 SB    late to create DSS                             
 TREATMENT  1   : UYSB                    

@YEAR DOY   DAS   DAP   L#SD   GSTD   LAID   LWAD   SWAD   GWAD   RWAD   CWAD   G#AD    GWGD   HIAD   PWAD   P#AD   WSPD   WSGD   NSTD   EWSD    LN%D   SH%D   HIPD   PWDD   PWTD   SLAD   CHTD   CWID   NWAD   RDPD   RL1D   RL2D   RL3D   RL4D   RL5D   RL6D   RL7D   RL8D   RL9D   RL10   SNW0C   SNW1C
 2000 235     3     0    0.0      0   0.00      0      0      0      0      0      0     0.0  0.000      0      0  0.000  0.000  0.000  0.000    0.00   0.00   0.00      0      0    0.0   0.00   0.00    0.0   0.00   0.00   0.00   0.00   0.00   0.00   0.00   0.00   0.00   0.00   0.00       0       0
 2000 236     4     1    0.0      0   0.00      0      0      0      0      0      0     0.0  0.000      0      0  0.000  0.000  0.000  0.000    0.00   0.00   0.00      0      0    0.0   0.00   0.00    0.0   0.00   0.00   0.00   0.00   0.00   0.00   0.00   0.00   0.00   0.00   0.00       0       0
 2000 237     5     2    0.0      0   0.00      0      0      0      0      0      0     0.0  0.000      0      0  0.000  0.000  0.000  0.000    0.00   0.00   0.00      0      0    0.0   0.00   0.00    0.0   0.00   0.00   0.00   0.00   0.00   0.00   0.00   0.00   0.00   0.00   0.00       0       0
 2000 238     6     3    0.0      0   0.00      0      0      0      0      0      0     0.0  0.000      0      0  0.000  0.000  0.000  0.000    0.00   0.00   0.00      0      0    0.0   0.00   0.00    0.0   0.00   0.00   0.00   0.00   0.00   0.00   0.00   0.00   0.00   0.00   0.00       0       0
 2000 239     7     4    0.0      0   0.00      0      0      0      0      0      0     0.0  0.000      0      0  0.000  0.000  0.000  0.000    0.00   0.00   0.00      0      0    0.0   0.00   0.00    0.0   0.00   0.00   0.00   0.00   0.00   0.00   0.00   0.00   0.00   0.00   0.00       0       0
 2000 240     8     5    0.0      0   0.00      0      0      0      0      0      0     0.0  0.000      0      0  0.000  0.000  0.000  0.000    0.00   0.00   0.00      0      0    0.0   0.00   0.00    0.0   0.00   0.00   0.00   0.00   0.00   0.00   0.00   0.00   0.00   0.00   0.00       0       0
 2000 241     9     6    0.0      0   0.00      0      0      0      0      0      0     0.0  0.000      0      0  0.000  0.000  0.000  0.000    0.00   0.00   0.00      0      0    0.0   0.00   0.00    0.0   0.00   0.00   0.00   0.00   0.00   0.00   0.00   0.00   0.00   0.00   0.00       0       0
 2000 242    10     7    0.0      0   0.00      0      0      0      0      0      0     0.0  0.000      0      0  0.000  0.000  0.000  0.000    0.00   0.00   0.00      0      0    0.0   0.00   0.00    0.0   0.00   0.00   0.00   0.00   0.00   0.00   0.00   0.00   0.00   0.00   0.00       0       0
 2000 243    11     8    0.0      0   0.00      0      0      0      0      0      0     0.0  0.000      0      0  0.000  0.000  0.000  0.000    0.00   0.00   0.00      0      0    0.0   0.00   0.00    0.0   0.00   0.00   0.00   0.00   0.00   0.00   0.00   0.00   0.00   0.00   0.00       0       0
 2000 244    12     9    0.0      0   0.00      0      0      0      0      0      0     0.0  0.000      0      0  0.000  0.000  0.000  0.000    0.00   0.00   0.00      0      0    0.0   0.00   0.00    0.0   0.00   0.00   0.00   0.00   0.00   0.00   0.00   0.00   0.00   0.00   0.00       0       0
 2000 245    13    10    0.0      0   0.01      3      1      0      4      4      0     0.0  0.000      0      0  0.000  0.000  0.000  0.000    5.70   0.00   0.00      0      0  192.9   0.03   0.03    0.9   0.26   0.04   0.04   0.02   0.00   0.00   0.00   0.00   0.00   0.00   0.00       0       0
 2000 246    14    11    0.0      0   0.01      3      1      0      4      4      0     0.0  0.000      0      0  0.000  0.000  0.000  0.000    5.70   0.00   0.00      0      0  189.6   0.03   0.03    0.9   0.28   0.04   0.04   0.03   0.00   0.00   0.00   0.00   0.00   0.00   0.00       0       0
 2000 247    15    12    0.1      0   0.01      3      1      0      4      4      0     0.0  0.000      0      0  0.000  0.000  0.000  0.000    5.70   0.00   0.00      0      0  186.6   0.03   0.03    0.8   0.31   0.04   0.04   0.03   0.00   0.00   0.00   0.00   0.00   0.00   0.00       0       0
 2000 248    16    13    0.1      0   0.01      3      1      0      4      4      0     0.0  0.000      0      0  0.000  0.000  0.000  0.000    5.70   0.00   0.00      0      0  185.1   0.03   0.03    0.8   0.34   0.04   0.04   0.03   0.00   0.00   0.00   0.00   0.00   0.00   0.00       0       0
 2000 249    17    14    0.1      0   0.01      4      1      0      5      5      0     0.0  0.000      0      0  0.000  0.000  0.000  0.000    5.70   0.00   0.00      0      0  183.9   0.03   0.03    0.8   0.38   0.04   0.04   0.03   0.00   0.00   0.00   0.00   0.00   0.00   0.00       0       0
 2000 250    18    15    0.2      0   0.01      4      1      0      5      5      0     0.0  0.000      0      0  0.000  0.000  0.000  0.000    5.70   0.00   0.00      0      0  183.3   0.03   0.03    0.8   0.42   0.05   0.05   0.04   0.00   0.00   0.00   0.00   0.00   0.00   0.00       0       0
 2000 251    19    16    0.3      0   0.01      4      1      0      6      5      0     0.0  0.000      0      0  0.000  0.000  0.000  0.000    5.70   0.00   0.00      0      0  186.7   0.03   0.03    0.8   0.49   0.05   0.05   0.04   0.00   0.00   0.00   0.00   0.00   0.00   0.00       0       0
 2000 252    20    17    0.4      0   0.01      4      1      0      6      6      0     0.0  0.000      0      0  0.000  0.000  0.000  0.000    5.71   0.00   0.00      0      0  193.0   0.04   0.04    0.8   0.59   0.05   0.06   0.04   0.01   0.00   0.00   0.00   0.00   0.00   0.00       0       0
 2000 253    21    18    0.4      0   0.01      5      1      0      7      6      0     0.0  0.000      0      0  0.000  0.000  0.000  0.000    5.71   0.00   0.00      0      0  201.9   0.04   0.04    0.8   0.67   0.05   0.06   0.04   0.01   0.00   0.00   0.00   0.00   0.00   0.00       0       0
 2000 254    22    19    0.5      0   0.01      5      1      0      7      6      0     0.0  0.000      0      0  0.000  0.000  0.000  0.356    5.71   0.00   0.00      0      0  210.7   0.04   0.04    0.8   0.76   0.06   0.06   0.05   0.01   0.00   0.00   0.00   0.00   0.00   0.00       0       0
 2000 255    23    20    0.6      0   0.01      5      1      0      8      6      0     0.0  0.000      0      0  0.000  0.000  0.000  0.000    5.71   0.00   0.00      0      0  215.4   0.04   0.04    0.8   0.83   0.06   0.06   0.05   0.01   0.00   0.00   0.00   0.00   0.00   0.00       0       1
 2000 256    24    21    0.6      0   0.01      5      2      0      8      7      0     0.0  0.000      0      0  0.000  0.000  0.000  0.000    5.71   0.00   0.00      0      0  213.8   0.05   0.05    0.8   0.86   0.06   0.06   0.05   0.01   0.01   0.00   0.00   0.00   0.00   0.00       0       1
 2000 257    25    22    0.7      0   0.01      5      2      0      8      7      0     0.0  0.000      0      0  0.000  0.000  0.000  0.000    5.71   0.00   0.00      0      0  213.5   0.05   0.05    0.7   0.87   0.06   0.06   0.05   0.01   0.01   0.00   0.00   0.00   0.00   0.00       0       1
 2000 258    26    23    0.7      0   0.01      5      2      0      8      7      0     0.0  0.000      0      0  0.000  0.000  0.000  0.098    5.71   0.00   0.00      0      0  212.8   0.05   0.05    0.7   0.88   0.06   0.06   0.05   0.01   0.01   0.00   0.00   0.00   0.00   0.00       0       1
 2000 259    27    24    0.7      0   0.01      5      2      0      8      7      0     0.0  0.000      0      0  0.000  0.000  0.000  0.000    5.71   0.00   0.00      0      0  212.2   0.05   0.05    0.7   0.92   0.06   0.06   0.05   0.01   0.01   0.00   0.00   0.00   0.00   0.00       0       1
 2000 260    28    25    0.8      0   0.01      6      2      0      9      7      0     0.0  0.000      0      0  0.000  0.000  0.000  0.000    5.72   0.00   0.00      0      0  211.0   0.05   0.05    0.7   0.97   0.07   0.06   0.06   0.01   0.01   0.00   0.00   0.00   0.00   0.00       0       1
 2000 261    29    26    0.8      0   0.01      6      2      0      9      8      0     0.0  0.000      0      0  0.000  0.000  0.000  0.000    5.72   0.00   0.00      0      0  210.6   0.05   0.05    0.7   1.01   0.07   0.07   0.06   0.01   0.01   0.00   0.00   0.00   0.00   0.00       0       1
 2000 262    30    27    0.9      0   0.01      6      2      0     10      8      0     0.0  0.000      0      0  0.000  0.000  0.000  0.006    5.72   0.00   0.00      0      0  215.1   0.05   0.05    0.7   1.08   0.07   0.07   0.06   0.01   0.01   0.00   0.00   0.00   0.00   0.00       0       1
 2000 263    31    28    1.0      0   0.01      6      2      0     10      8      0     0.0  0.000      0      0  0.000  0.000  0.000  0.094    5.72   0.00   0.00      0      0  218.7   0.05   0.05    0.7   1.16   0.07   0.07   0.06   0.02   0.01   0.01   0.00   0.00   0.00   0.00       0       1
 2000 264    32    29    1.1      0   0.02      7      2      0     11      9      0     0.0  0.000      0      0  0.000  0.000  0.000  0.051    5.72   0.00   0.00      0      0  229.9   0.06   0.06    0.7   1.24   0.07   0.07   0.06   0.02   0.01   0.01   0.00   0.00   0.00   0.00       0       1
 2000 265    33    30    1.2      0   0.02      7      2      0     11     10      0     0.0  0.000      0      0  0.000  0.000  0.000  0.000    5.72   0.00   0.00      0      0  233.3   0.06   0.06    0.7   1.25   0.08   0.07   0.06   0.02   0.01   0.01   0.00   0.00   0.00   0.00       0       1
 2000 266    34    31    1.3      0   0.02      8      3      0     12     11      0     0.0  0.000      0      0  0.000  0.000  0.000  0.000    5.72   0.00   0.00      0      0  224.4   0.06   0.06    0.7   1.25   0.08   0.08   0.07   0.02   0.01   0.01   0.00   0.00   0.00   0.00       0       1
 2000 267    35    32    1.5      0   0.02      9      3      0     12     12      0     0.0  0.000      0      0  0.000  0.000  0.000  0.000    5.72   0.00   0.00      0      0  224.2   0.07   0.07    0.7   1.25   0.08   0.08   0.07   0.02   0.01   0.01   0.00   0.00   0.00   0.00       0       1
 2000 268    36    33    1.5      0   0.02      9      3      0     13     12      0     0.0  0.000      0      0  0.000  0.000  0.000  0.000    5.72   0.00   0.00      0      0  217.4   0.07   0.07    0.7   1.25   0.08   0.08   0.07   0.02   0.01   0.01   0.00   0.00   0.00   0.00       0       1
 2000 269    37    34    1.5      0   0.02     10      3      0     13     13      0     0.0  0.000      0      0  0.000  0.000  0.000  0.000    5.72   0.00   0.00      0      0  211.7   0.07   0.07    0.7   1.25   0.08   0.08   0.07   0.02   0.02   0.01   0.00   0.00   0.00   0.00       0       1
 2000 270    38    35    1.6      0   0.02     10      3      0     14     14      0     0.0  0.000      0      0  0.000  0.000  0.000  0.000    5.72   0.00   0.00      0      0  206.3   0.07   0.07    0.7   1.25   0.09   0.09   0.08   0.02   0.02   0.01   0.01   0.00   0.00   0.00       0       1
 2000 271    39    36    1.7      0   0.02     11      4      0     15     15      0     0.0  0.000      0      0  0.000  0.000  0.000  0.000    5.72   0.00   0.00      0      0  205.2   0.07   0.07    0.8   1.25   0.09   0.09   0.08   0.02   0.02   0.01   0.01   0.00   0.00   0.00       0       1
 2000 272    40    37    1.9      0   0.03     12      4      0     17     17      0     0.0  0.000      0      0  0.000  0.000  0.000  0.000    5.72   0.00   0.00      0      0  206.8   0.08   0.08    0.8   1.25   0.10   0.10   0.09   0.03   0.02   0.01   0.01   0.00   0.00   0.00       0       1
 2000 273    41    38    2.0      0   0.03     13      5      0     19     18      0     0.0  0.000      0      0  0.000  0.000  0.000  0.000    5.72   0.00   0.00      0      0  211.3   0.08   0.08    0.9   1.25   0.11   0.11   0.10   0.03   0.02   0.02   0.01   0.00   0.00   0.00       0       1
 2000 274    42    39    2.2      0   0.03     15      6      0     20     20      0     0.0  0.000      0      0  0.000  0.000  0.000  0.010    5.72   0.00   0.00      0      0  218.9   0.09   0.09    1.0   1.25   0.12   0.11   0.10   0.03   0.03   0.02   0.01   0.01   0.00   0.00       0       2
 2000 275    43    40    2.4      0   0.04     16      6      0     22     23      0     0.0  0.000      0      0  0.000  0.000  0.000  0.000    5.72   0.00   0.00      0      0  227.0   0.10   0.10    1.1   1.25   0.12   0.12   0.11   0.04   0.03   0.02   0.01   0.01   0.00   0.00       0       2
 2000 276    44    41    2.6      0   0.04     17      7      0     23     24      0     0.0  0.000      0      0  0.000  0.000  0.000  0.011    5.72   0.00   0.00      0      0  236.1   0.11   0.10    1.1   1.25   0.13   0.12   0.12   0.04   0.03   0.02   0.01   0.01   0.00   0.00       0       2
 2000 277    45    42    2.7      0   0.04     18      7      0     24     25      0     0.0  0.000      0      0  0.000  0.000  0.000  0.079    5.72   0.00   0.00      0      0  241.2   0.11   0.11    1.2   1.25   0.13   0.13   0.12   0.04   0.03   0.03   0.02   0.01   0.00   0.00       0       2
 2000 278    46    43    2.8      0   0.05     19      8      0     26     28      0     0.0  0.000      0      0  0.000  0.000  0.000  0.000    5.72   0.00   0.00      0      0  237.1   0.12   0.11    1.2   1.25   0.14   0.13   0.13   0.04   0.04   0.03   0.02   0.01   0.00   0.00       0       2
 2000 279    47    44    2.9      0   0.05     21      9      0     28     30      0     0.0  0.000      0      0  0.000  0.000  0.000  0.000    5.72   0.00   0.00      0      0  230.5   0.12   0.12    1.3   1.25   0.15   0.14   0.14   0.05   0.04   0.03   0.02   0.01   0.00   0.00       0       2
 2000 280    48    45    3.0      0   0.05     22     11      0     30     32      0     0.0  0.000      0      0  0.000  0.000  0.000  0.000    5.72   0.00   0.00      0      0  224.7   0.12   0.12    1.4   1.25   0.16   0.15   0.14   0.05   0.04   0.03   0.02   0.01   0.00   0.00       0       2
 2000 281    49    46    3.1      0   0.05     24     12      0     32     36      0     0.0  0.000      0      0  0.000  0.000  0.000  0.000    5.72   0.00   0.00      0      0  220.0   0.13   0.12    1.5   1.25   0.17   0.16   0.15   0.06   0.05   0.04   0.02   0.01   0.00   0.00       0       2
 2000 282    50    47    3.3      0   0.06     27     13      0     35     40      0     0.0  0.000      0      0  0.000  0.000  0.000  0.000    5.72   0.00   0.00      0      0  217.6   0.13   0.13    1.6   1.25   0.18   0.17   0.17   0.06   0.05   0.04   0.03   0.01   0.00   0.00       0       3
 2000 283    51    48    3.4      0   0.06     28     14      0     35     42      0     0.0  0.000      0      0  0.000  0.000  0.000  0.021    5.72   0.00   0.00      0      0  222.0   0.13   0.13    1.6   1.25   0.18   0.18   0.17   0.06   0.05   0.04   0.03   0.01   0.00   0.00       0       3
 2000 284    52    49    3.5      0   0.07     30     15      0     38     46      0     0.0  0.000      0      0  0.000  0.000  0.000  0.000    5.72   0.00   0.00      0      0  215.5   0.14   0.14    1.7   1.25   0.19   0.19   0.18   0.07   0.06   0.04   0.03   0.01   0.00   0.00       0       3
 2000 285    53    50    3.6      0   0.07     33     18      0     41     50      0     0.0  0.000      0      0  0.000  0.000  0.000  0.000    5.72   0.00   0.00      0      0  212.0   0.14   0.14    1.8   1.25   0.21   0.20   0.19   0.07   0.06   0.05   0.03   0.02   0.00   0.00       0       3
 2000 286    54    51    3.8      0   0.08     36     21      0     46     56      0     0.0  0.000      0      0  0.000  0.000  0.000  0.000    5.72   0.00   0.00      0      0  218.7   0.15   0.14    2.0   1.25   0.23   0.22   0.21   0.08   0.07   0.06   0.04   0.02   0.00   0.00       0       3
 2000 287    55    52    4.0      0   0.08     38     24      0     50     62      0     0.0  0.000      0      0  0.000  0.000  0.000  0.000    5.72   0.00   0.00      0      0  218.3   0.16   0.15    2.2   1.25   0.24   0.24   0.23   0.09   0.08   0.06   0.04   0.02   0.00   0.00       0       4
 2000 288    56    53    4.1      0   0.09     40     25      0     51     65      0     0.0  0.000      0      0  0.000  0.000  0.000  0.000    5.72   0.00   0.00      0      0  225.4   0.16   0.15    2.2   1.25   0.25   0.24   0.24   0.09   0.08   0.06   0.04   0.02   0.00   0.00       0       4
 2000 289    57    54    4.2      0   0.10     42     26      0     53     68      0     0.0  0.000      0      0  0.000  0.000  0.000  0.000    5.72   0.00   0.00      0      0  230.7   0.17   0.15    2.3   1.25   0.26   0.25   0.24   0.10   0.08   0.07   0.05   0.02   0.00   0.00       0       4
 2000 290    58    55    4.4      0   0.10     44     29      0     56     73      0     0.0  0.000      0      0  0.000  0.000  0.000  0.000    5.73   0.00   0.00      0      0  238.6   0.17   0.15    2.4   1.25   0.27   0.26   0.26   0.10   0.09   0.07   0.05   0.02   0.00   0.00       0       4
 2000 291    59    56    4.6      0   0.11     46     32      0     60     78      0     0.0  0.000      0      0  0.000  0.000  0.000  0.000    5.73   0.00   0.00      0      0  246.9   0.18   0.15    2.6   1.25   0.28   0.28   0.27   0.11   0.09   0.07   0.05   0.03   0.00   0.00       0       5
 2000 292    60    57    4.8      0   0.12     48     35      0     62     83      0     0.0  0.000      0      0  0.000  0.000  0.000  0.000    5.73   0.00   0.00      0      0  257.1   0.19   0.15    2.7   1.25   0.30   0.29   0.28   0.11   0.10   0.08   0.05   0.03   0.00   0.00       0       5
 2000 293    61    58    5.0      0   0.13     50     39      0     66     89      0     0.0  0.000      0      0  0.000  0.000  0.000  0.000    5.73   0.00   0.00      0      0  261.1   0.20   0.15    2.9   1.25   0.31   0.31   0.30   0.12   0.11   0.08   0.06   0.03   0.00   0.00       0       5
 2000 294    62    59    5.2      0   0.15     54     42      0     68     96      0     0.0  0.000      0      0  0.000  0.000  0.000  0.000    5.73   0.00   0.00      0      0  278.2   0.21   0.15    3.0   1.25   0.32   0.32   0.31   0.12   0.11   0.09   0.06   0.03   0.00   0.00       0       6
 2000 295    63    60    5.4      0   0.17     62     48      0     74    110      0     0.0  0.000      0      0  0.000  0.000  0.000  0.000    5.73   0.00   0.00      0      0  282.2   0.22   0.15    3.2   1.25   0.35   0.34   0.33   0.13   0.12   0.09   0.07   0.03   0.00   0.00       0       6
 2000 296    64    61    5.6      0   0.19     66     51      0     76    116      0     0.0  0.000      0      0  0.000  0.000  0.000  0.010    5.73   0.00   0.00      0      0  290.8   0.23   0.15    3.3   1.25   0.36   0.35   0.34   0.14   0.12   0.10   0.07   0.04   0.00   0.00       0       7
 2000 297    65    62    5.7      0   0.21     70     54      0     79    123      0     0.0  0.000      0      0  0.000  0.000  0.000  0.000    5.73   0.00   0.00      0      0  295.3   0.23   0.15    3.4   1.25   0.37   0.36   0.36   0.14   0.13   0.10   0.07   0.04   0.00   0.00       0       7
 2000 298    66    63    5.9      0   0.23     74     58      0     82    132      0     0.0  0.000      0      0  0.000  0.000  0.000  0.000    5.73   0.00   0.00      0      0  304.2   0.24   0.15    3.6   1.25   0.38   0.37   0.37   0.15   0.13   0.11   0.07   0.04   0.00   0.00       0       8
 2000 299    67    64    6.1      0   0.26     82     64      0     87    146      0     0.0  0.000      0      0  0.000  0.000  0.000  0.015    5.73   0.00   0.00      0      0  311.1   0.25   0.15    3.8   1.25   0.40   0.40   0.39   0.16   0.14   0.11   0.08   0.04   0.00   0.00       0       8
 2000 300    68    65    6.3      0   0.29     91     71      0     93    162      0     0.0  0.000      0      0  0.000  0.000  0.000  0.039    5.70   0.00   0.00      0      0  325.2   0.26   0.15    4.1   1.25   0.43   0.43   0.41   0.17   0.15   0.12   0.09   0.04   0.00   0.00       0       9
 2000 301    69    66    6.5      0   0.33    106     85      0    103    190      0     0.0  0.000      0      0  0.000  0.000  0.000  0.000    5.70   0.00   0.00      0      0  311.0   0.27   0.15    4.5   1.25   0.48   0.47   0.46   0.19   0.17   0.13   0.10   0.05   0.00   0.00       0      10
 2000 302    70    67    6.6      0   0.35    119     96      0    113    215      0     0.0  0.000      0      0  0.000  0.000  0.000  0.000    5.70   0.00   0.00      0      0  293.8   0.27   0.15    5.0   1.25   0.52   0.51   0.50   0.21   0.19   0.15   0.11   0.05   0.00   0.00       0      10
 2000 303    71    68    6.7      0   0.37    132    107      0    122    239      0     0.0  0.000      0      0  0.000  0.000  0.000  0.000    5.70   0.00   0.00      0      0  277.9   0.28   0.15    5.4   1.25   0.56   0.55   0.54   0.23   0.20   0.16   0.12   0.06   0.00   0.00       0      10
 2000 304    72    69    6.8      0   0.41    152    125      0    136    277      0     0.0  0.000      0      0  0.000  0.000  0.000  0.000    5.70   0.00   0.00      0      0  268.6   0.28   0.15    6.0   1.25   0.62   0.61   0.60   0.25   0.22   0.18   0.13   0.07   0.00   0.00       0      11
 2000 305    73    70    7.0      0   0.46    174    146      0    152    320      0     0.0  0.000      0      0  0.000  0.000  0.000  0.000    5.71   0.00   0.00      0      0  264.5   0.29   0.15    6.8   1.25   0.69   0.68   0.67   0.28   0.25   0.20   0.15   0.07   0.00   0.00       0      12
 2000 306    74    71    7.2      0   0.51    184    156      0    159    340      0     0.0  0.000      0      0  0.000  0.000  0.000  0.000    5.71   0.00   0.00      0      0  276.7   0.30   0.15    7.1   1.25   0.72   0.71   0.70   0.29   0.26   0.21   0.15   0.08   0.00   0.00       0      13
 2000 307    75    72    7.4      1   0.56    204    176      0    173    380      0     0.0  0.000      0      0  0.000  0.000  0.000  0.000    5.71   0.00   0.00      0      0  275.4   0.31   0.15    7.8   1.25   0.78   0.77   0.76   0.32   0.29   0.23   0.17   0.09   0.00   0.00       0      14
 2000 308    76    73    7.5      1   0.61    229    201      0    191    431      0     0.0  0.000      0      0  0.000  0.000  0.000  0.000    5.70   0.00   0.00      0      0  265.5   0.32   0.15    8.7   1.25   0.85   0.85   0.83   0.35   0.32   0.26   0.18   0.09   0.00   0.00       0      14
 2000 309    77    74    7.7      1   0.65    249    222      0    205    472      0     0.0  0.000      0      0  0.000  0.000  0.000  0.000    5.70   0.00   0.00      0      0  261.4   0.32   0.15    9.4   1.25   0.91   0.91   0.89   0.38   0.34   0.27   0.20   0.10   0.00   0.00       0      15
 2000 310    78    75    7.8      1   0.70    278    253      0    225    531      0     0.0  0.000      0      0  0.000  0.000  0.000  0.000    5.69   0.00   0.00      0      0  253.1   0.33   0.15   10.3   1.25   1.00   1.00   0.98   0.42   0.37   0.30   0.22   0.11   0.00   0.00       0      16
 2000 311    79    76    8.0      1   0.77    310    287      0    247    597      0     0.0  0.000      0      0  0.000  0.000  0.000  0.000    5.69   0.00   0.00      0      0  249.2   0.34   0.15   11.4   1.25   1.10   1.09   1.08   0.46   0.41   0.33   0.24   0.12   0.00   0.00       0      17
 2000 312    80    77    8.2      1   0.84    329    309      0    260    638      0     0.0  0.000      0      0  0.000  0.000  0.000  0.000    5.70   0.00   0.00      0      0  254.5   0.34   0.15   12.1   1.25   1.16   1.15   1.14   0.48   0.43   0.35   0.25   0.13   0.00   0.00       1      19
 2000 313    81    78    8.4      1   0.92    355    340      0    279    694      0     0.0  0.000      0      0  0.000  0.000  0.000  0.000    5.71   0.00   0.00      0      0  258.7   0.35   0.15   13.1   1.25   1.23   1.23   1.21   0.52   0.46   0.38   0.27   0.14   0.00   0.00       3      21
 2000 314    82    79    8.6      1   0.97    370    357      0    289    727      0     0.0  0.000      0      0  0.000  0.000  0.000  0.000    5.72   0.00   0.00      0      0  262.8   0.36   0.15   13.6   1.25   1.28   1.27   1.26   0.54   0.48   0.39   0.28   0.15   0.00   0.00       5      22
 2000 315    83    80    8.8      1   1.04    404    400      0    313    804      0     0.0  0.000      0      0  0.000  0.000  0.000  0.000    5.72   0.00   0.00      0      0  256.5   0.37   0.15   14.8   1.25   1.39   1.38   1.37   0.58   0.52   0.42   0.31   0.16   0.00   0.00       7      24
 2000 316    84    81    9.0      1   1.11    441    448      0    341    889      0     0.0  0.000      0      0  0.000  0.000  0.000  0.000    5.72   0.00   0.00      0      0  252.1   0.38   0.15   16.2   1.25   1.50   1.50   1.48   0.63   0.57   0.46   0.33   0.17   0.00   0.00      10      26
 2000 317    85    82    9.2      1   1.20    480    498      0    368    977      0     0.0  0.000      0      0  0.000  0.000  0.000  0.000    5.72   0.00   0.00      0      0  250.0   0.39   0.15   17.7   1.25   1.62   1.61   1.60   0.68   0.61   0.50   0.36   0.19   0.00   0.00      13      28
 2000 318    86    83    9.3      1   1.25    512    540      0    390   1052      0     0.0  0.000      0      0  0.000  0.000  0.000  0.000    5.73   0.00   0.00      0      0  244.6   0.40   0.15   18.9   1.25   1.72   1.71   1.70   0.73   0.65   0.53   0.38   0.20   0.00   0.00      15      30
 2000 319    87    84    9.4      1   1.27    537    574      0    409   1111      0     0.0  0.000      0      0  0.000  0.000  0.000  0.000    5.75   0.00   0.00      0      0  236.7   0.41   0.15   19.8   1.25   1.80   1.79   1.78   0.76   0.68   0.56   0.40   0.21   0.00   0.00      18      31
 2000 320    88    85    9.5      1   1.29    559    605      0    425   1164      0     0.0  0.000      0      0  0.000  0.000  0.000  0.000    5.77   0.00   0.00      0      0  230.3   0.41   0.15   20.5   1.25   1.87   1.86   1.85   0.79   0.71   0.58   0.42   0.22   0.00   0.00      21      32
 2000 321    89    86    9.6      3   1.33    597    658      0    453   1255      0     0.0  0.000      0      0  0.000  0.000  0.000  0.000    5.77   0.00   0.00      0      0  222.2   0.41   0.15   19.0   1.25   1.99   1.98   1.97   0.84   0.76   0.62   0.45   0.23   0.00   0.00      25      35
 2000 322    90    87    9.8      3   1.38    642    725      0    488   1367      0     0.0  0.000      0      0  0.000  0.000  0.000  0.000    5.75   0.00   0.00      0      0  214.8   0.42   0.15   20.2   1.25   2.14   2.13   2.12   0.91   0.82   0.66   0.48   0.25   0.00   0.00      31      37
 2000 323    91    88    9.9      3   1.44    694    801      0    527   1496      0     0.0  0.000      1      6  0.000  0.000  0.000  0.000    5.69   0.00   0.00      0      1  208.0   0.42   0.15   22.9   1.25   2.31   2.30   2.29   0.98   0.88   0.72   0.52   0.27   0.00   0.00      34      40
 2000 324    92    89   10.2      3   1.51    744    879      0    564   1627      0     0.0  0.000      3     21  0.000  0.000  0.000  0.000    5.60   0.00   0.00      0      3  203.4   0.43   0.15   26.4   1.25   2.47   2.47   2.45   1.05   0.94   0.77   0.56   0.29   0.00   0.00      38      43
 2000 325    93    90   10.3      3   1.55    788    948      0    597   1744      0     0.0  0.000      8     36  0.000  0.000  0.000  0.000    5.52   0.00   0.00      0      8  197.1   0.44   0.15   30.6   1.25   2.61   2.61   2.60   1.11   1.00   0.82   0.59   0.30   0.00   0.00      41      46
 2000 326    94    91   10.5      3   1.61    840   1031      0    636   1885      0     0.0  0.000     13     46  0.000  0.000  0.000  0.000    5.42   0.00   0.01      0     13  191.2   0.45   0.15   35.6   1.25   2.78   2.78   2.76   1.18   1.07   0.87   0.63   0.32   0.00   0.00      45      49
 2000 327    95    92   10.7      3   1.67    885   1107      0    669   2013      0     0.0  0.000     21     57  0.000  0.000  0.000  0.000    5.35   0.00   0.01      0     21  189.1   0.45   0.15   41.4   1.25   2.93   2.92   2.91   1.25   1.12   0.92   0.66   0.34   0.00   0.00      49      53
 2000 328    96    93   10.9      3   1.74    929   1182      0    701   2144      0     0.0  0.000     32     83  0.000  0.000  0.000  0.000    5.30   0.00   0.02      0     32  187.3   0.47   0.15   48.2   1.25   3.07   3.07   3.05   1.31   1.18   0.96   0.70   0.36   0.00   0.00      54      58
 2000 329    97    94   11.1      3   1.77    955   1229      0    721   2231      0     0.0  0.000     46    107  0.000  0.000  0.000  0.000    5.28   0.00   0.02      0     46  185.4   0.48   0.15   48.4   1.25   3.16   3.15   3.14   1.35   1.21   0.99   0.72   0.37   0.00   0.00      58      62
 2000 330    98    95   11.2      3   1.80    997   1305      0    755   2363      0     0.0  0.000     60    126  0.000  0.000  0.028  0.000    5.21   0.00   0.03      0     60  180.8   0.48   0.15   56.1   1.25   3.31   3.30   3.29   1.41   1.27   1.04   0.75   0.39   0.00   0.00      61      65
 2000 331    99    96   11.4      3   1.84   1043   1400      0    802   2521      0     0.0  0.000     78    135  0.000  0.000  0.103  0.000    5.11   0.00   0.03      0     78  176.5   0.49   0.15   65.2   1.25   3.51   3.51   3.49   1.50   1.35   1.10   0.80   0.41   0.00   0.00      66      69
 2000 332   100    97   11.6      3   1.88   1066   1444      0    818   2609      0     0.0  0.000     99    154  0.000  0.000  0.000  0.000    5.09   0.00   0.04      0     99  176.6   0.50   0.15   65.4   1.25   3.58   3.58   3.57   1.53   1.38   1.13   0.81   0.42   0.00   0.00      71      75
 2000 333   101    98   11.8      3   1.91   1077   1470      0    827   2672      0     0.0  0.000    125    187  0.000  0.000  0.000  0.000    5.07   0.00   0.05      0    125  177.1   0.51   0.15   65.5   1.25   3.62   3.62   3.60   1.55   1.39   1.14   0.82   0.43   0.00   0.00      75      80
 2000 334   102    99   12.0      3   1.92   1096   1510      0    841   2759      0     0.0  0.000    153    216  0.000  0.000  0.000  0.000    5.05   0.00   0.06      0    153  175.6   0.52   0.15   66.6   1.25   3.69   3.68   3.67   1.57   1.42   1.16   0.84   0.43   0.00   0.00      79      83
 2000 335   103   100   12.1      3   1.94   1132   1587      0    873   2899      0     0.0  0.000    181    238  0.000  0.000  0.071  0.000    4.99   0.00   0.06      0    181  171.7   0.52   0.15   76.6   1.25   3.80   3.82   3.81   1.64   1.47   1.20   0.87   0.45   0.00   0.00      82      87
 2000 336   104   101   12.3      3   1.96   1167   1657      0    899   3033      0     0.0  0.000    209    250  0.000  0.000  0.000  0.000    4.96   0.00   0.07      0    209  168.3   0.53   0.15   83.9   1.25   3.85   3.94   3.93   1.69   1.52   1.24   0.90   0.46   0.00   0.00      86      92
 2000 337   105   102   12.4      3   1.99   1211   1751      0    930   3204      0     0.0  0.000    241    256  0.000  0.000  0.000  0.000    4.90   0.00   0.08      0    241  164.4   0.54   0.15   96.1   1.25   3.87   4.09   4.08   1.75   1.58   1.29   0.93   0.48   0.00   0.00      90      98
 2000 338   106   103   12.6      3   2.02   1242   1818      0    952   3337      0     0.0  0.000    276    275  0.000  0.000  0.000  0.000    4.89   0.00   0.08      0    276  162.3   0.54   0.15   97.3   1.25   3.96   4.19   4.18   1.79   1.61   1.32   0.95   0.49   0.00   0.00      95     104
 2000 339   107   104   12.8      3   2.03   1256   1853      0    963   3426      0     0.0  0.000    317    305  0.000  0.000  0.000  0.000    4.86   0.00   0.09      0    317  161.5   0.55   0.15   97.9   1.25   4.01   4.24   4.22   1.81   1.63   1.33   0.97   0.50   0.00   0.00     100     109
 2000 340   108   105   13.0      3   2.04   1290   1926      0    986   3573      0     0.0  0.000    358    333  0.000  0.000  0.000  0.000    4.86   0.00   0.10      0    358  158.5   0.56   0.15  100.1   1.25   4.12   4.34   4.33   1.86   1.67   1.37   0.99   0.51   0.00   0.00     104     113
 2000 341   109   106   13.2      3   2.06   1324   2005      0   1011   3732      0     0.0  0.000    403    366  0.000  0.000  0.000  0.000    4.83   0.00   0.11      0    403  155.6   0.57   0.15  109.7   1.25   4.13   4.46   4.45   1.91   1.72   1.41   1.02   0.53   0.00   0.00     109     121
 2000 342   110   107   13.4      3   2.08   1353   2076      0   1030   3884      0     0.0  0.000    454    397  0.000  0.000  0.000  0.000    4.82   0.00   0.12      0    454  153.5   0.58   0.15  110.0   1.25   4.03   4.56   4.55   1.95   1.76   1.44   1.04   0.54   0.00   0.00     115     130
[...]
 2001 332   100    97   12.8      3   1.79   1040   1537      0    782   3011      0     0.0  0.000    434    380  0.000  0.000  0.000  0.000    4.64   0.00   0.14      0    434  171.8   0.58   0.15   92.2   1.25   3.42   3.41   3.37   1.48   1.33   1.08   0.79   0.41   0.00   0.00      84     104
 2001 333   101    98   13.0      3   1.79   1064   1594      0    799   3142      0     0.0  0.000    484    407  0.000  0.000  0.000  0.000    4.62   0.00   0.15      0    484  168.6   0.58   0.15   95.7   1.25   3.49   3.49   3.45   1.51   1.36   1.10   0.80   0.42   0.00   0.00      87     108
 2001 334   102    99   13.1      3   1.79   1061   1594      0    797   3190      0     0.0  0.000    535    436  0.000  0.000  0.000  0.000    4.60   0.00   0.17      0    535  168.5   0.59   0.15   96.7   1.25   3.48   3.48   3.44   1.51   1.36   1.10   0.80   0.41   0.00   0.00      90     111
 2001 335   103   100   13.3      5   1.79   1088   1658      0    816   3335      0     0.0  0.000    589    443  0.000  0.000  0.000  0.000    4.60   0.00   0.18      0    589  164.9   0.59   0.15  104.3   1.25   3.57   3.57   3.52   1.54   1.39   1.13   0.82   0.42   0.00   0.00      93     116
 2001 336   104   101   13.4      5   1.80   1116   1730      0    837   3483      6     0.0  0.000    637    464  0.000  0.000  0.000  0.000    4.57   0.00   0.18      0    637  161.2   0.60   0.15  106.7   1.25   3.66   3.66   3.62   1.58   1.43   1.16   0.84   0.44   0.00   0.00     104     121
 2001 337   105   102   13.6      5   1.79   1115   1741      0    837   3538     19     2.2  0.000    682    485  0.000  0.000  0.000  0.000    4.53   0.06   0.19      0    682  160.6   0.61   0.15  107.6   1.25   3.66   3.66   3.62   1.58   1.43   1.16   0.84   0.43   0.00   0.00     123     125
 2001 338   106   103   13.8      5   1.79   1115   1749      2    837   3606     19     9.3  0.000    742    504  0.000  0.000  0.000  0.000    4.50   0.24   0.21      0    742  160.1   0.62   0.15  108.8   1.25   3.67   3.67   3.62   1.58   1.43   1.16   0.84   0.44   0.00   0.00     128     129
 2001 339   107   104   14.0      5   1.78   1122   1775      3    843   3676     41     7.8  0.001    779    515  0.000  0.000  0.000  0.000    4.49   0.41   0.21      0    779  158.9   0.62   0.15  110.9   1.25   3.69   3.69   3.65   1.60   1.44   1.17   0.85   0.44   0.00   0.00     157     134
 2001 340   108   105   14.2      5   1.78   1139   1828      6    856   3785     61    10.1  0.002    818    539  0.000  0.000  0.000  0.000    4.47   0.76   0.22      0    818  156.3   0.63   0.15  112.7   1.25   3.75   3.75   3.71   1.62   1.46   1.19   0.86   0.45   0.00   0.00     187     139
 2001 341   109   106   14.4      5   1.78   1158   1883     11    870   3891     89    11.9  0.003    850    568  0.000  0.000  0.000  0.000    4.46   1.24   0.22      0    850  153.5   0.64   0.15  114.8   1.25   3.82   3.81   3.77   1.65   1.49   1.20   0.88   0.45   0.00   0.00     228     145
 2001 342   110   107   14.5      5   1.77   1168   1917     16    878   3972    111    14.5  0.004    887    601  0.000  0.000  0.000  0.000    4.45   1.82   0.22      0    887  151.7   0.65   0.15  116.3   1.25   3.85   3.85   3.81   1.66   1.50   1.22   0.89   0.46   0.00   0.00     260     149
 2001 343   111   108   14.6      5   1.77   1183   1965     21    891   4084    111    19.2  0.005    936    618  0.000  0.000  0.000  0.000    4.44   2.27   0.23      0    936  149.2   0.65   0.15  117.4   1.25   3.91   3.91   3.87   1.69   1.52   1.24   0.90   0.46   0.00   0.00     265     152
 2001 344   112   109   14.8      5   1.76   1199   2017     29    904   4208    123    23.1  0.007    992    622  0.000  0.000  0.000  0.000    4.43   2.88   0.24      0    992  146.7   0.66   0.15  118.7   1.25   3.97   3.97   3.93   1.71   1.55   1.25   0.91   0.47   0.00   0.00     284     156
 2001 345   113   110   14.9      5   1.75   1211   2058     36    914   4317    135    27.0  0.008   1048    647  0.000  0.000  0.000  0.000    4.42   3.48   0.24      0   1048  144.6   0.66   0.15  120.1   1.25   4.01   4.01   3.97   1.73   1.56   1.27   0.92   0.48   0.00   0.00     303     161
 2001 346   114   111   15.2      5   1.74   1218   2090     46    919   4409    154    29.9  0.010   1101    663  0.000  0.000  0.000  0.000    4.40   4.18   0.25      0   1101  143.0   0.67   0.15  121.1   1.25   4.04   4.04   4.00   1.74   1.57   1.28   0.93   0.48   0.00   0.00     332     168
 2001 347   115   112   15.4      5   1.73   1223   2115     57    922   4473    187    30.7  0.013   1136    669  0.000  0.000  0.000  0.000    4.39   5.05   0.25      0   1136  141.6   0.68   0.15  121.3   1.25   4.04   4.05   4.01   1.75   1.58   1.28   0.93   0.48   0.00   0.00     383     175
 2001 348   116   113   15.6      5   1.72   1230   2148     71    927   4549    221    32.3  0.016   1171    693  0.000  0.000  0.000  0.000    4.38   6.09   0.26      0   1171  139.9   0.69   0.15  121.5   1.25   4.04   4.08   4.04   1.76   1.59   1.29   0.94   0.49   0.00   0.00     436     182
 2001 349   117   114   15.8      5   1.71   1239   2183     87    933   4648    246    35.5  0.019   1226    726  0.000  0.000  0.000  0.000    4.38   7.13   0.26      0   1226  138.2   0.70   0.15  121.7   1.25   4.02   4.11   4.07   1.78   1.60   1.30   0.95   0.49   0.00   0.00     478     189
 2001 350   118   115   16.0      5   1.70   1244   2212    105    938   4707    289    36.2  0.022   1252    746  0.000  0.000  0.000  0.000    4.36   8.36   0.27      0   1252  136.7   0.71   0.15  121.9   1.25   3.99   4.14   4.10   1.79   1.61   1.31   0.95   0.49   0.00   0.00     545     195
 2001 351   119   116   16.2      5   1.69   1252   2250    124    945   4843    289    43.1  0.026   1341    767  0.000  0.000  0.000  0.000    4.34   9.28   0.28      0   1341  134.9   0.72   0.15  122.0   1.25   3.96   4.18   4.14   1.80   1.63   1.32   0.96   0.50   0.00   0.00     551     202
 2001 352   120   117   16.4      5   1.68   1263   2292    145    953   4909    345    42.0  0.029   1354    773  0.000  0.000  0.000  0.000    4.34  10.68   0.28      0   1354  133.0   0.72   0.15  122.1   1.25   3.90   4.22   4.18   1.82   1.65   1.34   0.97   0.50   0.00   0.00     637     209
 2001 353   121   118   16.4      5   1.67   1257   2290    169    949   4991    353    47.9  0.034   1443    808  0.000  0.000  0.000  0.000    4.32  11.71   0.29      0   1443  132.6   0.73   0.15  122.2   1.25   3.83   4.22   4.18   1.82   1.64   1.33   0.97   0.50   0.00   0.00     654     217
 2001 354   122   119   16.4      5   1.65   1248   2279    194    942   5040    376    51.6  0.039   1513    826  0.000  0.000  0.000  0.000    4.29  12.82   0.30      0   1513  132.6   0.74   0.15  122.2   1.25   3.74   4.20   4.16   1.81   1.63   1.33   0.97   0.50   0.00   0.00     692     226
 2001 355   123   120   16.4      5   1.64   1236   2261    221    935   5056    395    55.9  0.044   1559    850  0.000  0.000  0.000  0.007    4.26  14.16   0.31      0   1559  132.9   0.75   0.15  117.1   1.25   3.72   4.16   4.13   1.80   1.63   1.32   0.96   0.50   0.00   0.00     723     237
 2001 356   124   121   16.4      5   1.63   1234   2269    250    936   5133    423    59.0  0.049   1629    853  0.000  0.000  0.000  0.000    4.24  15.32   0.32      0   1629  132.2   0.75   0.15  121.9   1.25   3.73   4.16   4.14   1.80   1.63   1.32   0.96   0.50   0.00   0.00     765     243
 2001 357   125   122   16.4      5   1.62   1242   2304    277    943   5232    455    60.8  0.053   1686    873  0.000  0.000  0.000  0.000    4.23  16.42   0.32      0   1686  130.5   0.76   0.15  122.0   1.25   3.77   4.20   4.17   1.82   1.64   1.33   0.97   0.50   0.00   0.00     810     248
 2001 358   126   123   16.4      5   1.61   1243   2322    308    946   5319    490    63.0  0.058   1755    884  0.000  0.000  0.000  0.000    4.21  17.58   0.33      0   1755  129.5   0.76   0.15  122.3   1.25   3.78   4.21   4.19   1.83   1.65   1.34   0.97   0.50   0.00   0.00     854     254
 2001 359   127   124   16.4      5   1.60   1243   2338    343    949   5413    521    65.8  0.063   1832    900  0.000  0.000  0.000  0.000    4.19  18.70   0.34      0   1832  128.5   0.76   0.15  122.5   1.25   3.80   4.23   4.20   1.83   1.65   1.34   0.98   0.50   0.00   0.00     893     261
 2001 360   128   125   16.4      5   1.58   1241   2349    379    949   5509    543    69.8  0.069   1919    921  0.000  0.000  0.000  0.000    4.16  19.74   0.35      0   1919  127.6   0.76   0.15  122.5   1.25   3.78   4.23   4.21   1.83   1.66   1.34   0.98   0.51   0.00   0.00     923     268
 2001 361   129   126   16.4      5   1.57   1237   2354    417    948   5596    567    73.6  0.074   2005    942  0.000  0.000  0.000  0.000    4.13  20.79   0.36      0   2005  127.0   0.76   0.15  122.5   1.25   3.74   4.23   4.21   1.83   1.66   1.34   0.98   0.51   0.00   0.00     955     276
 2001 362   130   127   16.4      5   1.56   1232   2357    457    945   5661    606    75.4  0.081   2072    957  0.000  0.000  0.000  0.000    4.10  22.04   0.37      0   2072  126.4   0.76   0.15  122.5   1.25   3.67   4.23   4.21   1.83   1.65   1.34   0.98   0.51   0.00   0.00    1003     284
 2001 363   131   128   16.4      5   1.54   1223   2349    500    940   5709    656    76.3  0.088   2137    966  0.000  0.000  0.000  0.000    4.07  23.41   0.37      0   2137  126.2   0.76   0.15  122.5   1.25   3.58   4.22   4.20   1.83   1.65   1.34   0.97   0.50   0.00   0.00    1062     293
 2001 364   132   129   16.4      5   1.53   1213   2340    547    935   5733    726    75.3  0.095   2180    966  0.000  0.000  0.000  0.000    4.03  25.07   0.38      0   2180  126.1   0.76   0.15  122.5   1.25   3.57   4.20   4.18   1.82   1.64   1.33   0.97   0.50   0.00   0.00    1139     301
 2001 365   133   130   16.4      5   1.52   1198   2315    598    926   5763    777    77.0  0.104   2250    974  0.000  0.000  0.000  0.000    3.99  26.57   0.39      0   2250  126.5   0.76   0.15  122.5   1.25   3.54   4.17   4.15   1.81   1.63   1.32   0.96   0.50   0.00   0.00    1188     308
 2002 001   134   131   16.4      5   1.50   1188   2305    654    922   5843    809    80.9  0.112   2349    984  0.000  0.000  0.000  0.000    3.96  27.85   0.40      0   2349  126.4   0.76   0.15  122.5   1.25   3.51   4.15   4.13   1.80   1.62   1.32   0.96   0.50   0.00   0.00    1219     316
 2002 002   135   132   16.4      5   1.49   1177   2291    714    915   5918    839    85.0  0.121   2450    997  0.000  0.000  0.000  0.000    3.92  29.13   0.41      0   2450  126.4   0.76   0.15  122.5   1.25   3.43   4.13   4.11   1.79   1.61   1.31   0.95   0.49   0.00   0.00    1248     324
 2002 003   136   133   16.4      5   1.47   1168   2283    775    910   5983    895    86.6  0.130   2532   1001  0.000  0.000  0.000  0.000    3.88  30.62   0.42      0   2532  126.3   0.76   0.15  122.5   1.25   3.35   4.12   4.09   1.78   1.61   1.31   0.95   0.49   0.00   0.00    1296     332
 2002 004   137   134   16.4      5   1.46   1155   2266    840    902   6035    957    87.8  0.139   2614   1001  0.000  0.000  0.000  0.000    3.84  32.14   0.43      0   2614  126.5   0.76   0.15  122.5   1.25   3.28   4.08   4.05   1.77   1.60   1.30   0.95   0.49   0.00   0.00    1345     340
 2002 005   138   135   16.4      5   1.45   1142   2245    912    894   6028   1014    90.0  0.151   2642   1001  0.000  0.000  0.000  0.000    3.80  34.52   0.44      0   2642  126.8   0.76   0.15  122.5   1.25   3.26   4.06   4.01   1.76   1.59   1.29   0.94   0.49   0.00   0.00    1389     347
 2002 006   139   136   16.4      5   1.43   1128   2223    988    887   6078   1042    94.8  0.163   2726   1001  0.000  0.000  0.000  0.000    3.76  36.24   0.45      0   2726  127.2   0.76   0.15  122.6   1.25   3.23   4.03   3.97   1.75   1.58   1.28   0.93   0.48   0.00   0.00    1414     354
 2002 007   140   137   16.4      5   1.42   1116   2208   1061    881   6143   1091    97.3  0.173   2819   1000  0.000  0.000  0.000  0.000    3.72  37.65   0.46      0   2819  127.4   0.76   0.15  122.7   1.25   3.22   4.01   3.94   1.74   1.57   1.28   0.93   0.48   0.00   0.00    1450     360
 2002 008   141   138   16.4      5   1.41   1108   2203   1135    878   6215   1145    99.1  0.183   2904    995  0.000  0.000  0.000  0.000    3.68  39.07   0.47      0   2904  127.2   0.76   0.15  122.8   1.25   3.19   4.00   3.92   1.74   1.57   1.28   0.93   0.48   0.00   0.00    1488     366
 2002 009   142   139   16.4      5   1.40   1095   2182   1219    869   6283   1188   102.6  0.194   3007    994  0.000  0.000  0.000  0.000    3.63  40.53   0.48      0   3007  127.5   0.76   0.15  122.9   1.25   3.12   3.98   3.88   1.73   1.56   1.27   0.92   0.48   0.00   0.00    1518     374
 2002 010   143   140   16.4      5   1.38   1081   2162   1304    860   6346   1234   105.7  0.206   3103    992  0.000  0.058  0.000  0.000    3.58  42.03   0.49      0   3103  127.9   0.76   0.15  122.9   1.25   3.05   3.95   3.84   1.71   1.55   1.26   0.91   0.47   0.00   0.00    1550     382
 2002 011   144   141   16.4      5   1.37   1067   2142   1394    850   6385   1305   106.8  0.218   3177    983  0.000  0.235  0.000  0.000    3.53  43.87   0.50      0   3177  128.2   0.76   0.15  122.2   1.25   2.98   3.90   3.79   1.70   1.53   1.25   0.91   0.47   0.00   0.00    1599     392
 2002 012   145   142   16.4      5   1.35   1056   2140   1485    840   6431   1343   110.6  0.231   3235    982  0.226  0.484  0.000  0.000    3.45  45.90   0.50      0   3235  128.1   0.76   0.15  119.0   1.25   2.91   3.85   3.73   1.69   1.52   1.24   0.90   0.46   0.00   0.00    1628     406
 2002 013   146   143   16.4      5   1.34   1040   2118   1576    829   6450   1385   113.9  0.244   3292    972  0.292  0.528  0.000  0.000    3.38  47.88   0.51      0   3292  128.5   0.76   0.15  115.4   1.25   2.88   3.79   3.67   1.67   1.51   1.23   0.89   0.46   0.00   0.00    1657     419
 2002 014   147   144   16.4      5   1.32   1027   2100   1659    821   6471   1429   116.1  0.256   3344    962  0.000  0.000  0.000  0.000    3.33  49.60   0.52      0   3344  128.8   0.76   0.15  115.5   1.25   2.87   3.75   3.62   1.66   1.50   1.22   0.89   0.46   0.00   0.00    1684     426
 2002 015   148   145   16.4      5   1.31   1016   2084   1752    814   6532   1474   118.9  0.268   3433    953  0.000  0.000  0.000  0.000    3.29  51.04   0.53      0   3433  129.2   0.76   0.15  115.6   1.25   2.84   3.72   3.58   1.65   1.49   1.21   0.88   0.46   0.00   0.00    1709     433
 2002 016   149   146   16.4      5   1.28    989   2059   1845    806   6545   1523   121.1  0.282   3497    943  0.283  0.522  0.000  0.000    3.23  52.76   0.53      0   3497  129.5   0.76   0.15  112.1   1.25   2.78   3.68   3.53   1.64   1.49   1.21   0.88   0.45   0.00   0.00    1756     444
 2002 017   150   147   16.4      5   1.25    959   2032   1932    797   6550   1567   123.3  0.295   3559    933  0.277  0.518  0.000  0.000    3.17  54.28   0.54      0   3559  129.8   0.76   0.15  108.8   1.25   2.72   3.63   3.48   1.63   1.48   1.20   0.87   0.45   0.00   0.00    1805     456
 2002 018   151   148   16.4      5   1.23    946   2014   2004    788   6580   1567   127.9  0.305   3620    933  0.454  0.636  0.000  0.000    3.10  55.36   0.55      0   3620  130.1   0.76   0.15  104.5   1.25   2.67   3.58   3.42   1.62   1.47   1.19   0.87   0.45   0.00   0.00    1812     469
 2002 019   152   149   16.4      5   1.22    932   1996   2067    778   6586   1608   128.5  0.314   3658    924  0.540  0.694  0.000  0.000    3.03  56.50   0.56      0   3658  130.5   0.76   0.15   97.5   1.25   2.61   3.52   3.37   1.60   1.46   1.18   0.86   0.45   0.00   0.00    1833     485
 2002 020   153   150   16.4      7   1.18    904   1970   2111    767   6556   1644   128.4  0.322   3682    915  0.534  0.689  0.000  0.000    2.97  57.33   0.56      0   3682  130.9   0.76   0.15   90.7   1.25   2.55   3.46   3.31   1.58   1.44   1.18   0.85   0.44   0.00   0.00    1876     503
 2002 021   154   151   16.4      7   0.94    715   1850   2163    755   6271   1704   127.0  0.345   3706    900  0.396  0.597  0.000  0.000    2.87  58.38   0.59      0   3706  131.3   0.76   0.15   84.3   1.25   2.49   3.40   3.24   1.56   1.43   1.17   0.85   0.44   0.00   0.00    2180     520
 2002 022   155   152   16.4      7   0.75    568   1756   2191    744   6043   1733   126.4  0.363   3720    892  0.570  0.713  0.000  0.000    2.82  58.90   0.62      0   3720  131.8   0.76   0.15   78.4   1.25   2.43   3.33   3.18   1.54   1.41   1.16   0.84   0.43   0.00   0.00    2413     538
 2002 023   156   153   16.4      7   0.60    451   1680   2216    733   5864   1761   125.8  0.378   3733    885  0.483  0.655  0.000  0.000    2.77  59.36   0.64      0   3733  132.2   0.76   0.15   72.9   1.25   2.38   3.27   3.12   1.52   1.40   1.15   0.83   0.43   0.00   0.00    2599     554
 2002 024   157   154   16.4      7   0.47    357   1619   2247    723   5727   1781   126.2  0.392   3751    878  0.000  0.279  0.000  0.020    2.70  59.89   0.65      0   3751  132.6   0.76   0.15   67.8   1.25   2.32   3.22   3.07   1.50   1.38   1.14   0.83   0.43   0.00   0.00    2746     568
 2002 025   158   155   16.4      7   0.38    284   1569   2282    716   5626   1800   126.8  0.406   3774    866  0.000  0.000  0.000  0.000    2.64  60.47   0.67      0   3774  133.0   0.76   0.15   63.1   1.25   2.30   3.19   3.04   1.48   1.37   1.13   0.82   0.42   0.00   0.00    2865     580
 2002 026   159   156   16.4      7   0.30    226   1530   2296    710   5538   1804   127.3  0.415   3783    858  0.000  0.000  0.000  0.000    2.61  60.70   0.68      0   3783  133.3   0.76   0.15   58.7   1.25   2.29   3.17   3.02   1.46   1.35   1.12   0.81   0.42   0.00   0.00    2957     590
 2002 027   160   157   16.4      7   0.24    180   1498   2308    704   5469   1804   127.9  0.422   3791    849  0.000  0.000  0.000  0.000    2.58  60.87   0.69      0   3791  133.6   0.76   0.15   54.5   1.25   2.27   3.15   3.00   1.44   1.34   1.11   0.81   0.42   0.00   0.00    3028     601
 2002 028   161   158   16.4      7   0.19    143   1472   2320    697   5415   1804   128.6  0.428   3800    838  0.000  0.000  0.000  0.000    2.55  61.04   0.70      0   3800  133.9   0.76   0.15   50.7   1.25   2.25   3.12   2.97   1.42   1.32   1.10   0.80   0.41   0.00   0.00    3085     611
 2002 029   162   159   16.4      7   0.15    114   1451   2323    691   5367   1804   128.8  0.433   3802    829  0.000  0.000  0.000  0.000    2.55  61.09   0.71      0   3802  134.2   0.76   0.15   47.2   1.25   2.23   3.10   2.95   1.40   1.31   1.09   0.80   0.41   0.00   0.00    3130     620
 2002 030   163   160   16.4      7   0.12     91   1434   2323    683   5327   1804   128.8  0.436   3802    820  0.000  0.000  0.000  0.044    2.56  61.09   0.71      0   3802  134.5   0.76   0.15   43.9   1.25   2.22   3.07   2.87   1.39   1.30   1.08   0.79   0.41   0.00   0.00    3166     632
 2002 031   164   161   16.4      7   0.10     73   1420   2323    677   5295   1804   128.8  0.439   3802    820  0.000  0.000  0.000  0.000    2.56  61.09   0.72      0   3802  134.8   0.76   0.15   40.8   1.25   2.20   3.05   2.85   1.38   1.29   1.08   0.78   0.40   0.00   0.00    3195     641
 2002 032   165   162   16.4      8   0.08     58   1408   2323    673   5269   1804   128.8  0.441   3802    820  0.000  0.000  0.000  0.000    2.57  61.09   0.72      0   3802  135.0   0.76   0.15   37.9   1.25   2.18   3.03   2.83   1.37   1.28   1.07   0.78   0.40   0.00   0.00    3218     648
