*WATER BALANCE OUTPUT FILE

*DSSAT Cropping System Model Ver. 4.0.2.000               Aug 23, 2016; 19:17:45

*RUN   1        : UYSB                    
 MODEL          : CRGRO040 - Soybean         
 EXPERIMENT     : UYSB0396 SB    late to create DSS                             
 TREATMENT  1   : UYSB                    


     WATER BALANCE PARAMETERS
     ========================                  --mm--

     Soil H20 (start) on Year/day 1999/232     490.84
     Soil H20 (final) on Year/day 2000/024     393.87
     Effective Irrigation                        0.00
     Precipitation                             282.30
     Drainage                                    5.82
     Runoff                                      0.05
     Soil Evaporation                          174.96
     Transpiration                             198.44
     Potential ET                              772.50

     Final Balance                             0.0000


*DSSAT Cropping System Model Ver. 4.0.2.000               Aug 23, 2016; 19:17:45

*RUN   2        : UYSB                    
 MODEL          : CRGRO040 - Soybean         
 EXPERIMENT     : UYSB0396 SB    late to create DSS                             
 TREATMENT  1   : UYSB                    


     WATER BALANCE PARAMETERS
     ========================                  --mm--

     Soil H20 (start) on Year/day 2000/232     490.84
     Soil H20 (final) on Year/day 2001/039     486.34
     Effective Irrigation                        0.00
     Precipitation                             812.20
     Drainage                                  185.58
     Runoff                                      0.75
     Soil Evaporation                          315.92
     Transpiration                             314.44
     Potential ET                              803.47

     Final Balance                             0.0000


*DSSAT Cropping System Model Ver. 4.0.2.000               Aug 23, 2016; 19:17:45

*RUN   3        : UYSB                    
 MODEL          : CRGRO040 - Soybean         
 EXPERIMENT     : UYSB0396 SB    late to create DSS                             
 TREATMENT  1   : UYSB                    


     WATER BALANCE PARAMETERS
     ========================                  --mm--

     Soil H20 (start) on Year/day 2001/232     490.84
     Soil H20 (final) on Year/day 2002/032     495.88
     Effective Irrigation                        0.00
     Precipitation                            1055.30
     Drainage                                  419.46
     Runoff                                     68.62
     Soil Evaporation                          282.17
     Transpiration                             280.02
     Potential ET                              747.82

     Final Balance                            -0.0001

