*SOIL N BALANCE - CERES SOIL N&C ROUTINES

*DSSAT Cropping System Model Ver. 4.0.2.000               Jul 19, 2016; 15:34:38

*RUN   1        : UYMZ                    
 MODEL          : MZCER040 - Maize           
 EXPERIMENT     : UYMZ0018 MZ    late to create DSS                             
 TREATMENT  1   : UYMZ                    



                                         INITIAL Year/Doy      FINAL Year/Doy
                                                 1990/184            1991/009
SOIL N BALANCE                                  -----------kg N/ha-----------

   Soil Humus N                                  16646.04            16536.20
   Soil Litter N                                     0.00               10.66
   N in Surface Residue                              0.00                0.00
   Soil NO3                                         74.81                5.89
   Soil NH4                                         23.95                7.33
   Soil Urea                                         0.00                0.00

   Added to / Removed from Soil:
   N in Harvest Residues from Previous Crop          0.00
   N from Organic Applications                       0.00
   N from senesced plant matter                     15.09
   Fertilizer N                                      2.00
   Leached NO3                                                           4.59
   N Denitrified                                                         0.54
   N Uptake From Soil                                                  195.92
   Ammonia volatilization                                                0.76

   Total N balance                               16761.89            16761.89

================================================================================

*DSSAT Cropping System Model Ver. 4.0.2.000               Jul 19, 2016; 15:34:38

*RUN   2        : UYMZ                    
 MODEL          : MZCER040 - Maize           
 EXPERIMENT     : UYMZ0018 MZ    late to create DSS                             
 TREATMENT  1   : UYMZ                    



                                         INITIAL Year/Doy      FINAL Year/Doy
                                                 1991/184            1992/006
SOIL N BALANCE                                  -----------kg N/ha-----------

   Soil Humus N                                  16646.04            16538.44
   Soil Litter N                                     0.00               12.56
   N in Surface Residue                              0.00                0.00
   Soil NO3                                         74.81                6.60
   Soil NH4                                         23.95                8.20
   Soil Urea                                         0.00                0.00

   Added to / Removed from Soil:
   N in Harvest Residues from Previous Crop          0.00
   N from Organic Applications                       0.00
   N from senesced plant matter                     18.27
   Fertilizer N                                      2.00
   Leached NO3                                                          24.72
   N Denitrified                                                         2.67
   N Uptake From Soil                                                  170.92
   Ammonia volatilization                                                0.96

   Total N balance                               16765.07            16765.07

================================================================================

*DSSAT Cropping System Model Ver. 4.0.2.000               Jul 19, 2016; 15:34:38

*RUN   3        : UYMZ                    
 MODEL          : MZCER040 - Maize           
 EXPERIMENT     : UYMZ0018 MZ    late to create DSS                             
 TREATMENT  1   : UYMZ                    



                                         INITIAL Year/Doy      FINAL Year/Doy
                                                 1992/184            1993/014
SOIL N BALANCE                                  -----------kg N/ha-----------

   Soil Humus N                                  16646.04            16564.95
   Soil Litter N                                     0.00               18.00
   N in Surface Residue                              0.00                0.00
   Soil NO3                                         74.81                5.97
   Soil NH4                                         23.95                6.46
   Soil Urea                                         0.00                0.00

   Added to / Removed from Soil:
   N in Harvest Residues from Previous Crop          0.00
   N from Organic Applications                       0.00
   N from senesced plant matter                     19.67
   Fertilizer N                                      2.00
   Leached NO3                                                           0.00
   N Denitrified                                                         0.02
   N Uptake From Soil                                                  170.38
   Ammonia volatilization                                                0.70

   Total N balance                               16766.47            16766.48
