*SOIL NITROGEN DAILY OUTPUT FILE

*DSSAT Cropping System Model Ver. 4.0.2.000               Jul 19, 2016; 12:58:53

*RUN   1        : UYMZ                    
 MODEL          : MZCER040 - Maize           
 EXPERIMENT     : UYMZ0007 MZ    late to create DSS                             
 TREATMENT  1   : UYMZ                    

@YEAR DOY   DAS  NAPC  NI#M    NLCC   NIAD    NOAD   NITD   NHTD  NI1D  NI2D  NI3D  NI4D  NI5D  NI6D  NI7D  NI8D  NI9D  NI10  NH1D  NH2D  NH3D  NH4D  NH5D  NH6D  NH7D  NH8D  NH9D  NH10    NMNC    NITC    NDNC    NIMC    AMLC
 1990 184     0     0     0     0.0   99.3   16646   76.3   22.9  15.9  15.2  15.1   8.6   4.6   0.0   0.1   0.1   0.0   0.0   0.7   1.3   1.5   1.4   1.4  1.50  1.47  1.45  0.00  0.00    0.49    1.52    0.00    0.00    0.00
 1990 185     1     0     0     0.0   99.7   16645   77.5   22.2  16.3  15.4  15.2   8.7   4.6   0.0   0.1   0.1   0.0   0.0   0.4   1.2   1.4   1.4   1.4  1.51  1.43  1.41  0.00  0.00    0.97    2.73    0.00    0.00    0.00
 1990 186     2     0     0     0.0  100.2   16645   78.6   21.6  16.5  15.6  15.4   8.8   4.7   0.1   0.1   0.2   0.0   0.0   0.2   1.1   1.4   1.3   1.4  1.51  1.40  1.37  0.00  0.00    1.45    3.80    0.00    0.00    0.00
 1990 187     3     0     0     0.0  100.7   16644   79.6   21.1  16.6  15.8  15.5   8.8   4.8   0.1   0.2   0.2   0.0   0.0   0.2   1.0   1.4   1.3   1.3  1.51  1.37  1.33  0.00  0.00    1.94    4.80    0.00    0.00    0.00
 1990 188     4     2     2     0.0  103.2   16644   80.6   22.6  16.7  15.9  15.6   8.9   4.8   0.1   0.2   0.2   0.0   0.0   3.7   0.9   1.4   1.3   1.3  1.51  1.34  1.29  0.00  0.00    2.45    5.78    0.00    0.00    0.05
 1990 189     5     2     2     0.0  103.6   16643   82.7   20.9  19.0  16.1  15.7   9.0   4.9   0.1   0.3   0.3   0.0   0.0   1.4   0.9   1.4   1.2   1.2  1.52  1.31  1.25  0.00  0.00    2.96    7.91    0.00    0.00    0.08
 1990 190     6     2     2     0.0  104.1   16643   84.1   20.0  19.9  16.2  15.8   9.1   4.9   0.1   0.3   0.3   0.0   0.0   0.5   0.8   1.3   1.2   1.2  1.52  1.28  1.21  0.00  0.00    3.50    9.32    0.00    0.00    0.12
 1990 191     7     2     2     0.0  104.6   16642   85.2   19.4  20.3  16.4  16.0   9.1   5.0   0.1   0.4   0.4   0.0   0.0   0.2   0.8   1.3   1.1   1.2  1.52  1.25  1.17  0.00  0.00    4.04   10.37    0.00    0.00    0.17
 1990 192     8     2     2     0.0  105.1   16641   86.1   19.1  20.4  16.5  16.1   9.2   5.0   0.2   0.4   0.4   0.0   0.0   0.1   0.7   1.3   1.1   1.1  1.53  1.22  1.14  0.00  0.00    4.56   11.24    0.00    0.00    0.21
 1990 193     9     2     2     0.0  105.6   16641   86.9   18.7  20.4  16.6  16.2   9.3   5.1   0.2   0.4   0.5   0.0   0.0   0.0   0.7   1.3   1.1   1.1  1.53  1.19  1.10  0.00  0.00    5.07   12.05    0.00    0.00    0.24
 1990 194    10     2     2     0.0  106.1   16640   87.7   18.4  20.5  16.7  16.3   9.3   5.1   0.2   0.5   0.5   0.0   0.0   0.1   0.6   1.3   1.0   1.1  1.53  1.17  1.07  0.00  0.00    5.59   12.83    0.00    0.00    0.25
 1990 195    11     2     2     0.0  106.6   16640   88.4   18.2  20.6  16.8  16.4   9.4   5.2   0.2   0.5   0.5   0.0   0.0   0.1   0.6   1.3   1.0   1.0  1.53  1.14  1.04  0.00  0.00    6.10   13.61    0.00    0.00    0.27
 1990 196    12     2     2     0.0  107.1   16639   89.2   17.9  20.6  16.9  16.5   9.4   5.2   0.2   0.5   0.6   0.0   0.0   0.1   0.6   1.3   1.0   1.0  1.54  1.12  1.01  0.00  0.00    6.61   14.37    0.00    0.00    0.29
 1990 197    13     2     2     0.0  107.6   16639   90.0   17.7  20.7  17.0  16.6   9.5   5.3   0.3   0.6   0.6   0.0   0.0   0.1   0.6   1.3   1.0   1.0  1.54  1.09  0.98  0.00  0.00    7.15   15.14    0.00    0.00    0.30
 1990 198    14     2     2     0.0  108.1   16638   90.7   17.4  20.8  17.1  16.7   9.5   5.3   0.3   0.6   0.6   0.0   0.0   0.1   0.6   1.2   0.9   1.0  1.54  1.07  0.95  0.00  0.00    7.68   15.89    0.00    0.00    0.30
 1990 199    15     2     2     0.0  108.7   16638   91.5   17.2  20.9  17.2  16.8   9.6   5.4   0.3   0.6   0.7   0.0   0.0   0.1   0.6   1.2   0.9   0.9  1.54  1.05  0.92  0.00  0.00    8.21   16.64    0.00    0.00    0.31
 1990 200    16     2     2     0.0  109.2   16637   92.2   17.0  20.7  17.4  16.9   9.6   5.4   0.3   0.7   0.7   0.0   0.0   0.1   0.5   1.2   0.9   0.9  1.55  1.03  0.90  0.00  0.00    8.70   17.33    0.00    0.00    0.31
 1990 201    17     2     2     0.0  109.6   16637   92.8   16.8  20.7  17.5  17.0   9.7   5.4   0.3   0.7   0.7   0.0   0.0   0.1   0.5   1.2   0.9   0.9  1.55  1.01  0.87  0.00  0.00    9.14   17.97    0.00    0.00    0.31
 1990 202    18     2     2     0.0  110.0   16637   93.4   16.6  20.7  17.6  17.1   9.7   5.5   0.3   0.7   0.7   0.0   0.0   0.1   0.5   1.2   0.9   0.9  1.55  0.99  0.85  0.00  0.00    9.53   18.55    0.00    0.00    0.31
 1990 203    19     2     2     0.0  110.3   16636   93.9   16.4  20.8  17.6  17.2   9.8   5.5   0.4   0.8   0.8   0.0   0.0   0.1   0.5   1.2   0.8   0.9  1.55  0.97  0.82  0.00  0.00    9.87   19.09    0.00    0.00    0.32
 1990 204    20     2     2     0.0  110.6   16636   94.4   16.2  20.8  17.7  17.3   9.8   5.5   0.4   0.8   0.8   0.0   0.0   0.1   0.5   1.2   0.8   0.9  1.55  0.95  0.80  0.00  0.00   10.18   19.58    0.00    0.00    0.32
 1990 205    21     2     2     0.0  110.9   16636   94.9   16.0  20.9  17.7  17.3   9.8   5.6   0.4   0.8   0.8   0.0   0.0   0.1   0.5   1.2   0.8   0.8  1.56  0.94  0.78  0.00  0.00   10.48   20.06    0.00    0.00    0.32
 1990 206    22     2     2     0.0  111.3   16635   95.4   15.9  20.9  17.7  17.4   9.9   5.6   0.4   0.8   0.8   0.0   0.0   0.1   0.5   1.2   0.8   0.8  1.56  0.92  0.76  0.00  0.00   10.81   20.56    0.00    0.00    0.32
 1990 207    23     2     2     0.0  111.6   16635   95.9   15.7  21.0  17.8  17.5   9.9   5.6   0.4   0.9   0.9   0.0   0.0   0.1   0.5   1.1   0.8   0.8  1.56  0.90  0.74  0.00  0.00   11.14   21.04    0.00    0.00    0.32
 1990 208    24     2     2     0.0  111.9   16635   96.4   15.6  21.0  17.8  17.6   9.9   5.6   0.4   0.9   0.9   0.0   0.0   0.1   0.4   1.1   0.8   0.8  1.56  0.89  0.72  0.00  0.00   11.49   21.53    0.00    0.00    0.33
 1990 209    25     2     2     0.0  112.3   16634   96.9   15.4  21.1  17.9  17.6  10.0   5.7   0.4   0.9   0.9   0.0   0.0   0.1   0.4   1.1   0.8   0.8  1.56  0.87  0.70  0.00  0.00   11.87   22.04    0.00    0.00    0.33
 1990 210    26     2     2     0.0  112.7   16634   97.4   15.3  21.1  17.9  17.7  10.0   5.7   0.5   0.9   0.9   0.0   0.0   0.1   0.4   1.1   0.8   0.8  1.57  0.86  0.68  0.00  0.00   12.25   22.54    0.00    0.00    0.33
 1990 211    27     2     2     0.0  113.0   16633   97.8   15.2  21.2  18.0  17.8  10.0   5.7   0.5   1.0   1.0   0.0   0.0   0.1   0.4   1.1   0.7   0.8  1.57  0.84  0.67  0.00  0.00   12.61   23.03    0.00    0.00    0.33
 1990 212    28     2     2     0.0  113.4   16633   98.3   15.1  21.3  18.0  17.8  10.0   5.7   0.5   1.0   1.0   0.0   0.0   0.1   0.4   1.1   0.7   0.8  1.57  0.83  0.65  0.00  0.00   12.99   23.52    0.00    0.00    0.33
 1990 213    29     2     2     0.0  113.8   16633   98.8   15.0  21.3  18.1  17.9  10.1   5.8   0.5   1.0   1.0   0.0   0.0   0.1   0.4   1.1   0.7   0.7  1.57  0.82  0.63  0.00  0.00   13.38   24.02    0.00    0.00    0.33
 1990 214    30     2     2     0.0  114.2   16632   99.3   14.9  21.4  18.1  18.0  10.1   5.8   0.5   1.0   1.0   0.0   0.0   0.1   0.4   1.1   0.7   0.7  1.57  0.80  0.62  0.00  0.00   13.78   24.52    0.00    0.00    0.34
 1990 215    31     2     2     0.0  114.6   16632   99.9   14.8  21.5  18.2  18.1  10.1   5.8   0.5   1.1   1.0   0.0   0.0   0.1   0.4   1.1   0.7   0.7  1.57  0.79  0.60  0.00  0.00   14.22   25.04    0.00    0.00    0.34
 1990 216    32     2     2     0.0  115.1   16631  100.4   14.7  21.6  18.2  18.2  10.2   5.8   0.6   1.1   1.1   0.0   0.0   0.1   0.4   1.1   0.7   0.7  1.58  0.78  0.58  0.00  0.00   14.70   25.60    0.00    0.00    0.34
 1990 217    33     2     2     0.0  115.6   16631  101.0   14.6  21.7  18.3  18.3  10.2   5.9   0.6   1.1   1.1   0.0   0.0   0.1   0.5   1.1   0.7   0.7  1.58  0.76  0.57  0.00  0.00   15.22   26.20    0.00    0.00    0.34
 1990 218    34     2     2     0.0  116.2   16630  101.7   14.6  21.8  18.4  18.4  10.3   5.9   0.6   1.1   1.1   0.0   0.0   0.1   0.5   1.1   0.7   0.7  1.58  0.75  0.55  0.00  0.00   15.81   26.85    0.00    0.00    0.34
 1990 219    35     2     2     0.0  116.8   16630  102.4   14.5  22.0  18.5  18.5  10.3   5.9   0.6   1.2   1.1   0.0   0.0   0.1   0.5   1.1   0.7   0.7  1.58  0.74  0.54  0.00  0.00   16.42   27.54    0.00    0.00    0.34
 1990 220    36     2     2     0.0  117.5   16629  103.1   14.4  22.1  18.6  18.6  10.3   6.0   0.6   1.2   1.1   0.0   0.0   0.1   0.5   1.1   0.7   0.7  1.59  0.73  0.53  0.00  0.00   17.08   28.27    0.00    0.00    0.34
 1990 221    37     2     2     0.0  118.0   16628  103.7   14.3  22.3  18.5  18.7  10.4   6.0   0.7   1.2   1.2   0.0   0.0   0.1   0.5   1.1   0.7   0.7  1.59  0.71  0.51  0.00  0.00   17.75   29.02    0.00    0.00    0.34
 1990 222    38     2     2     0.0  118.7   16628  104.4   14.3  22.4  18.7  18.8  10.4   6.0   0.7   1.2   1.2   0.0   0.0   0.1   0.5   1.1   0.7   0.7  1.59  0.70  0.50  0.00  0.00   18.43   29.77    0.00    0.00    0.34
 1990 223    39     2     2     0.0  119.2   16627  105.1   14.1  22.6  18.8  18.9  10.5   6.1   0.7   1.3   1.2   0.0   0.0   0.0   0.4   1.1   0.6   0.7  1.59  0.69  0.49  0.00  0.00   18.97   30.50    0.00    0.00    0.35
 1990 224    40     2     2     0.0  119.7   16627  105.8   13.9  22.7  18.9  19.1  10.5   6.1   0.7   1.3   1.2   0.0   0.0   0.0   0.4   1.1   0.6   0.7  1.59  0.68  0.47  0.00  0.00   19.52   31.18    0.00    0.00    0.35
 1990 225    41     2     2     0.0  120.3   16626  106.5   13.8  22.8  19.0  19.2  10.6   6.1   0.7   1.3   1.2   0.0   0.0   0.0   0.3   1.1   0.6   0.6  1.60  0.67  0.46  0.00  0.00   20.07   31.85    0.00    0.00    0.35
 1990 226    42     2     2     0.0  120.9   16625  107.1   13.7  22.8  19.0  19.3  10.6   6.2   0.8   1.3   1.2   0.0   0.0   0.0   0.3   1.1   0.6   0.6  1.60  0.66  0.45  0.00  0.00   20.64   32.51    0.00    0.00    0.35
 1990 227    43     2     2     0.0  121.4   16625  107.8   13.6  11.7  24.7  19.4  10.6   6.2   0.8   1.3   1.3   0.0   0.0   0.0   0.3   1.1   0.6   0.6  1.60  0.65  0.44  0.00  0.00   21.21   33.18    0.00    0.00    0.35
 1990 228    44     2     2     0.0  122.1   16624  108.4   13.7  10.9  25.0  19.7  10.7   6.2   0.8   1.4   1.3   0.0   0.0   0.1   0.3   1.1   0.6   0.6  1.60  0.64  0.43  0.00  0.00   21.88   33.79    0.00    0.00    0.35
 1990 229    45     2     2     0.0  122.6   16624  109.0   13.6  11.0  24.9  19.9  10.7   6.3   0.8   1.4   1.3   0.0   0.0   0.1   0.4   1.1   0.6   0.6  1.60  0.63  0.42  0.00  0.00   22.45   34.46    0.00    0.00    0.35
 1990 230    46     2     2     0.0  123.1   16623  109.6   13.5  11.1  24.8  20.1  10.8   6.3   0.8   1.4   1.3   0.0   0.0   0.1   0.4   1.0   0.6   0.6  1.61  0.62  0.41  0.00  0.00   22.97   35.08    0.00    0.00    0.36
 1990 231    47     2     2     0.0  123.5   16623  110.1   13.4  11.2  24.7  20.3  10.8   6.3   0.8   1.4   1.3   0.0   0.0   0.1   0.4   1.0   0.6   0.6  1.61  0.61  0.40  0.00  0.00   23.46   35.65    0.00    0.00    0.36
 1990 232    48     2     2     0.0  123.8   16622  110.5   13.3  11.2  24.6  20.4  10.8   6.4   0.9   1.4   1.3   0.0   0.0   0.1   0.4   1.0   0.6   0.6  1.61  0.60  0.39  0.00  0.00   23.92   36.20    0.00    0.00    0.36
 1990 233    49     2     2     0.0  123.9   16622  110.7   13.2  11.3  24.5  20.5  10.9   6.4   0.9   1.5   1.4   0.0   0.0   0.1   0.4   0.9   0.6   0.6  1.61  0.60  0.38  0.00  0.00   24.39   36.76    0.00    0.00    0.37
 1990 234    50     2     2     0.0  124.0   16621  110.9   13.1  11.4  24.3  20.5  10.9   6.4   0.9   1.5   1.4   0.0   0.0   0.1   0.4   0.9   0.6   0.6  1.61  0.59  0.37  0.00  0.00   24.86   37.31    0.00    0.00    0.37
 1990 235    51     2     2     0.0  124.2   16621  111.1   13.0  11.4  24.2  20.5  10.9   6.4   0.9   1.5   1.4   0.0   0.0   0.1   0.4   0.9   0.6   0.6  1.61  0.58  0.36  0.00  0.00   25.32   37.85    0.00    0.00    0.37
 1990 236    52     2     2     0.0  124.2   16620  111.2   13.0  11.5  24.1  20.5  11.0   6.5   0.9   1.5   1.4   0.0   0.0   0.1   0.4   0.9   0.6   0.6  1.62  0.58  0.36  0.00  0.00   25.76   38.36    0.00    0.00    0.37
 1990 237    53     2     2     0.0  124.5   16620  111.7   12.9  11.5  24.2  20.6  11.0   6.5   1.0   1.5   1.4   0.0   0.0   0.1   0.4   0.9   0.6   0.6  1.62  0.57  0.35  0.00  0.00   26.18   38.85    0.00    0.00    0.37
 1990 238    54     2     2     0.0  124.8   16619  112.0   12.8  11.6  24.2  20.6  11.0   6.5   1.0   1.5   1.4   0.0   0.0   0.1   0.4   0.8   0.6   0.6  1.62  0.56  0.34  0.00  0.00   26.60   39.34    0.00    0.00    0.37
 1990 239    55     2     2     0.0  124.6   16619  111.9   12.7   4.0  21.2  24.9  11.0   6.5   1.0   1.6   1.4   0.0   0.0   0.1   0.4   0.8   0.6   0.6  1.62  0.56  0.33  0.00  0.00   27.03   39.84    0.00    0.00    0.38
 1990 240    56     2     2     0.0  124.6   16618  111.8   12.9   3.9  20.3  25.2  11.2   6.6   1.0   1.6   1.4   0.0   0.0   0.1   0.4   0.9   0.6   0.6  1.62  0.55  0.33  0.00  0.00   27.58   40.24    0.00    0.00    0.38
 1990 241    57     2     2     0.0  124.5   16618  111.6   13.0   3.9  19.8  25.1  11.3   6.6   1.0   1.6   1.4   0.0   0.0   0.1   0.5   0.9   0.6   0.6  1.62  0.54  0.32  0.00  0.00   28.11   40.69    0.00    0.00    0.38
 1990 242    58     2     2     0.0  125.0   16617  112.1   12.9   4.0  19.9  25.1  11.4   6.6   1.0   1.6   1.5   0.0   0.0   0.1   0.5   0.9   0.6   0.6  1.63  0.54  0.31  0.00  0.00   28.62   41.20    0.00    0.00    0.38
 1990 243    59     2     2     0.0  125.5   16617  112.6   12.9   4.1  19.9  25.1  11.5   6.6   1.1   1.6   1.5   0.0   0.0   0.1   0.5   0.9   0.6   0.6  1.63  0.53  0.31  0.00  0.00   29.12   41.70    0.00    0.00    0.39
 1990 244    60     2     2     0.0  125.9   16616  113.0   12.9   4.3  19.9  25.1  11.6   6.6   1.1   1.6   1.5   0.0   0.0   0.1   0.5   0.9   0.6   0.6  1.63  0.53  0.30  0.00  0.00   29.55   42.15    0.00    0.00    0.39
 1990 245    61     2     2     0.0  126.2   16616  113.3   12.9   4.2  20.0  25.0  11.8   6.7   1.1   1.7   1.5   0.0   0.0   0.1   0.5   0.9   0.6   0.6  1.63  0.52  0.30  0.00  0.00   29.95   42.57    0.00    0.00    0.39
 1990 246    62     2     2     0.0  126.5   16616  113.7   12.9   4.3  20.0  25.0  11.8   6.7   1.1   1.7   1.5   0.0   0.0   0.1   0.5   0.9   0.6   0.6  1.63  0.52  0.29  0.00  0.00   30.35   42.99    0.00    0.00    0.39
 1990 247    63     2     2     0.0  126.9   16615  114.1   12.9   4.5  20.0  25.0  11.9   6.7   1.1   1.7   1.5   0.0   0.0   0.1   0.5   0.9   0.6   0.6  1.63  0.51  0.29  0.00  0.00   30.76   43.41    0.00    0.00    0.40
 1990 248    64     2     2     0.0  127.3   16615  114.4   12.8   4.7  20.0  25.0  12.0   6.7   1.1   1.7   1.5   0.0   0.0   0.1   0.5   0.9   0.6   0.6  1.63  0.51  0.28  0.00  0.00   31.14   43.82    0.00    0.00    0.40
 1990 249    65     2     2     0.0  127.5   16614  114.7   12.8   4.9  20.0  24.9  12.1   6.7   1.2   1.7   1.5   0.0   0.0   0.1   0.5   0.9   0.6   0.6  1.63  0.50  0.28  0.00  0.00   31.55   44.25    0.00    0.00    0.40
 1990 250    66     2     2     0.0  127.9   16614  115.0   12.8   4.7  20.1  24.9  12.2   6.8   1.2   1.7   1.5   0.0   0.0   0.1   0.5   1.0   0.6   0.6  1.64  0.50  0.27  0.00  0.00   31.99   44.69    0.00    0.00    0.40
 1990 251    67     2     2     0.0  128.2   16614  115.4   12.8   2.7  17.7  27.1  12.3   6.8   1.2   1.7   1.5   0.0   0.0   0.2   0.5   1.0   0.6   0.6  1.64  0.50  0.27  0.00  0.00   32.47   45.14    0.00    0.00    0.41
 1990 252    68     2     2     0.0  128.6   16613  115.6   13.0   2.8  17.3  26.6  13.0   6.8   1.2   1.8   1.5   0.0   0.0   0.1   0.5   1.0   0.6   0.6  1.64  0.49  0.26  0.00  0.00   32.93   45.46    0.00    0.00    0.41
 1990 253    69     2     2     0.0  129.0   16613  115.9   13.0   3.1  17.0  26.5  13.2   6.8   1.2   1.8   1.6   0.0   0.0   0.1   0.6   1.0   0.6   0.6  1.64  0.49  0.26  0.00  0.00   33.43   45.90    0.00    0.00    0.41
 1990 254    70     2     2     0.0  128.8   16612  115.8   13.0   2.0  13.7  25.7  15.7   7.2   1.3   1.8   1.6   0.0   0.0   0.1   0.6   1.0   0.6   0.6  1.64  0.48  0.25  0.00  0.00   33.98   46.47    0.00    0.00    0.41
 1990 255    71     2     2     0.0  128.7   16611  115.4   13.3   2.0  13.4  24.9  15.5   8.0   1.3   1.8   1.6   0.0   0.0   0.2   0.7   1.1   0.6   0.6  1.64  0.48  0.25  0.00  0.00   34.55   46.73    0.00    0.00    0.42
 1990 256    72     2     2     0.0  128.5   16611  115.0   13.5   2.3  13.1  24.4  15.4   8.4   1.3   1.8   1.6   0.0   0.0   0.1   0.7   1.2   0.6   0.6  1.64  0.48  0.25  0.00  0.00   35.12   47.08    0.00    0.00    0.42
 1990 257    73     2     2     0.0  128.3   16610  114.7   13.6   2.7  12.8  24.0  15.3   8.5   1.3   1.8   1.6   0.0   0.0   0.1   0.7   1.2   0.7   0.6  1.64  0.47  0.24  0.00  0.00   35.67   47.53    0.00    0.00    0.43
 1990 258    74     2     2     0.0  128.3   16610  114.7   13.5   3.1  12.7  23.9  15.4   8.5   1.3   1.8   1.6   0.0   0.0   0.1   0.7   1.2   0.7   0.6  1.65  0.47  0.24  0.00  0.00   36.18   48.06    0.00    0.00    0.43
 1990 259    75     2     2     0.0  127.7   16609  114.2   13.5   3.4  12.5  23.5  15.3   8.5   1.4   1.9   1.6   0.0   0.0   0.1   0.6   1.2   0.7   0.6  1.65  0.47  0.24  0.00  0.00   36.65   48.55    0.01    0.00    0.43
 1990 260    76     2     2     0.0  127.7   16609  114.3   13.5   3.8  12.4  23.4  15.3   8.6   1.4   1.9   1.6   0.0   0.0   0.1   0.6   1.2   0.7   0.6  1.65  0.46  0.23  0.00  0.00   37.11   49.02    0.01    0.00    0.43
 1990 261    77     2     2     0.0  127.4   16608  114.0   13.4   2.0   9.5  21.9  16.5  10.0   1.7   1.9   1.6   0.0   0.0   0.1   0.6   1.2   0.7   0.6  1.65  0.46  0.23  0.00  0.00   37.58   49.55    0.01    0.00    0.44
 1990 262    78     2     2     0.2  127.0   16608  113.3   13.7   2.0   9.2  21.1  16.1  10.1   2.0   1.9   1.7   0.0   0.0   0.2   0.7   1.2   0.7   0.6  1.65  0.46  0.23  0.00  0.00   38.08   49.74    0.01    0.00    0.44
 1990 263    79     2     2     0.4  126.1   16607  112.1   13.9   2.1   8.9  20.4  15.7  10.1   2.2   1.9   1.7   0.0   0.0   0.1   0.7   1.3   0.7   0.6  1.65  0.46  0.22  0.00  0.00   38.61   49.99    0.01    0.00    0.44
 1990 264    80     2     2     0.5  126.5   16607  112.4   14.1   2.4   9.0  20.4  15.6  10.1   2.3   2.0   1.7   0.0   0.0   0.1   0.7   1.4   0.8   0.6  1.66  0.47  0.22  0.00  0.00   39.13   50.29    0.01    0.00    0.45
 1990 265    81     2     2     0.5  126.7   16606  112.5   14.2   2.6   9.0  20.4  15.5  10.1   2.4   2.0   1.7   0.0   0.0   0.1   0.6   1.3   0.8   0.6  1.68  0.47  0.23  0.00  0.00   39.65   50.73    0.01    0.00    0.45
 1990 266    82     2     2     0.5  124.7   16606  110.5   14.2   2.8   8.6  19.5  15.3  10.1   2.4   2.0   1.7   0.0   0.0   0.1   0.6   1.3   0.8   0.7  1.69  0.48  0.23  0.00  0.00   40.18   51.16    0.03    0.00    0.45
 1990 267    83     2     2     0.5  124.4   16605  110.1   14.3   3.0   8.6  19.3  15.2  10.1   2.4   2.0   1.7   0.0   0.0   0.1   0.6   1.3   0.8   0.7  1.70  0.49  0.23  0.00  0.00   40.69   51.57    0.04    0.00    0.46
 1990 268    84     2     2     0.5  124.4   16605  110.0   14.3   3.3   8.6  19.2  15.2  10.1   2.4   2.0   1.7   0.0   0.0   0.1   0.6   1.2   0.8   0.7  1.72  0.49  0.23  0.00  0.00   41.18   52.02    0.05    0.00    0.46
 1990 269    85     2     2     0.5  124.1   16604  109.8   14.3   3.5   8.5  18.9  15.2  10.1   2.4   2.0   1.7   0.0   0.0   0.1   0.6   1.2   0.8   0.7  1.73  0.50  0.23  0.00  0.00   41.67   52.46    0.05    0.00    0.46
 1990 270    86     2     2     0.5  123.7   16604  109.3   14.4   3.6   8.5  18.7  15.1  10.1   2.4   2.0   1.7   0.0   0.0   0.1   0.6   1.2   0.8   0.7  1.74  0.50  0.23  0.00  0.00   42.16   52.89    0.06    0.00    0.46
 1990 271    87     2     2     0.5  122.4   16603  108.0   14.4   3.7   8.3  18.1  15.0  10.1   2.4   2.0   1.7   0.0   0.0   0.1   0.5   1.2   0.8   0.8  1.76  0.51  0.23  0.00  0.00   42.66   53.34    0.06    0.00    0.47
 1990 272    88     2     2     0.5  122.0   16603  107.6   14.4   3.9   8.3  17.9  14.9  10.1   2.4   2.0   1.7   0.0   0.0   0.1   0.5   1.2   0.7   0.8  1.77  0.51  0.23  0.00  0.00   43.20   53.80    0.07    0.00    0.47
 1990 273    89     2     2     0.5  120.1   16602  105.7   14.4   3.9   8.0  17.1  14.7  10.1   2.4   2.0   1.7   0.0   0.0   0.1   0.5   1.1   0.7   0.8  1.78  0.52  0.24  0.00  0.00   43.76   54.30    0.07    0.00    0.47
 1990 274    90     2     2     0.5  118.5   16602  104.0   14.4   3.9   7.8  16.5  14.5  10.1   2.4   2.0   1.7   0.0   0.0   0.1   0.5   1.1   0.7   0.8  1.80  0.53  0.24  0.00  0.00   44.36   54.82    0.07    0.00    0.47
 1990 275    91     2     2     0.5  116.0   16601  101.7   14.3   3.9   7.5  15.6  14.2  10.1   2.5   2.0   1.7   0.0   0.0   0.1   0.5   1.1   0.7   0.8  1.80  0.53  0.24  0.00  0.00   44.99   55.50    0.07    0.00    0.48
 1990 276    92     2     2     0.5  113.1   16600   99.0   14.2   3.8   7.2  14.6  13.9  10.0   2.5   2.0   1.7   0.0   0.0   0.1   0.5   1.0   0.7   0.8  1.80  0.54  0.24  0.00  0.00   45.61   56.17    0.07    0.00    0.48
 1990 277    93     2     2     0.5  110.2   16600   96.2   14.0   3.7   6.8  13.7  13.5   9.8   2.5   2.0   1.7   0.0   0.0   0.1   0.4   1.0   0.7   0.7  1.80  0.54  0.24  0.00  0.00   46.25   56.86    0.07    0.00    0.48
 1990 278    94     2     2     0.5  106.7   16599   92.8   13.9   3.6   6.4  12.7  13.1   9.6   2.5   2.0   1.7   0.0   0.0   0.1   0.4   1.0   0.7   0.7  1.80  0.55  0.24  0.00  0.00   46.91   57.57    0.07    0.00    0.48
 1990 279    95     2     2     0.5  105.4   16599   91.6   13.8   2.0   6.6  12.5  12.9   9.5   2.6   2.0   1.7   0.0   0.0   0.1   0.4   0.9   0.6   0.7  1.80  0.55  0.24  0.00  0.00   47.54   58.24    0.07    0.00    0.49
 1990 280    96     2     2     0.5  102.8   16598   88.8   13.9   1.7   6.0  12.0  12.6   9.3   2.6   2.0   1.7   0.0   0.0   0.2   0.5   0.9   0.6   0.7  1.79  0.56  0.25  0.00  0.00   48.22   58.72    0.07    0.00    0.49
 1990 281    97     2     2     0.6  100.9   16597   86.9   14.0   0.7   3.6   9.5  11.9  10.6   3.5   2.2   1.8   0.0   0.0   0.2   0.6   0.9   0.6   0.7  1.79  0.56  0.25  0.00  0.00   48.89   59.20    0.07    0.00    0.52
 1990 282    98     2     2     1.3   97.7   16597   83.2   14.4   0.6   3.2   8.6  11.0  10.0   3.7   2.3   1.8   0.0   0.0   0.3   0.7   1.0   0.7   0.7  1.81  0.57  0.25  0.00  0.00   49.52   59.33    0.08    0.00    0.52
 1990 283    99     2     2     1.6   93.2   16596   78.7   14.6   0.8   2.8   7.5  10.2   9.4   3.7   2.4   1.8   0.0   0.0   0.1   0.8   1.0   0.7   0.7  1.83  0.58  0.25  0.00  0.00   50.12   59.63    0.09    0.00    0.53
 1990 284   100     2     2     1.8   90.1   16595   75.6   14.5   0.9   2.6   6.7   9.7   9.0   3.7   2.4   1.9   0.0   0.0   0.1   0.7   1.0   0.7   0.7  1.84  0.58  0.25  0.00  0.00   50.73   60.12    0.09    0.00    0.53
 1990 285   101     2     2     1.9   88.4   16595   73.8   14.6   0.4   1.8   5.3   8.4   9.1   4.5   2.8   2.0   0.0   0.0   0.1   0.6   0.9   0.7   0.7  1.84  0.59  0.25  0.00  0.00   51.34   60.58    0.09    0.00    0.54
 1990 286   102     2     2     2.6   82.3   16594   67.6   14.7   0.3   1.4   4.1   7.3   8.1   4.4   2.8   2.0   0.0   0.0   0.2   0.7   0.9   0.7   0.7  1.84  0.60  0.25  0.00  0.00   51.94   60.70    0.31    0.00    0.54
 1990 287   103     2     2     3.0   78.4   16594   63.9   14.5   0.5   1.3   3.5   6.7   7.5   4.3   2.8   2.0   0.0   0.0   0.1   0.6   0.9   0.7   0.8  1.83  0.60  0.26  0.00  0.00   52.55   61.19    0.42    0.00    0.54
 1990 288   104     2     2     3.2   74.5   16593   60.3   14.2   0.5   1.2   2.9   6.3   7.0   4.1   2.8   2.1   0.0   0.0   0.1   0.6   0.8   0.7   0.8  1.80  0.61  0.26  0.00  0.00   53.16   61.69    0.46    0.00    0.55
 1990 289   105     2     2     3.3   70.8   16592   56.8   13.9   0.5   1.1   2.4   5.8   6.6   3.9   2.8   2.1   0.0   0.0   0.1   0.5   0.8   0.7   0.8  1.76  0.61  0.26  0.00  0.00   53.77   62.16    0.48    0.00    0.55
 1990 290   106     2     2     3.3   67.4   16592   53.8   13.6   0.5   1.0   2.0   5.4   6.2   3.7   2.8   2.1   0.0   0.0   0.1   0.5   0.8   0.7   0.7  1.71  0.62  0.26  0.00  0.00   54.37   62.68    0.49    0.00    0.55
 1990 291   107     2     2     3.3   65.9   16591   52.4   13.5   0.6   1.0   1.8   5.2   6.0   3.6   2.8   2.1   0.0   0.0   0.1   0.5   0.8   0.6   0.7  1.69  0.62  0.26  0.00  0.00   54.97   63.19    0.49    0.00    0.56
 1990 292   108     2     2     3.3   60.4   16591   47.5   12.9   0.5   0.8   1.3   4.6   5.3   3.3   2.8   2.1   0.0   0.0   0.1   0.5   0.7   0.6   0.7  1.60  0.63  0.26  0.00  0.00   55.59   63.70    0.50    0.00    0.56
 1990 293   109     2     2     3.3   56.7   16590   44.2   12.6   0.3   0.7   1.0   4.2   4.8   3.1   2.8   2.1   0.0   0.0   0.2   0.5   0.7   0.6   0.7  1.53  0.63  0.26  0.00  0.00   56.21   64.15    0.50    0.00    0.56
 1990 294   110     2     2     3.3   52.4   16589   40.3   12.1   0.5   0.5   0.7   3.6   4.3   2.8   2.9   2.1   0.0   0.0   0.1   0.6   0.7   0.6   0.6  1.44  0.64  0.26  0.00  0.00   56.85   64.65    0.50    0.00    0.57
 1990 295   111     2     2     3.3   46.9   16589   35.5   11.4   0.4   0.4   0.4   2.9   3.6   2.4   2.9   2.1   0.0   0.0   0.1   0.5   0.6   0.6   0.6  1.31  0.64  0.26  0.00  0.00   57.50   65.23    0.51    0.00    0.57
 1990 296   112     2     2     3.3   41.5   16588   30.8   10.7   0.4   0.4   0.3   2.2   2.8   2.0   2.9   2.1   0.0   0.0   0.1   0.5   0.6   0.5   0.6  1.17  0.65  0.27  0.00  0.00   58.18   65.79    0.51    0.00    0.57
 1990 297   113     2     2     3.3   37.5   16587   27.3   10.2   0.4   0.4   0.3   1.7   2.2   1.7   2.9   2.1   0.0   0.0   0.1   0.5   0.6   0.5   0.6  1.06  0.65  0.27  0.00  0.00   58.85   66.34    0.51    0.00    0.57
 1990 298   114     2     2     3.3   34.3   16587   24.5    9.7   0.4   0.4   0.3   1.3   1.7   1.4   2.9   2.1   0.0   0.0   0.1   0.5   0.6   0.5   0.5  0.97  0.66  0.27  0.00  0.00   59.50   66.87    0.51    0.00    0.58
 1990 299   115     2     2     3.3   31.7   16586   22.3    9.4   0.4   0.4   0.3   1.0   1.4   1.2   2.9   2.1   0.0   0.0   0.1   0.5   0.6   0.5   0.5  0.89  0.66  0.27  0.00  0.00   60.14   67.39    0.51    0.00    0.58
 1990 300   116     2     2     3.3   29.8   16586   20.6    9.1   0.4   0.4   0.3   0.8   1.1   1.0   2.9   2.1   0.0   0.0   0.1   0.5   0.6   0.5   0.5  0.83  0.67  0.27  0.00  0.00   60.78   67.91    0.52    0.00    0.58
 1990 301   117     2     2     3.3   28.2   16585   19.3    8.9   0.4   0.4   0.3   0.6   0.9   0.8   2.9   2.1   0.0   0.0   0.1   0.5   0.6   0.5   0.5  0.79  0.67  0.27  0.00  0.00   61.41   68.44    0.52    0.00    0.59
 1990 302   118     2     2     3.3   26.9   16584   18.2    8.7   0.4   0.4   0.3   0.5   0.7   0.7   2.9   2.1   0.0   0.0   0.1   0.5   0.6   0.5   0.5  0.75  0.67  0.27  0.00  0.00   62.02   68.95    0.52    0.00    0.59
 1990 303   119     2     2     3.3   25.9   16584   17.3    8.6   0.1   0.4   0.4   0.4   0.6   0.6   2.9   2.1   0.0   0.0   0.2   0.4   0.6   0.5   0.5  0.72  0.68  0.27  0.00  0.00   62.65   69.42    0.52    0.00    0.59
 1990 304   120     2     2     3.3   25.3   16583   16.7    8.6   0.4   0.3   0.3   0.4   0.5   0.5   2.9   2.1   0.0   0.0   0.1   0.6   0.6   0.5   0.5  0.69  0.68  0.27  0.00  0.00   63.35   69.91    0.52    0.00    0.59
 1990 305   121     2     2     3.3   24.7   16582   16.2    8.5   0.3   0.4   0.3   0.3   0.4   0.4   2.9   2.1   0.0   0.0   0.1   0.5   0.6   0.5   0.5  0.67  0.69  0.28  0.00  0.00   64.06   70.46    0.52    0.00    0.59
 1990 306   122     2     2     3.3   24.3   16582   15.8    8.5   0.3   0.4   0.3   0.3   0.3   0.3   2.9   2.1   0.0   0.0   0.2   0.5   0.6   0.5   0.5  0.65  0.69  0.28  0.00  0.00   64.75   70.93    0.52    0.00    0.60
 1990 307   123     2     2     3.3   24.0   16581   15.7    8.3   0.6   0.4   0.3   0.3   0.3   0.3   3.0   2.1   0.0   0.0   0.1   0.5   0.6   0.5   0.5  0.64  0.68  0.28  0.00  0.00   65.43   71.60    0.53    0.00    0.60
 1990 308   124     2     2     3.3   23.2   16580   15.0    8.2   0.1   0.4   0.4   0.3   0.3   0.3   2.7   2.1   0.0   0.0   0.1   0.5   0.6   0.5   0.5  0.63  0.66  0.28  0.00  0.00   66.12   72.15    0.53    0.00    0.60
 1990 309   125     2     2     3.3   22.4   16580   14.0    8.4   0.1   0.3   0.3   0.3   0.3   0.3   2.5   2.1   0.0   0.0   0.2   0.6   0.7   0.5   0.5  0.62  0.63  0.28  0.00  0.00   66.80   72.42    0.53    0.00    0.60
 1990 310   126     2     2     3.3   21.8   16579   13.6    8.2   0.3   0.4   0.3   0.3   0.3   0.3   2.2   2.1   0.0   0.0   0.1   0.5   0.7   0.5   0.5  0.61  0.61  0.28  0.00  0.00   67.47   72.98    0.53    0.00    0.61
 1990 311   127     2     2     3.3   21.0   16579   13.0    8.0   0.4   0.4   0.3   0.3   0.3   0.3   1.9   2.1   0.0   0.0   0.1   0.5   0.6   0.5   0.5  0.60  0.59  0.28  0.00  0.00   68.12   73.50    0.53    0.00    0.61
 1990 312   128     2     2     3.3   20.4   16578   12.4    8.0   0.3   0.4   0.3   0.3   0.3   0.3   1.7   2.1   0.0   0.0   0.2   0.5   0.6   0.5   0.5  0.59  0.57  0.28  0.00  0.00   68.74   73.94    0.53    0.00    0.61
 1990 313   129     2     2     3.3   19.8   16577   12.0    7.9   0.4   0.4   0.3   0.3   0.3   0.3   1.5   2.1   0.0   0.0   0.1   0.5   0.6   0.5   0.5  0.59  0.55  0.28  0.00  0.00   69.32   74.44    0.53    0.00    0.61
 1990 314   130     2     2     3.3   19.3   16577   11.5    7.8   0.4   0.4   0.3   0.3   0.3   0.3   1.3   2.1   0.0   0.0   0.1   0.5   0.6   0.5   0.5  0.58  0.54  0.28  0.00  0.00   69.90   74.89    0.53    0.00    0.61
 1990 315   131     2     2     3.3   18.9   16576   11.1    7.8   0.4   0.4   0.3   0.3   0.3   0.3   1.2   2.1   0.0   0.0   0.1   0.5   0.6   0.5   0.5  0.58  0.53  0.28  0.00  0.00   70.50   75.35    0.53    0.00    0.61
 1990 316   132     2     2     3.3   18.6   16576   10.8    7.7   0.4   0.4   0.3   0.3   0.3   0.3   1.0   2.2   0.0   0.0   0.1   0.5   0.6   0.5   0.5  0.58  0.52  0.28  0.00  0.00   71.12   75.85    0.53    0.00    0.62
 1990 317   133     2     2     3.3   18.2   16575   10.6    7.7   0.4   0.4   0.3   0.3   0.3   0.3   0.9   2.2   0.0   0.0   0.1   0.5   0.6   0.5   0.5  0.57  0.51  0.29  0.00  0.00   71.74   76.34    0.53    0.00    0.62
 1990 318   134     2     2     3.3   18.0   16574   10.4    7.6   0.4   0.4   0.3   0.3   0.3   0.3   0.8   2.2   0.0   0.0   0.1   0.5   0.6   0.5   0.5  0.57  0.51  0.28  0.00  0.00   72.44   76.92    0.53    0.00    0.62
 1990 319   135     2     2     3.3   17.8   16574   10.3    7.6   0.4   0.4   0.3   0.3   0.3   0.3   0.7   2.2   0.0   0.0   0.1   0.5   0.6   0.5   0.5  0.57  0.50  0.27  0.00  0.00   73.17   77.56    0.53    0.00    0.62
 1990 320   136     2     2     3.3   17.6   16573   10.1    7.5   0.1   0.3   0.4   0.3   0.4   0.3   0.7   2.2   0.0   0.0   0.1   0.5   0.6   0.5   0.4  0.57  0.49  0.27  0.00  0.00   73.90   78.18    0.53    0.00    0.62
 1990 321   137     2     2     3.3   17.5   16572    9.6    8.0   0.2   0.3   0.3   0.3   0.3   0.3   0.6   2.2   0.0   0.0   0.2   0.6   0.7   0.5   0.5  0.57  0.49  0.27  0.00  0.00   74.65   78.35    0.53    0.00    0.63
 1990 322   138     2     2     3.3   17.6   16572    9.5    8.1   0.5   0.3   0.3   0.3   0.3   0.3   0.5   2.2   0.0   0.0   0.1   0.7   0.7   0.6   0.5  0.57  0.48  0.26  0.00  0.00   75.43   78.74    0.53    0.00    0.63
 1990 323   139     2     2     3.3   17.5   16571    9.7    7.8   0.3   0.5   0.3   0.3   0.3   0.3   0.5   2.2   0.0   0.0   0.1   0.5   0.6   0.6   0.5  0.57  0.48  0.26  0.00  0.00   76.18   79.38    0.53    0.00    0.63
 1990 324   140     2     2     3.3   17.3   16570    9.6    7.7   0.4   0.4   0.3   0.3   0.3   0.3   0.4   2.2   0.0   0.0   0.1   0.5   0.6   0.5   0.5  0.57  0.47  0.25  0.00  0.00   76.94   80.01    0.53    0.00    0.63
 1990 325   141     2     2     3.3   17.0   16569    9.4    7.6   0.4   0.4   0.3   0.3   0.3   0.3   0.4   2.2   0.0   0.0   0.1   0.5   0.6   0.5   0.5  0.57  0.47  0.25  0.00  0.00   77.72   80.64    0.53    0.00    0.64
 1990 326   142     2     2     3.3   16.8   16569    9.2    7.6   0.4   0.4   0.3   0.3   0.3   0.3   0.4   2.1   0.0   0.0   0.1   0.5   0.6   0.5   0.5  0.57  0.46  0.24  0.00  0.00   78.53   81.31    0.53    0.00    0.64
 1990 327   143     2     2     3.3   16.4   16568    8.8    7.5   0.4   0.4   0.3   0.3   0.3   0.3   0.3   2.0   0.0   0.0   0.1   0.5   0.6   0.5   0.5  0.57  0.45  0.24  0.00  0.00   79.36   81.99    0.53    0.00    0.64
 1990 328   144     2     2     3.3   16.0   16567    8.5    7.5   0.4   0.4   0.3   0.3   0.3   0.3   0.3   1.9   0.0   0.0   0.1   0.5   0.6   0.5   0.5  0.57  0.45  0.24  0.00  0.00   80.17   82.65    0.53    0.00    0.64
 1990 329   145     2     2     3.3   15.6   16566    8.1    7.5   0.4   0.4   0.3   0.3   0.3   0.3   0.3   1.7   0.0   0.0   0.1   0.5   0.6   0.5   0.5  0.57  0.44  0.23  0.00  0.00   80.95   83.29    0.53    0.00    0.65
 1990 330   146     2     2     3.3   15.3   16566    7.9    7.4   0.3   0.4   0.4   0.3   0.3   0.3   0.3   1.6   0.0   0.0   0.1   0.5   0.6   0.5   0.5  0.57  0.44  0.23  0.00  0.00   81.71   83.93    0.53    0.00    0.65
 1990 331   147     2     2     3.3   15.0   16565    7.4    7.6   0.3   0.3   0.3   0.3   0.3   0.3   0.3   1.5   0.0   0.0   0.2   0.6   0.6   0.5   0.5  0.57  0.43  0.23  0.00  0.00   82.46   84.33    0.53    0.00    0.65
 1990 332   148     2     2     3.3   14.9   16564    7.5    7.4   0.6   0.4   0.3   0.3   0.3   0.3   0.3   1.5   0.0   0.0   0.1   0.5   0.6   0.5   0.5  0.57  0.43  0.22  0.00  0.00   83.17   85.05    0.53    0.00    0.65
 1990 333   149     2     2     3.3   14.5   16564    7.1    7.3   0.3   0.4   0.3   0.3   0.3   0.3   0.3   1.4   0.0   0.0   0.1   0.5   0.6   0.5   0.5  0.57  0.42  0.22  0.00  0.00   83.86   85.59    0.53    0.00    0.66
 1990 334   150     2     2     3.3   14.3   16563    7.0    7.3   0.4   0.4   0.3   0.3   0.3   0.3   0.3   1.3   0.0   0.0   0.1   0.5   0.6   0.5   0.5  0.56  0.42  0.22  0.00  0.00   84.54   86.16    0.53    0.00    0.66
 1990 335   151     2     2     3.3   14.0   16562    6.8    7.3   0.4   0.4   0.3   0.3   0.3   0.3   0.3   1.2   0.0   0.0   0.1   0.5   0.6   0.5   0.5  0.56  0.41  0.21  0.00  0.00   85.20   86.70    0.53    0.00    0.66
 1990 336   152     2     2     3.3   13.8   16562    6.6    7.2   0.4   0.4   0.3   0.3   0.3   0.3   0.3   1.1   0.0   0.0   0.1   0.5   0.6   0.5   0.5  0.56  0.41  0.21  0.00  0.00   85.85   87.25    0.53    0.00    0.66
 1990 337   153     2     2     3.3   13.6   16561    6.4    7.2   0.3   0.4   0.3   0.3   0.3   0.3   0.3   1.1   0.0   0.0   0.1   0.5   0.6   0.5   0.5  0.56  0.40  0.21  0.00  0.00   86.49   87.80    0.53    0.00    0.67
 1990 338   154     2     2     3.3   13.4   16561    6.2    7.2   0.3   0.4   0.3   0.3   0.3   0.3   0.3   1.0   0.0   0.0   0.2   0.5   0.6   0.5   0.5  0.56  0.40  0.20  0.00  0.00   87.12   88.28    0.53    0.00    0.67
 1990 339   155     2     2     3.3   13.3   16560    6.2    7.0   0.5   0.4   0.3   0.3   0.3   0.3   0.3   0.9   0.0   0.0   0.1   0.5   0.6   0.5   0.5  0.56  0.39  0.20  0.00  0.00   87.74   88.89    0.53    0.00    0.67
 1990 340   156     2     2     3.3   13.0   16559    6.0    7.0   0.0   0.3   0.4   0.4   0.3   0.3   0.3   0.9   0.0   0.0   0.1   0.5   0.6   0.5   0.5  0.55  0.39  0.20  0.00  0.00   88.37   89.44    0.53    0.00    0.67
 1990 341   157     2     2     3.3   12.9   16559    5.5    7.4   0.0   0.1   0.2   0.2   0.3   0.3   0.3   0.8   0.0   0.0   0.2   0.6   0.7   0.5   0.5  0.55  0.38  0.19  0.00  0.00   89.06   89.65    0.53    0.00    0.68
 1990 342   158     2     2     3.4   13.0   16558    5.2    7.8   0.1   0.1   0.2   0.2   0.2   0.3   0.3   0.8   0.0   0.0   0.3   0.7   0.7   0.6   0.5  0.57  0.39  0.19  0.00  0.00   89.81   89.80    0.53    0.00    0.68
 1990 343   159     2     2     3.4   13.0   16557    5.2    7.8   0.6   0.2   0.2   0.2   0.3   0.2   0.3   0.8   0.0   0.0   0.0   0.7   0.7   0.6   0.5  0.57  0.38  0.19  0.00  0.00   90.58   90.22    0.53    0.00    0.68
 1990 344   160     2     2     4.1   12.3   16557    4.6    7.7   0.0   0.3   0.2   0.2   0.2   0.3   0.3   0.6   0.0   0.0   0.1   0.5   0.7   0.6   0.6  0.58  0.38  0.18  0.00  0.00   91.31   90.59    0.53    0.00    0.68
 1990 345   161     2     2     4.4   12.3   16556    4.2    8.1   0.0   0.3   0.2   0.2   0.2   0.2   0.2   0.5   0.0   0.0   0.2   0.6   0.8   0.6   0.6  0.59  0.39  0.19  0.00  0.00   91.96   90.67    0.53    0.00    0.68
 1990 346   162     2     2     4.5   12.4   16555    4.3    8.1   0.3   0.3   0.2   0.2   0.2   0.2   0.2   0.4   0.0   0.0   0.1   0.7   0.7   0.6   0.6  0.59  0.40  0.19  0.00  0.00   92.62   90.92    0.54    0.00    0.69
 1990 347   163     2     2     4.5   12.4   16555    4.3    8.1   0.4   0.3   0.2   0.2   0.2   0.2   0.2   0.4   0.0   0.0   0.1   0.7   0.7   0.6   0.6  0.59  0.40  0.19  0.00  0.00   93.27   91.11    0.54    0.00    0.69
 1990 348   164     2     2     4.5   12.4   16554    4.6    7.8   0.4   0.4   0.3   0.2   0.3   0.2   0.3   0.4   0.0   0.0   0.1   0.5   0.6   0.6   0.6  0.59  0.40  0.19  0.00  0.00   93.91   91.54    0.54    0.00    0.69
 1990 349   165     2     2     4.5   12.3   16554    4.7    7.6   0.4   0.4   0.3   0.3   0.3   0.3   0.3   0.4   0.0   0.0   0.1   0.5   0.6   0.6   0.6  0.59  0.40  0.19  0.00  0.00   94.56   92.06    0.54    0.00    0.70
 1990 350   166     2     2     4.5   12.3   16553    4.7    7.5   0.4   0.4   0.3   0.3   0.3   0.3   0.3   0.3   0.0   0.0   0.1   0.5   0.6   0.6   0.6  0.59  0.40  0.19  0.00  0.00   95.26   92.61    0.54    0.00    0.70
 1990 351   167     2     2     4.5   12.2   16552    4.7    7.5   0.4   0.4   0.3   0.3   0.3   0.3   0.3   0.3   0.0   0.0   0.1   0.5   0.6   0.6   0.5  0.59  0.40  0.18  0.00  0.00   95.99   93.18    0.54    0.00    0.70
 1990 352   168     2     2     4.5   12.1   16552    4.7    7.4   0.2   0.3   0.3   0.3   0.3   0.3   0.3   0.3   0.0   0.0   0.1   0.5   0.6   0.5   0.5  0.59  0.39  0.18  0.00  0.00   96.76   93.78    0.54    0.00    0.70
 1990 353   169     2     2     4.5   12.1   16551    4.3    7.9   0.2   0.3   0.3   0.3   0.3   0.3   0.3   0.3   0.0   0.0   0.2   0.6   0.7   0.6   0.6  0.59  0.39  0.18  0.00  0.00   97.54   93.94    0.54    0.00    0.71
 1990 354   170     2     2     4.5   12.4   16550    4.4    8.0   0.6   0.3   0.3   0.3   0.3   0.3   0.3   0.3   0.0   0.0   0.0   0.7   0.7   0.6   0.6  0.59  0.39  0.18  0.00  0.00   98.35   94.33    0.54    0.00    0.71
 1990 355   171     2     2     4.5   12.3   16550    4.6    7.7   0.3   0.5   0.3   0.3   0.3   0.3   0.3   0.3   0.0   0.0   0.1   0.5   0.6   0.6   0.6  0.59  0.39  0.17  0.00  0.00   99.17   94.91    0.54    0.00    0.71
 1990 356   172     2     2     4.5   12.2   16549    4.7    7.5   0.3   0.3   0.4   0.3   0.3   0.3   0.3   0.3   0.0   0.0   0.1   0.5   0.6   0.6   0.6  0.59  0.39  0.17  0.00  0.00   99.99   95.59    0.54    0.00    0.72
 1990 357   173     2     2     4.5   12.2   16548    4.2    8.0   0.3   0.3   0.3   0.3   0.3   0.3   0.3   0.3   0.0   0.0   0.2   0.6   0.7   0.6   0.6  0.59  0.39  0.17  0.00  0.00  100.76   95.72    0.54    0.00    0.72
 1990 358   174     2     2     4.5   12.5   16547    4.4    8.1   0.5   0.3   0.3   0.3   0.3   0.3   0.3   0.3   0.0   0.0   0.1   0.7   0.7   0.6   0.6  0.59  0.39  0.17  0.00  0.00  101.57   96.08    0.54    0.00    0.72
 1990 359   175     2     2     4.6   12.5   16547    4.1    8.4   0.3   0.3   0.3   0.3   0.2   0.2   0.3   0.3   0.0   0.0   0.2   0.7   0.8   0.6   0.6  0.60  0.40  0.17  0.00  0.00  102.35   96.20    0.54    0.00    0.72
 1990 360   176     2     2     4.6   12.7   16546    4.3    8.4   0.5   0.3   0.3   0.3   0.3   0.3   0.3   0.3   0.0   0.0   0.1   0.7   0.8   0.6   0.6  0.60  0.40  0.17  0.00  0.00  103.14   96.55    0.54    0.00    0.73
 1990 361   177     2     2     4.6   12.5   16545    4.5    8.1   0.4   0.5   0.3   0.3   0.3   0.3   0.3   0.3   0.0   0.0   0.1   0.5   0.8   0.6   0.6  0.60  0.40  0.16  0.00  0.00  103.94   97.04    0.54    0.00    0.73
 1990 362   178     2     2     4.6   12.4   16545    4.7    7.7   0.4   0.4   0.3   0.3   0.3   0.3   0.3   0.3   0.0   0.0   0.1   0.5   0.6   0.6   0.6  0.60  0.40  0.16  0.00  0.00  104.78   97.76    0.54    0.00    0.73
 1990 363   179     2     2     4.6   12.2   16544    4.6    7.6   0.4   0.4   0.3   0.3   0.3   0.3   0.3   0.3   0.0   0.0   0.1   0.5   0.6   0.6   0.6  0.59  0.40  0.16  0.00  0.00  105.60   98.40    0.54    0.00    0.74
 1990 364   180     2     2     4.6   12.1   16543    4.6    7.5   0.4   0.4   0.3   0.3   0.3   0.3   0.3   0.3   0.0   0.0   0.1   0.5   0.6   0.6   0.6  0.59  0.40  0.16  0.00  0.00  106.41   99.03    0.54    0.00    0.74
 1990 365   181     2     2     4.6   12.1   16542    4.6    7.4   0.4   0.4   0.3   0.3   0.3   0.3   0.3   0.3   0.0   0.0   0.1   0.5   0.6   0.6   0.6  0.59  0.40  0.16  0.00  0.00  107.23   99.66    0.54    0.00    0.74
 1991 001   182     2     2     4.6   12.0   16542    4.6    7.4   0.4   0.4   0.3   0.3   0.3   0.3   0.3   0.3   0.0   0.0   0.1   0.5   0.6   0.5   0.5  0.59  0.40  0.16  0.00  0.00  108.03  100.27    0.54    0.00    0.74
 1991 002   183     2     2     4.6   12.0   16541    4.6    7.4   0.4   0.4   0.3   0.3   0.3   0.3   0.3   0.3   0.0   0.0   0.1   0.5   0.6   0.5   0.5  0.59  0.40  0.16  0.00  0.00  108.81  100.87    0.54    0.00    0.75
 1991 003   184     2     2     4.6   12.0   16540    4.6    7.3   0.4   0.4   0.3   0.3   0.3   0.3   0.3   0.3   0.0   0.0   0.1   0.5   0.6   0.5   0.5  0.59  0.40  0.16  0.00  0.00  109.62  101.50    0.54    0.00    0.75
 1991 004   185     2     2     4.6   11.9   16540    4.6    7.3   0.4   0.4   0.3   0.3   0.3   0.3   0.3   0.3   0.0   0.0   0.1   0.4   0.6   0.5   0.5  0.59  0.40  0.16  0.00  0.00  110.45  102.15    0.54    0.00    0.75
 1991 005   186     2     2     4.6   11.9   16539    4.6    7.3   0.4   0.4   0.3   0.3   0.3   0.3   0.3   0.3   0.0   0.0   0.1   0.4   0.6   0.5   0.5  0.59  0.40  0.16  0.00  0.00  111.27  102.80    0.54    0.00    0.75
 1991 006   187     2     2     4.6   11.8   16538    4.6    7.2   0.4   0.4   0.3   0.3   0.3   0.3   0.3   0.3   0.0   0.0   0.1   0.4   0.6   0.5   0.5  0.59  0.40  0.16  0.00  0.00  112.05  103.44    0.54    0.00    0.75
 1991 007   188     2     2     4.6   11.7   16537    4.6    7.1   0.4   0.4   0.3   0.3   0.3   0.3   0.3   0.3   0.0   0.0   0.1   0.4   0.6   0.5   0.5  0.59  0.40  0.16  0.00  0.00  112.80  104.06    0.54    0.00    0.76
 1991 008   189     2     2     4.6   12.5   16537    5.2    7.3   0.5   0.5   0.4   0.3   0.3   0.3   0.3   0.3   0.0   0.0   0.1   0.4   0.6   0.5   0.5  0.61  0.39  0.16  0.00  0.00  113.54  104.68    0.54    0.00    0.76
 1991 009   190     2     2     4.6   13.2   16536    5.9    7.3   0.7   0.7   0.5   0.4   0.4   0.3   0.3   0.3   0.0   0.0   0.1   0.3   0.7   0.5   0.5  0.62  0.39  0.16  0.00  0.00  114.27  105.33    0.54    0.00    0.76

*DSSAT Cropping System Model Ver. 4.0.2.000               Jul 19, 2016; 12:58:53

*RUN   2        : UYMZ                    
 MODEL          : MZCER040 - Maize           
 EXPERIMENT     : UYMZ0007 MZ    late to create DSS                             
 TREATMENT  1   : UYMZ                    

@YEAR DOY   DAS  NAPC  NI#M    NLCC   NIAD    NOAD   NITD   NHTD  NI1D  NI2D  NI3D  NI4D  NI5D  NI6D  NI7D  NI8D  NI9D  NI10  NH1D  NH2D  NH3D  NH4D  NH5D  NH6D  NH7D  NH8D  NH9D  NH10    NMNC    NITC    NDNC    NIMC    AMLC
 1991 184     0     0     0     0.0   99.3   16645   76.5   22.8  16.0  15.3  15.1   8.6   4.6   0.0   0.1   0.1   0.0   0.0   0.6   1.3   1.5   1.4   1.4  1.50  1.46  1.45  0.00  0.00    0.54    1.69    0.00    0.00    0.00
 1991 185     1     0     0     0.0   99.8   16645   77.7   22.1  16.4  15.5  15.3   8.7   4.6   0.0   0.1   0.1   0.0   0.0   0.3   1.2   1.4   1.4   1.4  1.51  1.43  1.41  0.00  0.00    1.05    2.91    0.00    0.00    0.00
 1991 186     2     0     0     0.0  100.3   16645   78.7   21.6  16.5  15.6  15.4   8.8   4.7   0.1   0.1   0.2   0.0   0.0   0.2   1.1   1.4   1.3   1.4  1.51  1.40  1.37  0.00  0.00    1.50    3.91    0.00    0.00    0.00
 1991 187     3     0     0     0.0  100.7   16644   79.6   21.1  16.6  15.8  15.5   8.8   4.8   0.1   0.2   0.2   0.0   0.0   0.2   1.0   1.4   1.3   1.3  1.51  1.37  1.33  0.00  0.00    1.93    4.80    0.00    0.00    0.00
 1991 188     4     2     2     0.0  103.1   16644   80.4   22.6  16.7  15.9  15.6   8.9   4.8   0.1   0.2   0.2   0.0   0.0   3.7   0.9   1.4   1.3   1.3  1.51  1.34  1.29  0.00  0.00    2.33    5.63    0.00    0.00    0.04
 1991 189     5     2     2     0.0  103.4   16643   82.1   21.3  18.3  16.0  15.7   9.0   4.9   0.1   0.3   0.3   0.0   0.0   2.0   0.9   1.4   1.2   1.2  1.52  1.31  1.25  0.00  0.00    2.73    7.27    0.00    0.00    0.07
 1991 190     6     2     2     0.0  103.8   16643   83.4   20.4  19.3  16.1  15.8   9.0   4.9   0.1   0.3   0.3   0.0   0.0   1.1   0.8   1.3   1.2   1.2  1.52  1.28  1.21  0.00  0.00    3.16    8.58    0.00    0.00    0.10
 1991 191     7     2     2     0.0  104.3   16642   84.6   19.7  19.7  16.3  15.9   9.1   5.0   0.1   0.3   0.4   0.0   0.0   0.5   0.8   1.3   1.2   1.2  1.52  1.25  1.18  0.00  0.00    3.65    9.74    0.00    0.00    0.13
 1991 192     8     2     2     0.0  104.7   16642   85.5   19.2  19.3  16.8  16.0   9.2   5.0   0.2   0.4   0.4   0.0   0.0   0.2   0.7   1.3   1.1   1.1  1.52  1.22  1.14  0.00  0.00    4.15   10.70    0.00    0.00    0.18
 1991 193     9     2     2     0.0  105.1   16641   86.3   18.8  19.0  17.1  16.1   9.2   5.1   0.2   0.4   0.4   0.0   0.0   0.1   0.7   1.3   1.1   1.1  1.53  1.20  1.11  0.00  0.00    4.62   11.50    0.00    0.00    0.23
 1991 194    10     2     2     0.0  105.6   16641   87.0   18.5  18.8  17.3  16.2   9.3   5.1   0.2   0.5   0.5   0.0   0.0   0.0   0.7   1.3   1.1   1.1  1.53  1.17  1.08  0.00  0.00    5.05   12.20    0.00    0.00    0.26
 1991 195    11     2     2     0.0  105.9   16641   87.7   18.3  18.8  17.4  16.3   9.3   5.1   0.2   0.5   0.5   0.0   0.0   0.0   0.6   1.3   1.0   1.1  1.53  1.15  1.05  0.00  0.00    5.44   12.85    0.00    0.00    0.27
 1991 196    12     2     2     0.0  106.3   16640   88.3   18.0  18.8  17.4  16.4   9.4   5.2   0.2   0.5   0.5   0.0   0.0   0.0   0.6   1.3   1.0   1.0  1.53  1.13  1.02  0.00  0.00    5.77   13.44    0.00    0.00    0.28
 1991 197    13     2     2     0.0  106.6   16640   88.8   17.7  18.8  17.5  16.5   9.4   5.2   0.2   0.6   0.6   0.0   0.0   0.0   0.6   1.2   1.0   1.0  1.54  1.10  0.99  0.00  0.00    6.08   14.00    0.00    0.00    0.29
 1991 198    14     2     2     0.0  106.9   16640   89.4   17.5  18.8  17.6  16.5   9.4   5.2   0.3   0.6   0.6   0.0   0.0   0.0   0.6   1.2   1.0   1.0  1.54  1.08  0.96  0.00  0.00    6.43   14.57    0.00    0.00    0.29
 1991 199    15     2     2     0.0  107.3   16639   90.0   17.3   4.8  14.5  22.5  10.3   5.3   0.3   0.6   0.6   0.0   0.0   0.1   0.5   1.2   0.9   1.0  1.54  1.06  0.93  0.00  0.00    6.83   15.18    0.00    0.00    0.29
 1991 200    16     2     2     0.0  107.7   16639   90.4   17.3   3.8  13.4  21.7  12.0   5.3   0.3   0.7   0.7   0.0   0.0   0.1   0.6   1.3   0.9   0.9  1.54  1.04  0.91  0.00  0.00    7.27   15.62    0.00    0.00    0.29
 1991 201    17     2     2     0.0  108.2   16638   90.9   17.3   3.7  13.1  21.4  12.6   5.4   0.3   0.7   0.7   0.0   0.0   0.1   0.7   1.3   0.9   0.9  1.55  1.02  0.88  0.00  0.00    7.74   16.10    0.00    0.00    0.29
 1991 202    18     2     2     0.9  107.8   16638   90.5   17.3   1.1   6.5  14.8  11.9  11.0   2.6   0.6   1.0   0.0   0.0   0.1   0.7   1.4   0.9   0.9  1.55  1.00  0.86  0.00  0.00    8.27   16.61    0.00    0.00    0.29
 1991 203    19     2     2     2.7  106.6   16637   88.9   17.7   0.5   3.9  11.2  10.5  10.6   4.4   2.3   0.9   0.0   0.0   0.2   0.8   1.5   0.9   0.9  1.57  1.01  0.86  0.00  0.00    8.79   16.72    0.00    0.00    0.30
 1991 204    20     2     2     3.8  105.8   16637   87.7   18.1   0.3   2.8   9.2   9.5  10.2   5.2   3.0   1.4   0.0   0.0   0.2   0.8   1.5   0.9   1.0  1.58  1.01  0.86  0.00  0.00    9.26   16.84    0.18    0.00    0.30
 1991 205    21     2     2     4.5  105.3   16636   87.0   18.3   0.4   2.7   8.9   9.2   9.9   5.2   3.1   1.6   0.0   0.0   0.2   0.9   1.6   1.0   1.0  1.60  1.02  0.85  0.00  0.00    9.70   17.00    0.32    0.00    0.30
 1991 206    22     2     2     5.0  105.2   16636   86.6   18.6   0.5   2.7   8.7   9.0   9.7   5.3   3.2   1.7   0.0   0.0   0.1   0.9   1.7   1.0   1.0  1.61  1.02  0.85  0.00  0.00   10.14   17.19    0.40    0.00    0.31
 1991 207    23     2     2     5.2  105.2   16635   86.5   18.7   0.6   2.8   8.7   8.9   9.6   5.3   3.2   1.7   0.0   0.0   0.1   0.9   1.7   1.0   1.0  1.63  1.02  0.85  0.00  0.00   10.55   17.48    0.52    0.00    0.31
 1991 208    24     2     2     5.4  105.5   16635   86.7   18.8   0.7   2.9   8.7   8.8   9.6   5.3   3.3   1.8   0.0   0.0   0.1   0.8   1.7   1.0   1.0  1.64  1.02  0.84  0.00  0.00   11.00   17.81    0.57    0.00    0.32
 1991 209    25     2     2     5.5  105.9   16635   87.1   18.8   0.9   3.0   8.8   8.8   9.5   5.3   3.3   1.8   0.0   0.0   0.1   0.8   1.7   1.0   1.0  1.66  1.03  0.84  0.00  0.00   11.52   18.37    0.61    0.00    0.32
 1991 210    26     2     2     5.5  106.5   16634   87.7   18.8   1.1   3.1   9.0   8.9   9.5   5.3   3.3   1.8   0.0   0.0   0.1   0.7   1.6   1.0   1.0  1.67  1.03  0.83  0.00  0.00   12.13   19.00    0.63    0.00    0.32
 1991 211    27     2     2     5.5  106.9   16633   88.2   18.7   1.2   3.2   9.1   8.9   9.6   5.3   3.3   1.8   0.0   0.0   0.1   0.7   1.6   1.1   1.1  1.69  1.03  0.82  0.00  0.00   12.79   19.68    0.64    0.00    0.32
 1991 212    28     2     2     5.5  107.5   16633   88.9   18.6   0.8   2.8   8.9   9.3   9.8   5.4   3.4   1.8   0.0   0.0   0.1   0.6   1.5   1.0   1.1  1.70  1.03  0.82  0.00  0.00   13.46   20.47    0.66    0.00    0.33
 1991 213    29     2     2     5.9  107.7   16632   88.7   19.0   0.9   2.8   8.7   9.0   9.6   5.5   3.5   2.0   0.0   0.0   0.1   0.7   1.6   1.0   1.1  1.72  1.03  0.81  0.00  0.00   14.10   20.70    0.72    0.00    0.33
 1991 214    30     2     2     6.1  108.0   16631   88.7   19.3   1.0   2.8   8.6   8.8   9.5   5.5   3.6   2.0   0.0   0.0   0.1   0.8   1.7   1.1   1.1  1.73  1.03  0.81  0.00  0.00   14.65   20.94    0.75    0.00    0.33
 1991 215    31     2     2     6.2  108.4   16631   88.9   19.4   0.7   2.4   7.7   8.6   9.7   6.0   3.8   2.1   0.0   0.0   0.1   0.7   1.8   1.1   1.1  1.75  1.03  0.80  0.00  0.00   15.10   21.27    0.77    0.00    0.34
 1991 216    32     2     2     7.4  107.4   16631   87.8   19.7   0.4   1.8   6.4   7.6   9.1   6.4   4.4   2.7   0.0   0.0   0.1   0.8   1.8   1.1   1.1  1.76  1.03  0.80  0.00  0.00   15.49   21.42    0.91    0.00    0.34
 1991 217    33     2     2     8.7  106.1   16630   86.2   19.9   0.4   1.7   6.2   7.2   8.7   6.4   4.5   2.8   0.0   0.0   0.1   0.8   1.8   1.1   1.2  1.78  1.04  0.79  0.00  0.00   15.84   21.52    1.23    0.00    0.34
 1991 218    34     2     2     9.5  105.4   16630   85.4   20.1   0.4   1.7   6.1   7.1   8.5   6.3   4.5   2.9   0.0   0.0   0.1   0.8   1.9   1.1   1.2  1.79  1.04  0.79  0.00  0.00   16.17   21.68    1.41    0.00    0.34
 1991 219    35     2     2    10.0  105.2   16630   85.0   20.2   0.5   1.8   6.1   7.0   8.4   6.3   4.6   3.0   0.0   0.0   0.1   0.8   1.9   1.1   1.2  1.80  1.04  0.79  0.00  0.00   16.52   21.94    1.52    0.00    0.35
 1991 220    36     2     2    10.3  105.2   16629   85.0   20.3   0.6   1.9   6.1   6.9   8.3   6.2   4.6   3.0   0.0   0.0   0.1   0.7   1.9   1.2   1.2  1.81  1.05  0.78  0.00  0.00   16.88   22.21    1.58    0.00    0.35
 1991 221    37     2     2    10.4  105.4   16629   85.2   20.2   0.7   1.9   6.2   6.9   8.3   6.2   4.6   3.0   0.0   0.0   0.1   0.7   1.9   1.2   1.2  1.83  1.05  0.78  0.00  0.00   17.27   22.65    1.61    0.00    0.35
 1991 222    38     2     2    10.4  105.8   16628   85.7   20.2   0.8   2.0   6.3   6.9   8.3   6.2   4.6   3.0   0.0   0.0   0.1   0.7   1.8   1.2   1.2  1.84  1.05  0.77  0.00  0.00   17.69   23.10    1.63    0.00    0.35
 1991 223    39     2     2    10.4  106.2   16628   86.1   20.1   0.8   2.1   6.4   7.0   8.3   6.2   4.6   3.0   0.0   0.0   0.1   0.6   1.8   1.2   1.2  1.85  1.05  0.77  0.00  0.00   18.10   23.54    1.65    0.00    0.36
 1991 224    40     2     2    10.4  106.6   16628   86.5   20.1   0.9   2.2   6.5   7.0   8.3   6.2   4.6   3.0   0.0   0.0   0.1   0.6   1.7   1.2   1.2  1.86  1.05  0.76  0.00  0.00   18.53   23.99    1.66    0.00    0.36
 1991 225    41     2     2    10.4  107.0   16627   87.0   20.0   1.0   2.3   6.6   7.0   8.4   6.2   4.6   3.1   0.0   0.0   0.1   0.6   1.7   1.2   1.2  1.88  1.05  0.76  0.00  0.00   18.96   24.52    1.68    0.00    0.36
 1991 226    42     2     2    10.4  107.5   16627   87.5   19.9   1.1   2.3   6.7   7.1   8.4   6.2   4.6   3.1   0.0   0.0   0.1   0.6   1.7   1.1   1.2  1.89  1.05  0.75  0.00  0.00   19.40   25.04    1.69    0.00    0.36
 1991 227    43     2     2    10.4  107.9   16626   88.1   19.9   1.2   2.4   6.8   7.2   8.4   6.2   4.6   3.1   0.0   0.0   0.1   0.6   1.6   1.1   1.2  1.90  1.05  0.75  0.00  0.00   19.88   25.60    1.71    0.00    0.37
 1991 228    44     2     2    10.4  108.5   16626   88.7   19.8   1.4   2.5   6.9   7.2   8.4   6.2   4.6   3.1   0.0   0.0   0.1   0.6   1.6   1.1   1.3  1.92  1.05  0.75  0.00  0.00   20.43   26.21    1.73    0.00    0.37
 1991 229    45     2     2    10.4  109.0   16625   89.3   19.7   1.5   2.7   7.1   7.3   8.4   6.2   4.6   3.1   0.0   0.0   0.1   0.5   1.5   1.0   1.3  1.93  1.05  0.74  0.00  0.00   21.04   26.89    1.74    0.00    0.37
 1991 230    46     2     2    10.4  109.6   16624   90.0   19.6   1.7   2.8   7.2   7.4   8.4   6.3   4.6   3.1   0.0   0.0   0.1   0.5   1.5   1.0   1.3  1.95  1.05  0.74  0.00  0.00   21.70   27.63    1.76    0.00    0.37
 1991 231    47     2     2    10.4  110.0   16624   90.5   19.5   1.8   2.8   7.2   7.4   8.5   6.3   4.7   3.1   0.0   0.0   0.1   0.5   1.4   1.0   1.3  1.96  1.05  0.73  0.00  0.00   22.39   28.39    1.77    0.00    0.38
 1991 232    48     2     2    10.4  110.3   16623   90.9   19.5   1.9   2.9   7.3   7.5   8.5   6.3   4.7   3.1   0.0   0.0   0.1   0.5   1.4   0.9   1.3  1.98  1.05  0.73  0.00  0.00   23.08   29.14    1.78    0.00    0.38
 1991 233    49     2     2    10.4  110.6   16622   91.3   19.4   2.0   2.9   7.3   7.6   8.5   6.3   4.7   3.1   0.0   0.0   0.1   0.5   1.3   0.9   1.3  1.99  1.05  0.72  0.00  0.00   23.77   29.86    1.80    0.00    0.38
 1991 234    50     2     2    10.4  110.8   16622   91.4   19.3   2.1   3.0   7.2   7.6   8.5   6.3   4.7   3.1   0.0   0.0   0.1   0.5   1.3   0.9   1.3  2.01  1.06  0.72  0.00  0.00   24.46   30.57    1.81    0.00    0.38
 1991 235    51     2     2    10.4  110.9   16621   91.7   19.1   2.2   3.0   7.1   7.7   8.6   6.3   4.7   3.1   0.0   0.0   0.1   0.5   1.3   0.9   1.3  2.02  1.06  0.71  0.00  0.00   25.14   31.38    1.82    0.00    0.39
 1991 236    52     2     2    10.4  110.7   16620   91.7   19.0   2.3   3.0   6.9   7.8   8.7   6.3   4.7   3.1   0.0   0.0   0.1   0.5   1.2   0.8   1.2  2.03  1.06  0.71  0.00  0.00   25.83   32.17    1.83    0.00    0.39
 1991 237    53     2     2    10.4  110.6   16620   91.7   18.8   2.3   3.0   6.7   7.8   8.8   6.3   4.7   3.2   0.0   0.0   0.1   0.5   1.2   0.8   1.2  2.05  1.06  0.70  0.00  0.00   26.49   32.91    1.84    0.00    0.39
 1991 238    54     2     2    10.4  110.6   16619   91.9   18.7   2.4   3.0   6.6   7.9   8.9   6.3   4.7   3.2   0.0   0.0   0.1   0.5   1.1   0.8   1.1  2.06  1.06  0.70  0.00  0.00   27.14   33.64    1.85    0.00    0.39
 1991 239    55     2     2    10.4  110.7   16618   92.0   18.6   2.5   3.0   6.4   7.9   8.9   6.3   4.7   3.2   0.0   0.0   0.1   0.5   1.1   0.8   1.1  2.08  1.06  0.69  0.00  0.00   27.76   34.31    1.86    0.00    0.40
 1991 240    56     2     2    10.4  110.7   16618   92.2   18.5   2.5   3.1   6.3   8.0   9.0   6.3   4.7   3.2   0.0   0.0   0.1   0.5   1.1   0.8   1.1  2.09  1.06  0.69  0.00  0.00   28.33   34.91    1.87    0.00    0.42
 1991 241    57     2     2    10.4  110.7   16617   92.2   18.5   2.5   3.0   6.2   8.0   9.0   6.3   4.8   3.2   0.0   0.0   0.1   0.5   1.1   0.8   1.0  2.10  1.06  0.68  0.00  0.00   28.88   35.48    1.89    0.00    0.44
 1991 242    58     2     2    10.4  110.4   16617   92.0   18.4   2.5   3.0   6.0   8.0   9.1   6.3   4.8   3.2   0.0   0.0   0.1   0.5   1.1   0.7   1.0  2.12  1.06  0.68  0.00  0.00   29.45   36.05    1.90    0.00    0.46
 1991 243    59     2     2    10.4  110.2   16616   91.8   18.4   2.5   3.0   5.8   8.0   9.2   6.3   4.8   3.2   0.0   0.0   0.1   0.5   1.0   0.7   1.0  2.13  1.06  0.68  0.00  0.00   30.01   36.61    1.91    0.00    0.48
 1991 244    60     2     2    10.4  109.5   16615   91.2   18.3   1.6   3.1   5.5   8.0   9.2   6.3   4.8   3.2   0.0   0.0   0.1   0.5   1.0   0.7   1.0  2.14  1.06  0.67  0.00  0.00   30.57   37.16    1.92    0.00    0.50
 1991 245    61     2     2    10.4  109.1   16615   90.8   18.3   1.6   3.0   5.3   8.0   9.3   6.3   4.8   3.2   0.0   0.0   0.1   0.6   1.0   0.7   0.9  2.16  1.06  0.67  0.00  0.00   31.13   37.61    1.93    0.00    0.51
 1991 246    62     2     2    10.4  109.4   16614   91.0   18.4   1.6   2.9   5.3   8.0   9.3   6.3   4.8   3.2   0.0   0.0   0.1   0.6   1.0   0.7   0.9  2.17  1.06  0.66  0.00  0.00   31.68   38.06    1.94    0.00    0.53
 1991 247    63     2     2    10.4  108.9   16614   90.6   18.3   1.6   2.9   5.1   8.0   9.4   6.3   4.8   3.2   0.0   0.0   0.1   0.6   1.0   0.7   0.9  2.18  1.06  0.66  0.00  0.00   32.23   38.61    1.95    0.00    0.55
 1991 248    64     2     2    10.4  107.6   16613   89.4   18.2   1.5   2.7   4.7   7.8   9.4   6.4   4.8   3.2   0.0   0.0   0.1   0.6   0.9   0.7   0.9  2.19  1.06  0.66  0.00  0.00   32.78   39.15    1.95    0.00    0.57
 1991 249    65     2     2    10.4  105.9   16613   87.8   18.1   1.4   2.4   4.2   7.5   9.4   6.4   4.8   3.3   0.0   0.0   0.1   0.5   0.9   0.7   0.9  2.21  1.06  0.65  0.00  0.00   33.39   39.72    1.96    0.00    0.59
 1991 250    66     2     2    10.4  106.0   16612   87.9   18.1   1.3   2.6   4.1   7.4   9.5   6.4   4.8   3.3   0.0   0.0   0.1   0.5   0.9   0.7   0.8  2.22  1.06  0.65  0.00  0.00   34.03   40.32    1.97    0.00    0.61
 1991 251    67     2     2    10.4  105.4   16611   87.3   18.1   1.2   2.5   3.9   7.3   9.5   6.4   4.8   3.3   0.0   0.0   0.2   0.5   0.9   0.6   0.8  2.23  1.07  0.65  0.00  0.00   34.67   40.87    1.98    0.00    0.63
 1991 252    68     2     2    10.4  103.7   16611   85.7   18.0   1.2   2.2   3.4   6.9   9.6   6.4   4.9   3.3   0.0   0.0   0.1   0.5   0.9   0.6   0.8  2.25  1.07  0.64  0.00  0.00   35.28   41.47    1.99    0.00    0.63
 1991 253    69     2     2    10.4  102.5   16610   84.6   17.9   1.1   2.1   3.1   6.7   9.6   6.4   4.9   3.3   0.0   0.0   0.1   0.5   0.8   0.6   0.8  2.26  1.07  0.64  0.00  0.00   35.87   42.01    2.00    0.00    0.63
 1991 254    70     2     2    10.4  101.3   16610   83.4   17.9   1.1   1.9   2.8   6.4   9.6   6.4   4.9   3.3   0.0   0.0   0.1   0.5   0.8   0.6   0.8  2.27  1.07  0.64  0.00  0.00   36.42   42.52    2.01    0.00    0.64
 1991 255    71     2     2    10.4   99.0   16609   81.2   17.8   1.0   1.7   2.4   6.0   9.4   6.4   4.9   3.3   0.0   0.0   0.1   0.5   0.8   0.6   0.8  2.28  1.07  0.63  0.00  0.00   36.99   43.02    2.01    0.00    0.64
 1991 256    72     2     2    10.4   96.5   16608   78.8   17.7   0.9   1.5   2.0   5.6   8.9   6.4   4.9   3.3   0.0   0.0   0.1   0.5   0.8   0.6   0.7  2.30  1.07  0.63  0.00  0.00   37.59   43.57    2.02    0.00    0.64
 1991 257    73     2     2    10.4   94.0   16608   76.4   17.7   0.8   1.3   1.7   5.2   8.4   6.4   4.9   3.3   0.0   0.0   0.1   0.5   0.7   0.6   0.7  2.31  1.07  0.62  0.00  0.00   38.25   44.17    2.03    0.00    0.64
 1991 258    74     2     2    10.4   93.5   16607   75.9   17.7   0.6   1.4   1.6   5.1   8.3   6.4   4.9   3.3   0.0   0.0   0.1   0.5   0.8   0.6   0.7  2.32  1.07  0.62  0.00  0.00   38.89   44.75    2.04    0.00    0.65
 1991 259    75     2     2    10.4   92.7   16607   74.9   17.9   0.6   1.3   1.6   4.9   8.0   6.4   4.9   3.3   0.0   0.0   0.2   0.6   0.8   0.6   0.7  2.33  1.07  0.62  0.00  0.00   39.52   45.13    2.04    0.00    0.65
 1991 260    76     2     2    10.4   91.0   16606   73.0   18.0   0.4   1.0   1.5   4.6   7.6   6.4   4.9   3.3   0.0   0.0   0.3   0.7   0.7   0.6   0.7  2.35  1.07  0.61  0.00  0.00   40.15   45.53    2.05    0.00    0.65
 1991 261    77     2     2    13.0   87.0   16605   68.8   18.2   0.1   0.5   1.0   2.8   5.7   6.7   5.6   4.1   0.0   0.0   0.3   0.7   0.8   0.6   0.6  2.36  1.07  0.61  0.00  0.00   40.74   45.82    2.05    0.00    0.65
 1991 262    78     2     2    14.8   82.1   16605   64.0   18.1   0.4   0.4   0.6   2.3   4.6   6.4   5.5   4.2   0.0   0.0   0.2   0.7   0.8   0.6   0.6  2.37  1.08  0.61  0.00  0.00   41.28   46.06    2.21    0.00    0.66
 1991 263    79     2     2    15.8   77.8   16604   59.7   18.0   0.4   0.3   0.3   1.7   3.6   6.3   5.5   4.2   0.0   0.0   0.1   0.7   0.7   0.6   0.6  2.39  1.08  0.61  0.00  0.00   41.82   46.26    2.30    0.00    0.67
 1991 264    80     2     2    16.3   76.3   16604   58.3   18.0   0.4   0.4   0.3   1.5   3.2   6.2   5.4   4.2   0.0   0.0   0.1   0.6   0.7   0.6   0.6  2.40  1.08  0.61  0.00  0.00   42.40   46.68    2.35    0.00    0.67
 1991 265    81     2     2    16.5   73.8   16603   56.0   17.7   0.4   0.4   0.3   1.2   2.5   6.2   5.4   4.1   0.0   0.0   0.1   0.5   0.6   0.6   0.6  2.41  1.08  0.61  0.00  0.00   43.00   47.14    2.39    0.00    0.67
 1991 266    82     2     2    16.7   72.0   16602   54.4   17.6   0.4   0.4   0.3   0.9   2.0   6.2   5.4   4.1   0.0   0.0   0.1   0.5   0.6   0.6   0.6  2.43  1.08  0.60  0.00  0.00   43.60   47.62    2.41    0.00    0.68
 1991 267    83     2     2    16.7   68.6   16602   51.5   17.0   0.4   0.4   0.3   0.7   1.6   5.7   5.4   4.1   0.0   0.0   0.1   0.5   0.6   0.5   0.6  2.30  1.08  0.60  0.00  0.00   44.18   48.08    2.42    0.00    0.68
 1991 268    84     2     2    16.7   65.4   16601   48.9   16.4   0.4   0.4   0.3   0.6   1.4   5.2   5.4   4.2   0.0   0.0   0.1   0.5   0.6   0.5   0.6  2.16  1.08  0.60  0.00  0.00   44.76   48.53    2.43    0.00    0.68
 1991 269    85     2     2    16.7   63.0   16601   47.0   16.0   0.4   0.4   0.3   0.6   1.2   4.8   5.4   4.2   0.0   0.0   0.1   0.5   0.6   0.5   0.6  2.04  1.08  0.59  0.00  0.00   45.35   48.98    2.43    0.00    0.69
 1991 270    86     2     2    16.7   59.9   16600   44.6   15.3   0.4   0.3   0.3   0.5   1.1   4.3   5.4   4.2   0.0   0.0   0.1   0.5   0.6   0.5   0.5  1.88  1.08  0.59  0.00  0.00   45.92   49.43    2.44    0.00    0.69
 1991 271    87     2     2    16.7   56.6   16600   42.0   14.5   0.4   0.4   0.3   0.5   0.9   3.8   5.5   4.2   0.0   0.0   0.1   0.5   0.6   0.5   0.5  1.70  1.08  0.59  0.00  0.00   46.51   49.95    2.44    0.00    0.69
 1991 272    88     2     2    16.7   53.0   16599   39.3   13.7   0.4   0.4   0.3   0.4   0.8   3.2   5.5   4.2   0.0   0.0   0.1   0.5   0.6   0.5   0.5  1.51  1.08  0.59  0.00  0.00   47.10   50.46    2.45    0.00    0.69
 1991 273    89     2     2    16.7   50.9   16598   37.7   13.2   0.3   0.4   0.3   0.4   0.7   2.8   5.5   4.2   0.0   0.0   0.1   0.5   0.6   0.5   0.5  1.39  1.09  0.58  0.00  0.00   47.67   50.95    2.45    0.00    0.70
 1991 274    90     2     2    16.7   48.4   16598   35.8   12.6   0.3   0.4   0.3   0.3   0.6   2.4   5.5   4.2   0.0   0.0   0.1   0.5   0.6   0.5   0.5  1.26  1.09  0.58  0.00  0.00   48.23   51.43    2.46    0.00    0.70
 1991 275    91     2     2    16.7   46.0   16597   33.9   12.1   0.3   0.3   0.3   0.3   0.5   2.0   5.5   4.2   0.0   0.0   0.1   0.5   0.6   0.5   0.5  1.13  1.09  0.58  0.00  0.00   48.75   51.88    2.46    0.00    0.70
 1991 276    92     2     2    16.7   43.9   16597   32.4   11.6   0.3   0.3   0.3   0.3   0.4   1.7   5.5   4.2   0.0   0.0   0.1   0.5   0.6   0.5   0.5  1.03  1.09  0.57  0.00  0.00   49.23   52.28    2.47    0.00    0.70
 1991 277    93     2     2    16.7   42.3   16596   31.1   11.2   0.3   0.3   0.3   0.3   0.3   1.4   5.5   4.2   0.0   0.0   0.1   0.4   0.6   0.5   0.5  0.94  1.09  0.57  0.00  0.00   49.70   52.69    2.47    0.00    0.71
 1991 278    94     2     2    16.7   41.0   16596   30.1   10.9   0.3   0.3   0.3   0.3   0.3   1.1   5.5   4.2   0.0   0.0   0.1   0.4   0.6   0.5   0.5  0.87  1.09  0.57  0.00  0.00   50.18   53.09    2.47    0.00    0.71
 1991 279    95     2     2    16.7   40.0   16596   29.3   10.6   0.2   0.4   0.3   0.3   0.3   0.9   5.5   4.2   0.0   0.0   0.1   0.4   0.5   0.5   0.5  0.82  1.09  0.57  0.00  0.00   50.62   53.47    2.48    0.00    0.71
 1991 280    96     2     2    16.7   39.1   16595   28.6   10.6   0.1   0.2   0.3   0.3   0.3   0.8   5.5   4.2   0.0   0.0   0.2   0.5   0.6   0.5   0.5  0.77  1.09  0.56  0.00  0.00   51.09   53.73    2.48    0.00    0.71
 1991 281    97     2     2    16.7   38.5   16595   27.9   10.6   0.1   0.2   0.3   0.3   0.3   0.7   5.6   4.2   0.0   0.0   0.2   0.6   0.6   0.5   0.5  0.73  1.09  0.56  0.00  0.00   51.55   53.93    2.48    0.00    0.72
 1991 282    98     2     2    16.7   38.1   16594   27.6   10.5   0.3   0.2   0.3   0.3   0.3   0.5   5.6   4.2   0.0   0.0   0.2   0.6   0.6   0.5   0.5  0.70  1.09  0.56  0.00  0.00   52.01   54.21    2.48    0.00    0.72
 1991 283    99     2     2    16.7   37.7   16594   27.5   10.2   0.3   0.3   0.3   0.3   0.3   0.5   5.6   4.2   0.0   0.0   0.1   0.5   0.6   0.5   0.5  0.68  1.07  0.56  0.00  0.00   52.46   54.58    2.49    0.00    0.72
 1991 284   100     2     2    16.7   37.4   16593   27.4   10.0   0.3   0.3   0.3   0.3   0.3   0.4   5.6   4.3   0.0   0.0   0.1   0.5   0.6   0.5   0.5  0.65  1.04  0.55  0.00  0.00   52.95   55.02    2.49    0.00    0.73
 1991 285   101     2     2    16.7   37.1   16593   27.3    9.9   0.3   0.3   0.3   0.3   0.3   0.3   5.7   4.3   0.0   0.0   0.1   0.5   0.6   0.5   0.5  0.64  1.02  0.55  0.00  0.00   53.50   55.49    2.49    0.00    0.73
 1991 286   102     2     2    16.7   37.0   16592   27.2    9.8   0.4   0.4   0.3   0.3   0.3   0.3   5.7   4.3   0.0   0.0   0.1   0.5   0.6   0.5   0.5  0.62  1.00  0.55  0.00  0.00   54.12   56.02    2.49    0.00    0.73
 1991 287   103     2     2    16.7   37.0   16592   27.3    9.7   0.4   0.4   0.3   0.3   0.3   0.3   5.7   4.3   0.0   0.0   0.1   0.5   0.6   0.5   0.5  0.61  0.98  0.55  0.00  0.00   54.82   56.63    2.49    0.00    0.74
 1991 288   104     2     2    16.7   37.1   16591   27.4    9.7   0.1   0.3   0.4   0.3   0.3   0.3   5.7   4.3   0.0   0.0   0.2   0.5   0.6   0.5   0.5  0.61  0.96  0.54  0.00  0.00   55.58   57.22    2.49    0.00    0.74
 1991 289   105     2     2    20.3   33.5   16590   23.6    9.9   0.4   0.1   0.2   0.2   0.2   0.3   4.2   4.5   0.0   0.0   0.0   0.6   0.7   0.6   0.5  0.60  0.94  0.54  0.00  0.00   56.32   57.61    2.50    0.00    0.74
 1991 290   106     2     2    22.6   31.6   16589   21.2   10.4   0.3   0.1   0.2   0.2   0.2   0.3   3.6   4.2   0.0   0.0   0.2   0.7   0.8   0.6   0.5  0.61  0.95  0.54  0.00  0.00   56.99   57.69    2.52    0.00    0.74
 1991 291   107     2     2    23.8   30.7   16589   20.2   10.6   0.3   0.2   0.2   0.2   0.2   0.2   3.3   4.0   0.0   0.0   0.3   0.7   0.8   0.6   0.6  0.61  0.95  0.54  0.00  0.00   57.67   57.83    2.54    0.00    0.74
 1991 292   108     2     2    24.2   30.4   16588   20.0   10.4   0.5   0.2   0.2   0.2   0.2   0.2   3.2   4.0   0.0   0.0   0.1   0.7   0.8   0.6   0.6  0.61  0.96  0.54  0.00  0.00   58.30   58.11    2.54    0.00    0.75
 1991 293   109     2     2    24.4   30.1   16588   20.1   10.1   0.4   0.3   0.2   0.2   0.3   0.3   3.2   3.9   0.0   0.0   0.1   0.5   0.7   0.6   0.6  0.60  0.96  0.54  0.00  0.00   58.90   58.50    2.55    0.00    0.75
 1991 294   110     2     2    24.4   30.0   16587   20.2    9.8   0.4   0.4   0.3   0.3   0.3   0.3   3.2   3.9   0.0   0.0   0.1   0.5   0.6   0.6   0.5  0.60  0.96  0.54  0.00  0.00   59.50   58.98    2.55    0.00    0.76
 1991 295   111     2     2    24.4   30.1   16586   20.4    9.7   0.4   0.4   0.3   0.3   0.3   0.3   3.2   3.9   0.0   0.0   0.1   0.5   0.6   0.6   0.5  0.59  0.96  0.54  0.00  0.00   60.17   59.50    2.56    0.00    0.76
 1991 296   112     2     2    24.4   30.1   16586   20.4    9.6   0.4   0.4   0.3   0.3   0.3   0.3   3.2   3.9   0.0   0.0   0.1   0.5   0.6   0.5   0.5  0.59  0.96  0.53  0.00  0.00   60.90   60.07    2.56    0.00    0.76
 1991 297   113     2     2    24.4   30.1   16585   20.4    9.7   0.3   0.4   0.3   0.3   0.3   0.3   3.3   3.9   0.0   0.0   0.2   0.5   0.6   0.5   0.5  0.59  0.96  0.53  0.00  0.00   61.63   60.56    2.56    0.00    0.76
 1991 298   114     2     2    24.4   30.1   16584   20.5    9.6   0.5   0.4   0.3   0.3   0.3   0.3   3.3   3.9   0.0   0.0   0.1   0.5   0.6   0.5   0.5  0.59  0.97  0.53  0.00  0.00   62.31   61.15    2.57    0.00    0.76
 1991 299   115     2     2    24.4   30.0   16584   20.5    9.6   0.4   0.4   0.3   0.3   0.3   0.3   3.3   3.9   0.0   0.0   0.1   0.5   0.6   0.5   0.5  0.59  0.97  0.53  0.00  0.00   62.97   61.64    2.57    0.00    0.77
 1991 300   116     2     2    24.4   30.0   16583   20.5    9.5   0.4   0.4   0.3   0.3   0.3   0.3   3.3   3.9   0.0   0.0   0.1   0.5   0.6   0.5   0.5  0.58  0.97  0.52  0.00  0.00   63.61   62.11    2.57    0.00    0.77
 1991 301   117     2     2    24.4   29.1   16583   19.7    9.4   0.4   0.4   0.3   0.3   0.3   0.3   2.9   3.9   0.0   0.0   0.1   0.5   0.6   0.5   0.5  0.58  0.92  0.52  0.00  0.00   64.21   62.55    2.57    0.00    0.77
 1991 302   118     2     2    24.4   28.2   16582   18.9    9.2   0.4   0.4   0.3   0.3   0.3   0.3   2.6   3.9   0.0   0.0   0.1   0.5   0.6   0.5   0.5  0.58  0.86  0.52  0.00  0.00   64.81   63.04    2.57    0.00    0.77
 1991 303   119     2     2    24.4   27.3   16581   18.3    9.1   0.2   0.4   0.3   0.3   0.3   0.3   2.4   4.0   0.0   0.0   0.1   0.5   0.6   0.5   0.5  0.58  0.80  0.52  0.00  0.00   65.42   63.53    2.58    0.00    0.77
 1991 304   120     2     2    24.4   26.6   16581   17.5    9.1   0.2   0.3   0.3   0.3   0.3   0.3   2.1   4.0   0.0   0.0   0.2   0.6   0.6   0.5   0.5  0.58  0.75  0.52  0.00  0.00   66.01   63.86    2.58    0.00    0.77
 1991 305   121     2     2    24.4   26.0   16580   16.9    9.1   0.3   0.3   0.3   0.3   0.3   0.3   1.9   4.0   0.0   0.0   0.3   0.6   0.6   0.5   0.5  0.58  0.71  0.51  0.00  0.00   66.58   64.18    2.58    0.00    0.78
 1991 306   122     2     2    24.4   25.5   16580   16.6    8.9   0.5   0.3   0.3   0.3   0.3   0.3   1.7   4.0   0.0   0.0   0.2   0.6   0.6   0.5   0.5  0.58  0.67  0.51  0.00  0.00   67.14   64.62    2.58    0.00    0.78
 1991 307   123     2     2    24.4   24.8   16579   16.2    8.7   0.4   0.4   0.3   0.3   0.3   0.3   1.5   4.0   0.0   0.0   0.1   0.5   0.6   0.5   0.5  0.58  0.64  0.51  0.00  0.00   67.72   65.12    2.58    0.00    0.78
 1991 308   124     2     2    24.4   24.3   16579   15.7    8.6   0.4   0.4   0.3   0.3   0.3   0.3   1.3   4.0   0.0   0.0   0.1   0.5   0.6   0.5   0.5  0.57  0.62  0.51  0.00  0.00   68.31   65.59    2.58    0.00    0.78
 1991 309   125     2     2    24.4   23.9   16578   15.4    8.5   0.4   0.4   0.3   0.3   0.3   0.3   1.2   4.0   0.0   0.0   0.1   0.5   0.6   0.5   0.5  0.57  0.59  0.51  0.00  0.00   68.94   66.09    2.58    0.00    0.79
 1991 310   126     2     2    24.4   23.6   16578   15.1    8.4   0.3   0.4   0.3   0.3   0.3   0.3   1.0   4.0   0.0   0.0   0.1   0.5   0.6   0.5   0.5  0.57  0.57  0.51  0.00  0.00   69.59   66.62    2.59    0.00    0.79
 1991 311   127     2     2    24.4   23.3   16577   14.7    8.6   0.3   0.3   0.3   0.3   0.3   0.3   0.9   4.0   0.0   0.0   0.2   0.6   0.6   0.5   0.5  0.57  0.56  0.50  0.00  0.00   70.25   66.97    2.59    0.00    0.79
 1991 312   128     2     2    24.4   23.1   16576   14.8    8.3   0.5   0.4   0.3   0.3   0.3   0.3   0.8   4.0   0.0   0.0   0.1   0.5   0.6   0.5   0.5  0.57  0.54  0.50  0.00  0.00   70.91   67.60    2.59    0.00    0.80
 1991 313   129     2     2    24.4   22.7   16576   14.4    8.3   0.4   0.4   0.3   0.3   0.3   0.3   0.7   4.0   0.0   0.0   0.1   0.5   0.6   0.5   0.5  0.57  0.53  0.50  0.00  0.00   71.56   68.11    2.59    0.00    0.80
 1991 314   130     2     2    24.4   22.5   16575   14.3    8.2   0.4   0.4   0.3   0.3   0.3   0.3   0.6   4.0   0.0   0.0   0.1   0.5   0.6   0.5   0.5  0.57  0.52  0.50  0.00  0.00   72.19   68.63    2.59    0.00    0.80
 1991 315   131     2     2    24.4   22.3   16575   14.1    8.2   0.4   0.4   0.3   0.3   0.3   0.3   0.6   4.0   0.0   0.0   0.1   0.5   0.6   0.5   0.5  0.57  0.51  0.50  0.00  0.00   72.82   69.14    2.59    0.00    0.80
 1991 316   132     2     2    24.4   22.1   16574   14.0    8.1   0.4   0.4   0.3   0.3   0.3   0.3   0.5   4.0   0.0   0.0   0.1   0.5   0.6   0.5   0.5  0.57  0.51  0.48  0.00  0.00   73.42   69.65    2.59    0.00    0.81
 1991 317   133     2     2    24.4   22.0   16573   13.9    8.1   0.4   0.4   0.3   0.3   0.3   0.3   0.5   4.1   0.0   0.0   0.1   0.5   0.6   0.5   0.5  0.56  0.50  0.47  0.00  0.00   74.00   70.14    2.59    0.00    0.81
 1991 318   134     2     2    24.4   21.8   16573   13.8    8.0   0.4   0.4   0.3   0.3   0.3   0.3   0.4   4.1   0.0   0.0   0.1   0.5   0.6   0.5   0.5  0.56  0.49  0.46  0.00  0.00   74.55   70.63    2.59    0.00    0.81
 1991 319   135     2     2    24.4   21.7   16572   13.7    7.9   0.4   0.4   0.3   0.3   0.3   0.3   0.4   4.1   0.0   0.0   0.1   0.5   0.6   0.5   0.5  0.56  0.49  0.45  0.00  0.00   75.07   71.08    2.59    0.00    0.81
 1991 320   136     2     2    24.4   21.5   16572   13.6    7.9   0.3   0.3   0.3   0.3   0.3   0.3   0.4   4.1   0.0   0.0   0.1   0.5   0.6   0.5   0.5  0.56  0.48  0.44  0.00  0.00   75.56   71.53    2.59    0.00    0.82
 1991 321   137     2     2    24.4   21.3   16572   13.5    7.8   0.4   0.3   0.3   0.3   0.3   0.3   0.3   4.1   0.0   0.0   0.1   0.5   0.6   0.5   0.5  0.56  0.48  0.43  0.00  0.00   76.05   71.98    2.59    0.00    0.82
 1991 322   138     2     2    24.4   20.8   16571   13.1    7.7   0.4   0.4   0.3   0.3   0.3   0.3   0.3   3.9   0.0   0.0   0.1   0.5   0.6   0.5   0.5  0.56  0.47  0.42  0.00  0.00   76.54   72.44    2.59    0.00    0.82
 1991 323   139     2     2    24.4   20.1   16571   12.5    7.6   0.4   0.4   0.3   0.3   0.3   0.3   0.3   3.7   0.0   0.0   0.1   0.4   0.6   0.5   0.5  0.56  0.46  0.41  0.00  0.00   77.03   72.91    2.59    0.00    0.82
 1991 324   140     2     2    24.4   19.5   16570   12.0    7.5   0.4   0.4   0.3   0.3   0.3   0.3   0.3   3.5   0.0   0.0   0.1   0.4   0.5   0.5   0.5  0.55  0.46  0.40  0.00  0.00   77.51   73.39    2.59    0.00    0.83
 1991 325   141     2     2    24.4   18.9   16570   11.5    7.4   0.3   0.4   0.3   0.3   0.3   0.3   0.3   3.3   0.0   0.0   0.1   0.4   0.5   0.5   0.5  0.55  0.45  0.39  0.00  0.00   77.97   73.86    2.59    0.00    0.83
 1991 326   142     2     2    24.4   18.4   16569   11.0    7.3   0.4   0.4   0.3   0.3   0.3   0.3   0.3   3.1   0.0   0.0   0.1   0.4   0.5   0.5   0.5  0.55  0.45  0.38  0.00  0.00   78.44   74.35    2.59    0.00    0.83
 1991 327   143     2     2    24.4   17.9   16569   10.7    7.2   0.5   0.4   0.3   0.3   0.3   0.3   0.3   2.9   0.0   0.0   0.1   0.3   0.5   0.5   0.5  0.55  0.44  0.38  0.00  0.00   78.91   74.86    2.59    0.00    0.83
 1991 328   144     2     2    24.4   17.4   16568   10.3    7.1   0.6   0.4   0.3   0.3   0.3   0.3   0.3   2.7   0.0   0.0   0.1   0.3   0.5   0.5   0.4  0.55  0.43  0.37  0.00  0.00   79.38   75.38    2.59    0.00    0.84
 1991 329   145     2     2    24.4   17.0   16568   10.0    7.0   0.2   0.2   0.4   0.4   0.3   0.3   0.3   2.5   0.0   0.0   0.1   0.3   0.5   0.4   0.4  0.55  0.42  0.36  0.00  0.00   79.84   75.87    2.59    0.00    0.84
 1991 330   146     2     2    24.4   16.8   16567    9.3    7.5   0.1   0.2   0.2   0.3   0.3   0.3   0.3   2.4   0.0   0.0   0.2   0.4   0.6   0.5   0.4  0.55  0.42  0.35  0.00  0.00   80.53   76.06    2.59    0.00    0.84
 1991 331   147     2     2    24.4   16.6   16567    8.7    7.9   0.1   0.2   0.2   0.3   0.3   0.3   0.3   2.2   0.0   0.0   0.3   0.5   0.7   0.5   0.5  0.55  0.41  0.34  0.00  0.00   81.22   76.23    2.59    0.00    0.84
 1991 332   148     2     2    24.4   16.6   16566    8.4    8.2   0.2   0.2   0.2   0.3   0.2   0.3   0.3   2.1   0.0   0.0   0.3   0.6   0.7   0.6   0.5  0.56  0.41  0.33  0.00  0.00   81.87   76.41    2.59    0.00    0.84
 1991 333   149     2     2    24.4   16.4   16565    8.3    8.1   0.5   0.3   0.3   0.3   0.3   0.3   0.3   2.0   0.0   0.0   0.1   0.7   0.7   0.6   0.5  0.56  0.40  0.32  0.00  0.00   82.49   76.77    2.59    0.00    0.85
 1991 334   150     2     2    24.4   16.3   16565    8.0    8.3   0.4   0.3   0.3   0.3   0.3   0.3   0.3   1.9   0.0   0.0   0.2   0.7   0.7   0.6   0.5  0.56  0.40  0.32  0.00  0.00   83.13   76.94    2.59    0.00    0.85
 1991 335   151     2     2    24.4   16.0   16564    7.9    8.1   0.5   0.3   0.3   0.3   0.3   0.3   0.3   1.8   0.0   0.0   0.1   0.7   0.7   0.6   0.5  0.57  0.39  0.31  0.00  0.00   83.84   77.34    2.60    0.00    0.86
 1991 336   152     2     2    24.4   15.7   16563    7.9    7.7   0.4   0.5   0.3   0.3   0.3   0.3   0.3   1.7   0.0   0.0   0.1   0.5   0.6   0.6   0.5  0.57  0.39  0.30  0.00  0.00   84.59   78.03    2.60    0.00    0.86
 1991 337   153     2     2    24.4   15.3   16563    7.7    7.6   0.4   0.4   0.3   0.3   0.3   0.3   0.3   1.6   0.0   0.0   0.1   0.5   0.6   0.6   0.5  0.57  0.38  0.29  0.00  0.00   85.38   78.69    2.60    0.00    0.86
 1991 338   154     2     2    24.4   15.0   16562    7.5    7.5   0.4   0.4   0.3   0.3   0.3   0.3   0.3   1.5   0.0   0.0   0.1   0.5   0.6   0.5   0.5  0.58  0.38  0.29  0.00  0.00   86.16   79.33    2.60    0.00    0.87
 1991 339   155     2     2    24.4   14.8   16561    7.3    7.5   0.3   0.4   0.4   0.3   0.3   0.3   0.3   1.4   0.0   0.0   0.1   0.5   0.6   0.5   0.5  0.58  0.38  0.28  0.00  0.00   86.98   79.99    2.60    0.00    0.87
 1991 340   156     2     2    24.4   14.6   16561    6.8    7.8   0.3   0.3   0.3   0.3   0.3   0.3   0.3   1.3   0.0   0.0   0.2   0.6   0.7   0.5   0.5  0.58  0.37  0.27  0.00  0.00   87.79   80.30    2.60    0.00    0.87
 1991 341   157     2     2    24.4   14.6   16560    6.9    7.7   0.7   0.3   0.3   0.3   0.3   0.3   0.3   1.2   0.0   0.0   0.0   0.7   0.6   0.5   0.5  0.58  0.37  0.26  0.00  0.00   88.62   80.98    2.60    0.00    0.87
 1991 342   158     2     2    24.4   14.2   16559    6.8    7.5   0.3   0.5   0.3   0.3   0.3   0.3   0.3   1.2   0.0   0.0   0.2   0.5   0.6   0.5   0.5  0.58  0.36  0.26  0.00  0.00   89.44   81.64    2.60    0.00    0.88
[...]
 1992 293   109     2     2     0.0   69.5   16596   58.3   11.2   1.4   5.0   6.0   7.6   5.2   1.9   2.3   1.8   0.0   0.0   0.1   0.4   0.5   0.4   0.5  1.67  0.40  0.16  0.00  0.00   49.90   63.53    0.00    0.00    0.51
 1992 294   110     2     2     0.0   68.8   16596   57.6   11.2   1.1   5.0   5.8   7.5   5.2   1.9   2.3   1.8   0.0   0.0   0.1   0.4   0.5   0.4   0.5  1.66  0.39  0.16  0.00  0.00   50.37   64.00    0.00    0.00    0.52
 1992 295   111     2     2     0.0   64.0   16595   52.9   11.1   0.9   4.0   4.8   6.9   4.8   1.9   2.3   1.8   0.0   0.0   0.1   0.4   0.5   0.4   0.5  1.64  0.39  0.16  0.00  0.00   50.82   64.44    0.00    0.00    0.52
 1992 296   112     2     2     0.0   60.4   16595   49.4   10.9   0.9   3.3   4.0   6.5   4.6   1.9   2.3   1.8   0.0   0.0   0.1   0.5   0.5   0.4   0.5  1.61  0.39  0.16  0.00  0.00   51.27   64.88    0.00    0.00    0.52
 1992 297   113     2     2     0.0   56.6   16595   45.9   10.8   0.8   2.7   3.2   6.1   4.3   1.8   2.3   1.8   0.0   0.0   0.1   0.5   0.5   0.4   0.5  1.57  0.39  0.16  0.00  0.00   51.72   65.34    0.00    0.00    0.52
 1992 298   114     2     2     0.0   51.8   16594   41.3   10.4   0.7   2.0   2.3   5.5   3.9   1.7   2.3   1.8   0.0   0.0   0.1   0.4   0.5   0.4   0.5  1.51  0.39  0.16  0.00  0.00   52.16   65.81    0.00    0.00    0.53
 1992 299   115     2     2     0.0   45.8   16594   35.9   10.0   0.5   1.3   1.4   4.7   3.3   1.6   2.3   1.9   0.0   0.0   0.1   0.4   0.5   0.4   0.5  1.41  0.39  0.16  0.00  0.00   52.61   66.31    0.00    0.00    0.53
 1992 300   116     2     2     0.0   44.1   16593   34.3    9.7   0.6   1.1   1.2   4.4   3.2   1.5   2.4   1.9   0.0   0.0   0.1   0.4   0.5   0.4   0.5  1.37  0.39  0.16  0.00  0.00   53.07   66.82    0.00    0.00    0.53
 1992 301   117     2     2     0.0   37.6   16593   28.5    9.1   0.5   0.5   0.5   3.5   2.5   1.3   2.4   1.9   0.0   0.0   0.1   0.3   0.5   0.4   0.4  1.24  0.39  0.16  0.00  0.00   53.53   67.33    0.00    0.00    0.53
 1992 302   118     2     2     0.0   33.5   16592   25.0    8.5   0.6   0.4   0.3   2.9   1.9   1.1   2.4   1.9   0.0   0.0   0.1   0.3   0.5   0.3   0.4  1.11  0.39  0.16  0.00  0.00   53.97   67.84    0.00    0.00    0.54
 1992 303   119     2     2     0.0   30.5   16592   22.5    8.0   0.5   0.3   0.3   2.4   1.5   0.9   2.4   1.9   0.0   0.0   0.1   0.3   0.5   0.3   0.4  1.01  0.39  0.16  0.00  0.00   54.38   68.27    0.00    0.00    0.54
 1992 304   120     2     2     0.0   28.2   16592   20.6    7.6   0.4   0.3   0.3   2.0   1.2   0.8   2.4   1.9   0.0   0.0   0.1   0.3   0.5   0.3   0.4  0.93  0.38  0.15  0.00  0.00   54.75   68.67    0.00    0.00    0.54
 1992 305   121     2     2     0.0   26.5   16591   19.2    7.3   0.4   0.3   0.3   1.7   1.0   0.6   2.4   1.9   0.0   0.0   0.1   0.2   0.5   0.3   0.4  0.86  0.38  0.15  0.00  0.00   55.09   69.05    0.00    0.00    0.54
 1992 306   122     2     2     0.0   25.2   16591   18.2    7.0   0.5   0.3   0.3   1.5   0.9   0.5   2.4   1.9   0.0   0.0   0.1   0.2   0.5   0.3   0.4  0.80  0.38  0.15  0.00  0.00   55.41   69.40    0.00    0.00    0.54
 1992 307   123     2     2     0.0   24.1   16591   17.4    6.8   0.5   0.3   0.3   1.4   0.8   0.4   2.4   1.9   0.0   0.0   0.1   0.2   0.5   0.3   0.4  0.76  0.38  0.15  0.00  0.00   55.70   69.73    0.00    0.00    0.55
 1992 308   124     2     2     0.0   23.3   16590   16.8    6.5   0.5   0.4   0.3   1.2   0.7   0.4   2.4   1.9   0.0   0.0   0.1   0.2   0.5   0.3   0.4  0.72  0.38  0.15  0.00  0.00   56.01   70.09    0.00    0.00    0.55
 1992 309   125     2     2     0.0   22.6   16590   16.2    6.4   0.3   0.3   0.3   1.1   0.6   0.3   2.5   1.9   0.0   0.0   0.2   0.2   0.5   0.3   0.4  0.68  0.38  0.15  0.00  0.00   56.38   70.40    0.00    0.00    0.55
 1992 310   126     2     2     0.0   22.1   16590   15.8    6.2   0.4   0.3   0.3   1.1   0.6   0.3   2.5   1.9   0.0   0.0   0.1   0.2   0.4   0.3   0.4  0.66  0.38  0.15  0.00  0.00   56.74   70.80    0.00    0.00    0.55
 1992 311   127     2     2     0.0   21.6   16589   15.5    6.1   0.4   0.3   0.3   1.0   0.5   0.3   2.5   1.9   0.0   0.0   0.1   0.2   0.4   0.3   0.4  0.63  0.38  0.15  0.00  0.00   57.05   71.14    0.00    0.00    0.55
 1992 312   128     2     2     0.0   21.3   16589   15.4    6.0   0.3   0.3   0.3   0.9   0.5   0.3   2.5   1.9   0.0   0.0   0.1   0.2   0.4   0.3   0.3  0.62  0.38  0.15  0.00  0.00   57.33   71.44    0.00    0.00    0.56
 1992 313   129     2     2     0.0   21.1   16589   15.2    5.9   0.3   0.3   0.3   0.9   0.5   0.3   2.5   1.9   0.0   0.0   0.1   0.2   0.4   0.3   0.3  0.60  0.38  0.15  0.00  0.00   57.58   71.71    0.00    0.00    0.56
 1992 314   130     2     2     0.0   21.0   16589   15.2    5.8   0.4   0.3   0.3   0.9   0.4   0.3   2.5   1.9   0.0   0.0   0.1   0.2   0.4   0.3   0.3  0.59  0.38  0.15  0.00  0.00   57.82   71.99    0.00    0.00    0.56
 1992 315   131     2     2     0.0   20.9   16588   15.2    5.7   0.5   0.3   0.3   0.8   0.4   0.3   2.5   1.9   0.0   0.0   0.1   0.2   0.4   0.3   0.3  0.58  0.38  0.15  0.00  0.00   58.08   72.29    0.00    0.00    0.56
 1992 316   132     2     2     0.0   20.8   16588   15.3    5.6   0.5   0.3   0.3   0.8   0.4   0.3   2.5   1.9   0.0   0.0   0.1   0.2   0.4   0.2   0.3  0.57  0.38  0.15  0.00  0.00   58.35   72.60    0.00    0.00    0.56
 1992 317   133     2     2     0.0   20.7   16588   15.2    5.5   0.3   0.3   0.3   0.8   0.4   0.3   2.5   1.9   0.0   0.0   0.1   0.2   0.4   0.2   0.3  0.56  0.38  0.15  0.00  0.00   58.64   72.92    0.00    0.00    0.57
 1992 318   134     2     2     0.0   20.7   16587   15.3    5.4   0.4   0.3   0.3   0.8   0.4   0.3   2.6   2.0   0.0   0.0   0.1   0.2   0.4   0.2   0.3  0.55  0.37  0.15  0.00  0.00   58.94   73.28    0.00    0.00    0.57
 1992 319   135     2     2     0.0   20.7   16587   15.4    5.3   0.5   0.3   0.3   0.8   0.4   0.3   2.6   2.0   0.0   0.0   0.1   0.2   0.4   0.2   0.3  0.55  0.37  0.15  0.00  0.00   59.23   73.62    0.00    0.00    0.57
 1992 320   136     2     2     0.0   20.4   16587   15.1    5.2   0.3   0.4   0.4   0.8   0.4   0.3   2.4   2.0   0.0   0.0   0.1   0.2   0.4   0.2   0.3  0.54  0.37  0.14  0.00  0.00   59.51   73.95    0.00    0.00    0.57
 1992 321   137     2     2     0.0   19.9   16586   14.5    5.4   0.2   0.3   0.4   0.9   0.4   0.3   2.1   2.0   0.0   0.0   0.2   0.3   0.4   0.2   0.3  0.54  0.37  0.14  0.00  0.00   59.95   74.24    0.00    0.00    0.57
 1992 322   138     2     2     0.0   19.4   16586   14.1    5.3   0.5   0.3   0.4   0.9   0.4   0.3   1.9   2.0   0.0   0.0   0.1   0.3   0.4   0.2   0.3  0.54  0.37  0.14  0.00  0.00   60.37   74.70    0.00    0.00    0.57
 1992 323   139     2     2     0.0   18.8   16586   13.5    5.3   0.3   0.3   0.4   0.9   0.4   0.3   1.7   2.0   0.0   0.0   0.1   0.3   0.3   0.2   0.3  0.54  0.37  0.14  0.00  0.00   60.73   75.04    0.00    0.00    0.58
 1992 324   140     2     2     0.0   18.3   16585   13.1    5.2   0.4   0.3   0.4   0.9   0.5   0.3   1.5   2.0   0.0   0.0   0.1   0.3   0.3   0.2   0.2  0.53  0.37  0.14  0.00  0.00   61.05   75.39    0.00    0.00    0.58
 1992 325   141     2     2     0.0   17.8   16585   12.7    5.2   0.4   0.3   0.4   0.9   0.5   0.3   1.3   2.0   0.0   0.0   0.1   0.3   0.3   0.2   0.2  0.53  0.37  0.14  0.00  0.00   61.35   75.72    0.00    0.00    0.58
 1992 326   142     2     2     0.0   17.4   16585   12.3    5.1   0.4   0.3   0.4   0.9   0.5   0.3   1.1   2.0   0.0   0.0   0.1   0.3   0.3   0.2   0.2  0.53  0.36  0.14  0.00  0.00   61.63   76.05    0.00    0.00    0.58
 1992 327   143     2     2     0.0   17.1   16585   12.1    5.0   0.4   0.3   0.4   1.0   0.5   0.3   1.0   2.0   0.0   0.0   0.1   0.3   0.3   0.2   0.2  0.53  0.36  0.14  0.00  0.00   61.90   76.37    0.00    0.00    0.59
 1992 328   144     2     2     0.0   16.9   16584   11.9    5.0   0.5   0.3   0.4   1.0   0.5   0.3   0.9   2.0   0.0   0.0   0.1   0.3   0.3   0.2   0.2  0.53  0.36  0.14  0.00  0.00   62.16   76.67    0.00    0.00    0.59
 1992 329   145     2     2     0.0   16.7   16584   11.7    4.9   0.6   0.3   0.4   1.0   0.5   0.3   0.8   2.0   0.0   0.0   0.1   0.2   0.3   0.2   0.2  0.53  0.35  0.14  0.00  0.00   62.40   76.95    0.00    0.00    0.59
 1992 330   146     2     2     0.0   16.5   16584   11.6    4.9   0.6   0.3   0.4   1.0   0.5   0.3   0.7   2.0   0.0   0.0   0.1   0.2   0.3   0.2   0.2  0.53  0.35  0.14  0.00  0.00   62.62   77.22    0.00    0.00    0.59
 1992 331   147     2     2     0.0   16.4   16584   11.6    4.8   0.7   0.3   0.4   1.0   0.5   0.3   0.6   2.0   0.0   0.0   0.1   0.2   0.3   0.2   0.2  0.52  0.34  0.14  0.00  0.00   62.82   77.46    0.00    0.00    0.59
 1992 332   148     2     2     0.0   16.3   16583   11.6    4.8   0.7   0.3   0.4   1.0   0.5   0.3   0.6   2.0   0.0   0.0   0.0   0.2   0.3   0.2   0.2  0.52  0.33  0.14  0.00  0.00   63.03   77.71    0.00    0.00    0.59
 1992 333   149     2     2     0.0   16.3   16583   11.6    4.7   0.8   0.3   0.4   1.0   0.5   0.3   0.5   2.0   0.0   0.0   0.0   0.2   0.3   0.2   0.2  0.52  0.33  0.14  0.00  0.00   63.23   77.96    0.00    0.00    0.60
 1992 334   150     2     2     0.0   16.3   16583   11.6    4.7   0.8   0.3   0.5   1.0   0.6   0.3   0.5   2.0   0.0   0.0   0.0   0.2   0.3   0.2   0.2  0.52  0.32  0.14  0.00  0.00   63.44   78.22    0.00    0.00    0.60
 1992 335   151     2     2     0.0   16.3   16583   11.7    4.6   0.4   0.6   0.5   1.1   0.6   0.3   0.5   2.0   0.0   0.0   0.0   0.2   0.3   0.2   0.2  0.52  0.32  0.14  0.00  0.00   63.65   78.47    0.00    0.00    0.60
 1992 336   152     2     2     0.0   16.2   16582   11.4    4.8   0.3   0.3   0.5   1.1   0.6   0.3   0.4   2.0   0.0   0.0   0.2   0.3   0.3   0.2   0.2  0.52  0.31  0.14  0.00  0.00   64.04   78.71    0.00    0.00    0.60
 1992 337   153     2     2     0.0   16.4   16582   11.6    4.7   0.5   0.3   0.6   1.1   0.6   0.3   0.4   2.0   0.0   0.0   0.1   0.3   0.3   0.2   0.2  0.52  0.30  0.14  0.00  0.00   64.44   79.12    0.00    0.00    0.60
 1992 338   154     2     2     0.0   16.1   16582   11.4    4.7   0.4   0.4   0.6   1.1   0.6   0.3   0.4   2.0   0.0   0.0   0.1   0.4   0.3   0.2   0.2  0.52  0.30  0.14  0.00  0.00   64.80   79.46    0.00    0.00    0.60
 1992 339   155     2     2     0.0   15.8   16581   11.1    4.7   0.4   0.4   0.5   1.1   0.6   0.3   0.4   1.9   0.0   0.0   0.1   0.3   0.3   0.2   0.2  0.52  0.29  0.14  0.00  0.00   65.12   79.82    0.00    0.00    0.61
 1992 340   156     2     2     0.0   15.5   16581   10.9    4.6   0.4   0.4   0.5   1.1   0.6   0.3   0.4   1.8   0.0   0.0   0.1   0.3   0.3   0.2   0.2  0.52  0.29  0.14  0.00  0.00   65.40   80.17    0.00    0.00    0.61
 1992 341   157     2     2     0.0   15.2   16581   10.6    4.6   0.3   0.4   0.5   1.1   0.6   0.3   0.3   1.6   0.0   0.0   0.1   0.3   0.3   0.2   0.2  0.52  0.28  0.14  0.00  0.00   65.66   80.49    0.00    0.00    0.61
 1992 342   158     2     2     0.0   15.0   16581   10.3    4.7   0.3   0.3   0.5   1.2   0.7   0.3   0.3   1.5   0.0   0.0   0.1   0.3   0.3   0.2   0.2  0.51  0.28  0.14  0.00  0.00   66.08   80.81    0.00    0.00    0.61
 1992 343   159     2     2     0.0   14.8   16580   10.1    4.7   0.5   0.4   0.4   1.2   0.7   0.3   0.3   1.4   0.0   0.0   0.1   0.4   0.3   0.2   0.2  0.51  0.27  0.14  0.00  0.00   66.49   81.22    0.00    0.00    0.61
 1992 344   160     2     2     0.0   14.5   16580    9.8    4.7   0.4   0.4   0.4   1.2   0.7   0.3   0.3   1.4   0.0   0.0   0.1   0.4   0.3   0.2   0.2  0.51  0.27  0.13  0.00  0.00   66.90   81.62    0.00    0.00    0.62
 1992 345   161     2     2     0.0   14.2   16579    9.6    4.6   0.4   0.4   0.3   1.2   0.7   0.3   0.3   1.3   0.0   0.0   0.1   0.4   0.3   0.2   0.2  0.51  0.26  0.13  0.00  0.00   67.27   82.02    0.00    0.00    0.62
 1992 346   162     2     2     0.0   13.9   16579    9.3    4.6   0.4   0.4   0.3   1.2   0.7   0.3   0.3   1.2   0.0   0.0   0.1   0.4   0.3   0.1   0.2  0.51  0.26  0.13  0.00  0.00   67.60   82.39    0.00    0.00    0.62
 1992 347   163     2     2     0.0   13.6   16579    9.1    4.5   0.4   0.4   0.3   1.2   0.7   0.3   0.3   1.1   0.0   0.0   0.1   0.3   0.3   0.1   0.2  0.51  0.25  0.13  0.00  0.00   67.89   82.75    0.00    0.00    0.62
 1992 348   164     2     2     0.0   13.5   16579    9.1    4.4   0.5   0.4   0.3   1.2   0.7   0.3   0.3   1.1   0.0   0.0   0.1   0.3   0.3   0.1   0.2  0.51  0.25  0.13  0.00  0.00   68.16   83.09    0.00    0.00    0.62
 1992 349   165     2     2     0.0   13.4   16578    9.0    4.4   0.6   0.3   0.3   1.2   0.7   0.3   0.3   1.0   0.0   0.0   0.1   0.3   0.3   0.1   0.2  0.51  0.24  0.13  0.00  0.00   68.43   83.41    0.00    0.00    0.63
 1992 350   166     2     2     0.0   13.3   16578    9.0    4.3   0.6   0.3   0.3   1.3   0.7   0.3   0.3   0.9   0.0   0.0   0.0   0.2   0.3   0.1   0.2  0.51  0.24  0.13  0.00  0.00   68.68   83.72    0.00    0.00    0.63
 1992 351   167     2     2     0.0   13.2   16578    8.9    4.3   0.7   0.3   0.3   1.3   0.8   0.3   0.3   0.9   0.0   0.0   0.0   0.2   0.3   0.1   0.2  0.51  0.23  0.13  0.00  0.00   68.92   84.01    0.00    0.00    0.63
 1992 352   168     2     2     0.0   13.1   16578    8.9    4.2   0.8   0.3   0.3   1.3   0.8   0.3   0.3   0.8   0.0   0.0   0.0   0.2   0.3   0.1   0.2  0.51  0.23  0.12  0.00  0.00   69.16   84.30    0.00    0.00    0.63
 1992 353   169     2     2     0.0   13.1   16577    8.9    4.2   0.8   0.3   0.3   1.3   0.8   0.3   0.3   0.8   0.0   0.0   0.0   0.2   0.3   0.1   0.2  0.51  0.22  0.12  0.00  0.00   69.39   84.57    0.00    0.00    0.63
 1992 354   170     2     2     0.0   13.0   16577    8.9    4.1   0.8   0.3   0.3   1.3   0.8   0.3   0.3   0.7   0.0   0.0   0.0   0.2   0.3   0.1   0.2  0.50  0.22  0.12  0.00  0.00   69.61   84.83    0.00    0.00    0.63
 1992 355   171     2     2     0.0   13.0   16577    8.9    4.1   0.9   0.3   0.3   1.3   0.8   0.3   0.3   0.7   0.0   0.0   0.0   0.2   0.3   0.1   0.2  0.50  0.22  0.12  0.00  0.00   69.83   85.09    0.00    0.00    0.63
 1992 356   172     2     2     0.0   13.1   16577    9.0    4.1   0.9   0.3   0.4   1.3   0.8   0.3   0.3   0.6   0.0   0.0   0.0   0.1   0.3   0.1   0.1  0.50  0.21  0.12  0.00  0.00   70.05   85.35    0.00    0.00    0.63
 1992 357   173     2     2     0.0   13.1   16576    9.1    4.0   1.0   0.3   0.4   1.3   0.8   0.3   0.3   0.6   0.0   0.0   0.0   0.1   0.3   0.1   0.1  0.50  0.21  0.11  0.00  0.00   70.28   85.62    0.00    0.00    0.63
 1992 358   174     2     2     0.0   13.1   16576    9.1    4.0   0.9   0.3   0.4   1.4   0.8   0.3   0.3   0.6   0.0   0.0   0.1   0.1   0.3   0.1   0.1  0.50  0.20  0.11  0.00  0.00   70.54   85.88    0.00    0.00    0.63
 1992 359   175     2     2     0.0   13.3   16576    9.3    4.0   0.6   0.6   0.5   1.4   0.8   0.3   0.3   0.6   0.0   0.0   0.0   0.1   0.3   0.1   0.1  0.50  0.20  0.11  0.00  0.00   70.79   86.20    0.00    0.00    0.63
 1992 360   176     2     2     0.0   13.1   16576    8.9    4.1   0.3   0.3   0.5   1.4   0.9   0.3   0.3   0.5   0.0   0.0   0.2   0.3   0.3   0.1   0.1  0.50  0.20  0.11  0.00  0.00   71.22   86.44    0.00    0.00    0.64
 1992 361   177     2     2     0.0   13.3   16575    9.1    4.2   0.5   0.3   0.5   1.4   0.9   0.3   0.3   0.5   0.0   0.0   0.1   0.3   0.3   0.1   0.1  0.50  0.19  0.11  0.00  0.00   71.64   86.84    0.00    0.00    0.64
 1992 362   178     2     2     0.0   13.3   16575    9.1    4.2   0.4   0.4   0.5   1.4   0.9   0.3   0.3   0.5   0.0   0.0   0.1   0.4   0.3   0.1   0.1  0.50  0.19  0.10  0.00  0.00   72.00   87.18    0.00    0.00    0.64
 1992 363   179     2     2     0.0   13.3   16574    9.1    4.1   0.4   0.4   0.5   1.4   0.9   0.4   0.3   0.5   0.0   0.0   0.1   0.3   0.3   0.1   0.1  0.50  0.19  0.10  0.00  0.00   72.31   87.54    0.00    0.00    0.64
 1992 364   180     2     2     0.0   13.3   16574    9.2    4.1   0.5   0.4   0.5   1.4   0.9   0.4   0.3   0.4   0.0   0.0   0.1   0.3   0.3   0.1   0.1  0.50  0.18  0.10  0.00  0.00   72.59   87.88    0.00    0.00    0.65
 1992 365   181     2     2     0.0   13.3   16574    9.3    4.0   0.6   0.3   0.5   1.4   0.9   0.4   0.3   0.4   0.0   0.0   0.1   0.3   0.3   0.1   0.1  0.50  0.18  0.10  0.00  0.00   72.85   88.19    0.00    0.00    0.65
 1992 366   182     2     2     0.0   13.2   16574    9.2    4.0   0.0   0.3   0.7   1.5   0.9   0.4   0.3   0.4   0.0   0.0   0.1   0.2   0.3   0.1   0.1  0.50  0.18  0.10  0.00  0.00   73.13   88.48    0.00    0.00    0.65
 1993 001   183     2     2     0.0   12.9   16573    8.7    4.3   0.1   0.1   0.1   0.9   1.4   0.5   0.3   0.4   0.0   0.0   0.1   0.4   0.4   0.1   0.1  0.49  0.17  0.10  0.00  0.00   73.63   88.71    0.00    0.00    0.65
 1993 002   184     2     2     0.0   12.5   16573    7.8    4.7   0.1   0.1   0.1   0.8   1.2   0.5   0.3   0.4   0.0   0.0   0.2   0.5   0.5   0.2   0.2  0.50  0.17  0.10  0.00  0.00   74.17   88.80    0.00    0.00    0.65
 1993 003   185     2     2     0.0   12.1   16572    7.0    5.1   0.2   0.1   0.1   0.6   1.0   0.5   0.3   0.4   0.0   0.0   0.3   0.6   0.6   0.2   0.2  0.50  0.17  0.09  0.00  0.00   74.68   88.90    0.00    0.00    0.66
 1993 004   186     2     2     0.0   11.7   16572    6.3    5.4   0.2   0.2   0.1   0.4   0.7   0.5   0.4   0.3   0.0   0.0   0.4   0.7   0.6   0.2   0.2  0.50  0.17  0.09  0.00  0.00   75.19   89.02    0.00    0.00    0.66
 1993 005   187     2     2     0.0   11.4   16571    5.9    5.5   0.6   0.2   0.1   0.3   0.6   0.4   0.4   0.3   0.0   0.0   0.1   0.7   0.7   0.2   0.2  0.50  0.17  0.09  0.00  0.00   75.73   89.33    0.00    0.00    0.67
 1993 006   188     2     2     0.0   10.8   16570    5.1    5.7   0.4   0.2   0.1   0.2   0.5   0.4   0.4   0.3   0.0   0.0   0.1   0.7   0.7   0.3   0.2  0.50  0.16  0.09  0.00  0.00   76.34   89.53    0.01    0.00    0.68
 1993 007   189     2     2     0.0   10.4   16570    4.9    5.5   0.4   0.4   0.2   0.3   0.4   0.3   0.3   0.3   0.0   0.0   0.1   0.5   0.7   0.3   0.3  0.51  0.16  0.09  0.00  0.00   77.02   89.98    0.01    0.00    0.68
 1993 008   190     2     2     0.0   10.2   16569    4.6    5.5   0.2   0.4   0.3   0.3   0.3   0.3   0.3   0.3   0.0   0.0   0.1   0.5   0.6   0.3   0.3  0.52  0.16  0.09  0.00  0.00   77.75   90.49    0.01    0.00    0.68
 1993 009   191     2     2     0.0   10.4   16568    4.4    6.0   0.4   0.3   0.3   0.2   0.2   0.3   0.3   0.3   0.0   0.0   0.1   0.6   0.7   0.4   0.3  0.52  0.15  0.09  0.00  0.00   78.52   90.70    0.01    0.00    0.68
 1993 010   192     2     2     0.0   10.6   16568    4.3    6.3   0.4   0.3   0.3   0.3   0.2   0.3   0.3   0.3   0.0   0.0   0.1   0.7   0.7   0.4   0.3  0.53  0.15  0.08  0.00  0.00   79.32   90.97    0.01    0.00    0.69
 1993 011   193     2     2     0.0   10.7   16567    4.6    6.0   0.4   0.5   0.4   0.3   0.3   0.3   0.3   0.3   0.0   0.0   0.1   0.5   0.7   0.5   0.4  0.54  0.15  0.08  0.00  0.00   80.13   91.60    0.02    0.00    0.69
 1993 012   194     2     2     0.0   10.6   16566    4.6    6.0   0.4   0.4   0.3   0.3   0.3   0.3   0.3   0.3   0.0   0.0   0.1   0.5   0.6   0.5   0.4  0.55  0.15  0.08  0.00  0.00   80.97   92.21    0.02    0.00    0.69
 1993 013   195     2     2     0.0   11.5   16566    5.3    6.2   0.6   0.6   0.4   0.3   0.3   0.3   0.3   0.3   0.0   0.0   0.1   0.5   0.7   0.5   0.4  0.56  0.15  0.08  0.00  0.00   81.84   92.87    0.02    0.00    0.69
 1993 014   196     2     2     0.0   12.4   16565    6.0    6.5   0.8   0.8   0.5   0.4   0.3   0.3   0.3   0.3   0.0   0.0   0.1   0.5   0.8   0.5   0.4  0.58  0.15  0.08  0.00  0.00   82.77   93.58    0.02    0.00    0.70
