*SOIL-PLANT-ATMOSPHERE MODULE OUTPUT FILE

*DSSAT Cropping System Model Ver. 4.0.2.000               Aug 01, 2016; 15:14:26

*RUN   1        : UYMZ                    
 MODEL          : MZCER040 - Maize           
 EXPERIMENT     : UYMZ0103 MZ    late to create DSS                             
 TREATMENT  1   : UYMZ                    

@YEAR DOY   DAS   SRAA   TMXA   TMNA   EOAA   ETAA   EPAA   ESAA   EFAD   ETAC   EPAC   ESAC   EFAC
 1975 184     0   8.80  16.00   7.80  1.741  1.741  0.000  1.741  0.000    1.7    0.0    1.7    0.0
 1975 185     1   8.50  20.60   5.70  1.759  1.759  0.000  1.759  0.000    3.5    0.0    3.5    0.0
 1975 186     2  10.20  14.80   7.80  1.983  1.983  0.000  1.983  0.000    5.5    0.0    5.5    0.0
 1975 187     3  12.30  14.10   5.50  2.313  2.313  0.000  2.313  0.000    7.8    0.0    7.8    0.0
 1975 188     4  12.40  19.40   4.30  2.491  2.176  0.000  2.176  0.000   10.0    0.0   10.0    0.0
 1975 189     5  12.40  20.90   5.90  2.582  2.582  0.000  2.582  0.000   12.6    0.0   12.6    0.0
 1975 190     6   9.20  23.40   8.80  2.031  0.480  0.000  0.480  0.000   13.0    0.0   13.0    0.0
 1975 191     7   7.00  21.80  14.80  1.593  0.276  0.000  0.276  0.000   13.3    0.0   13.3    0.0
 1975 192     8   3.60  15.50  12.30  0.738  0.738  0.000  0.738  0.000   14.0    0.0   14.0    0.0
 1975 193     9  10.90  14.90   5.30  2.071  2.071  0.000  2.071  0.000   16.1    0.0   16.1    0.0
 1975 194    10   4.70  18.80   2.60  0.921  0.921  0.000  0.921  0.000   17.0    0.0   17.0    0.0
 1975 195    11   3.70  18.60  11.30  0.784  0.784  0.000  0.784  0.000   17.8    0.0   17.8    0.0
 1975 196    12  12.30  12.70   5.60  2.267  2.267  0.000  2.267  0.000   20.1    0.0   20.1    0.0
 1975 197    13   9.60   7.50   2.20  1.565  1.565  0.000  1.565  0.000   21.7    0.0   21.7    0.0
 1975 198    14  10.50  10.30   1.20  1.776  1.776  0.000  1.776  0.000   23.4    0.0   23.4    0.0
 1975 199    15  11.80  10.20   0.00  1.965  1.456  0.000  1.456  0.000   24.9    0.0   24.9    0.0
 1975 200    16  12.20  13.10  -1.30  2.102  2.102  0.000  2.102  0.000   27.0    0.0   27.0    0.0
 1975 201    17  12.00  14.90  -2.10  2.111  0.967  0.000  0.967  0.000   28.0    0.0   28.0    0.0
 1975 202    18  12.20  13.90  -1.80  2.119  0.271  0.000  0.271  0.000   28.2    0.0   28.2    0.0
 1975 203    19   5.80  15.40   3.20  1.087  0.455  0.000  0.455  0.000   28.7    0.0   28.7    0.0
 1975 204    20   5.50  16.60   7.70  1.097  0.241  0.000  0.241  0.000   28.9    0.0   28.9    0.0
 1975 205    21   6.80  13.40   7.30  1.289  0.228  0.000  0.228  0.000   29.2    0.0   29.2    0.0
 1975 206    22  10.90  10.80   3.10  1.898  0.418  0.000  0.418  0.000   29.6    0.0   29.6    0.0
 1975 207    23  11.60  10.30  -0.40  1.926  1.354  0.000  1.354  0.000   30.9    0.0   30.9    0.0
 1975 208    24   7.70  12.40   3.60  1.383  0.253  0.000  0.253  0.000   31.2    0.0   31.2    0.0
 1975 209    25   5.50  14.10   9.20  1.073  0.192  0.000  0.192  0.000   31.4    0.0   31.4    0.0
 1975 210    26   4.50  15.00   8.20  0.881  0.881  0.000  0.881  0.000   32.2    0.0   32.2    0.0
 1975 211    27   4.10  11.70   8.40  0.766  0.766  0.001  0.765  0.000   33.0    0.0   33.0    0.0
 1975 212    28   6.00  18.50   9.60  1.250  1.250  0.001  1.249  0.000   34.3    0.0   34.3    0.0
 1975 213    29   9.80  23.00  10.50  2.184  1.460  0.004  1.456  0.000   35.7    0.0   35.7    0.0
 1975 214    30   6.90  18.60   9.40  1.437  1.090  0.005  1.085  0.000   36.8    0.0   36.8    0.0
 1975 215    31   7.90  13.60   7.30  1.501  0.274  0.007  0.268  0.000   37.1    0.0   37.1    0.0
 1975 216    32  11.20  14.00   2.50  2.038  0.172  0.010  0.162  0.000   37.3    0.0   37.2    0.0
 1975 217    33  11.90  14.20   3.60  2.198  0.167  0.010  0.158  0.000   37.4    0.0   37.4    0.0
 1975 218    34  11.60  15.00   0.30  2.096  0.162  0.009  0.153  0.000   37.6    0.0   37.5    0.0
 1975 219    35   4.40  14.90   2.80  0.815  0.152  0.003  0.149  0.000   37.7    0.0   37.7    0.0
 1975 220    36   4.30  14.30   8.80  0.838  0.148  0.003  0.145  0.000   37.9    0.1   37.8    0.0
 1975 221    37   4.40  14.30  10.80  0.874  0.145  0.003  0.142  0.000   38.0    0.1   38.0    0.0
 1975 222    38   4.40  15.00  12.70  0.898  0.898  0.004  0.894  0.000   38.9    0.1   38.9    0.0
 1975 223    39   5.80  12.40   9.40  1.105  1.105  0.006  1.099  0.000   40.0    0.1   40.0    0.0
 1975 224    40  13.50  19.90   7.40  2.809  2.809  0.018  2.791  0.000   42.8    0.1   42.8    0.0
 1975 225    41  14.60  15.50   5.00  2.788  2.788  0.021  2.767  0.000   45.6    0.1   45.5    0.0
 1975 226    42   6.30  14.00   3.00  1.152  0.872  0.009  0.863  0.000   46.5    0.1   46.4    0.0
 1975 227    43   5.00  16.70  10.60  1.025  1.025  0.008  1.017  0.000   47.5    0.1   47.4    0.0
 1975 228    44   7.60  17.80   7.10  1.531  1.531  0.014  1.517  0.000   49.1    0.1   48.9    0.0
 1975 229    45  15.00  18.30   3.70  2.946  2.357  0.029  2.328  0.000   51.4    0.2   51.3    0.0
 1975 230    46  13.80  19.20   8.00  2.857  2.485  0.034  2.451  0.000   53.9    0.2   53.7    0.0
 1975 231    47  12.50  20.50  10.30  2.687  0.506  0.044  0.461  0.000   54.4    0.2   54.2    0.0
 1975 232    48   6.80  18.40  12.10  1.444  0.294  0.033  0.261  0.000   54.7    0.3   54.4    0.0
 1975 233    49  11.60  23.10   9.40  2.556  0.419  0.075  0.344  0.000   55.1    0.3   54.8    0.0
 1975 234    50   4.90  17.60  14.80  1.052  1.052  0.040  1.013  0.000   56.2    0.4   55.8    0.0
 1975 235    51   5.80  17.10  13.20  1.219  1.219  0.056  1.163  0.000   57.4    0.4   56.9    0.0
 1975 236    52   9.70  18.80  11.80  2.058  2.058  0.110  1.947  0.000   59.5    0.6   58.9    0.0
 1975 237    53   5.20  14.30   3.90  0.959  0.959  0.059  0.899  0.000   60.4    0.6   59.8    0.0
 1975 238    54  17.40  12.50   1.70  3.047  3.047  0.185  2.862  0.000   63.5    0.8   62.7    0.0
 1975 239    55  10.80  15.30   1.90  1.983  1.983  0.101  1.882  0.000   65.4    0.9   64.5    0.0
 1975 240    56  12.80  18.70   7.60  2.613  2.396  0.115  2.281  0.000   67.8    1.0   66.8    0.0
 1975 241    57  15.70  16.50   5.00  3.028  3.023  0.149  2.874  0.000   70.9    1.2   69.7    0.0
 1975 242    58  13.50  17.80   3.40  2.612  0.871  0.143  0.728  0.000   71.7    1.3   70.4    0.0
 1975 243    59  13.60  19.20   4.80  2.721  0.724  0.149  0.575  0.000   72.5    1.5   71.0    0.0
 1975 244    60  15.00  22.30   8.40  3.232  0.546  0.194  0.352  0.000   73.0    1.7   71.3    0.0
 1975 245    61  18.40  23.10   4.80  3.877  0.708  0.276  0.432  0.000   73.7    1.9   71.8    0.0
 1975 246    62  18.00  22.20   4.40  3.729  0.514  0.301  0.213  0.000   74.2    2.2   72.0    0.0
 1975 247    63  12.30  21.30   9.20  2.626  0.425  0.232  0.193  0.000   74.6    2.5   72.2    0.0
 1975 248    64   6.80  20.90  13.40  1.496  0.526  0.150  0.375  0.000   75.2    2.6   72.6    0.0
 1975 249    65   8.40  13.70   4.50  1.534  0.440  0.178  0.262  0.000   75.6    2.8   72.8    0.0
 1975 250    66  18.10  16.90   2.00  3.384  3.384  0.392  2.993  0.000   79.0    3.2   75.8    0.0
 1975 251    67   6.20  18.60   5.50  1.231  1.231  0.126  1.105  0.000   80.2    3.3   76.9    0.0
 1975 252    68   8.00  17.20  10.10  1.625  1.625  0.178  1.447  0.000   81.9    3.5   78.4    0.0
 1975 253    69  11.70  19.10   6.60  2.360  1.645  0.282  1.363  0.000   83.5    3.8   79.7    0.0
 1975 254    70  18.50  18.40   3.50  3.584  2.064  0.465  1.599  0.000   85.6    4.2   81.3    0.0
 1975 255    71   6.20  20.40  10.60  1.318  0.417  0.171  0.247  0.000   86.0    4.4   81.6    0.0
 1975 256    72  15.50  20.60   9.40  3.264  1.488  0.472  1.016  0.000   87.5    4.9   82.6    0.0
 1975 257    73   9.90  18.00   9.90  2.018  1.407  0.323  1.084  0.000   88.9    5.2   83.7    0.0
 1975 258    74  19.30  19.40   5.30  3.839  3.244  0.662  2.581  0.000   92.1    5.9   86.3    0.0
 1975 259    75  15.20  20.60   6.40  3.102  0.711  0.570  0.141  0.000   92.8    6.4   86.4    0.0
 1975 260    76  19.10  21.80   8.90  4.044  1.239  0.799  0.440  0.000   94.1    7.2   86.8    0.0
 1975 261    77   6.20  18.60  13.10  1.303  0.405  0.282  0.123  0.000   94.5    7.5   87.0    0.0
 1975 262    78   6.20  19.00  15.10  1.330  0.416  0.312  0.104  0.000   94.9    7.8   87.1    0.0
 1975 263    79  18.40  21.90  15.80  4.110  1.351  1.053  0.298  0.000   96.2    8.9   87.4    0.0
 1975 264    80  15.50  21.00  10.80  3.269  3.269  0.942  2.326  0.000   99.5    9.8   89.7    0.0
 1975 265    81  20.30  19.20   6.60  4.013  4.013  1.254  2.759  0.000  103.5   11.1   92.5    0.0
 1975 266    82  21.10  22.10   8.00  4.385  3.454  1.444  2.011  0.000  107.0   12.5   94.5    0.0
 1975 267    83  12.10  15.50   6.40  2.254  1.618  0.797  0.821  0.000  108.6   13.3   95.3    0.0
 1975 268    84  21.00  15.30   2.40  3.745  1.514  1.345  0.168  0.000  110.1   14.7   95.5    0.0
 1975 269    85  19.60  18.30   1.00  3.619  1.331  1.184  0.147  0.000  111.4   15.8   95.6    0.0
 1975 270    86   9.90  19.70  12.10  2.081  0.672  0.552  0.119  0.000  112.1   16.4   95.7    0.0
 1975 271    87  13.70  23.00  14.10  3.047  0.986  0.886  0.100  0.000  113.1   17.3   95.8    0.0
 1975 272    88   6.70  17.10  14.30  1.378  1.378  0.449  0.929  0.000  114.5   17.7   96.7    0.0
 1975 273    89  22.20  21.70  10.00  4.660  4.660  1.632  3.028  0.000  119.1   19.4   99.8    0.0
 1975 274    90  21.80  22.00   7.50  4.482  4.482  1.680  2.802  0.000  123.6   21.0  102.6    0.0
 1975 275    91   9.60  15.80   8.10  1.818  1.447  0.720  0.727  0.000  125.1   21.8  103.3    0.0
 1975 276    92  22.50  19.60   3.30  4.291  4.287  1.745  2.542  0.000  129.4   23.5  105.8    0.0
 1975 277    93  21.00  19.10   6.70  4.110  2.650  1.638  1.011  0.000  132.0   25.1  106.9    0.0
 1975 278    94  20.70  19.80   2.70  3.934  1.879  1.631  0.248  0.000  133.9   26.8  107.1    0.0
 1975 279    95  12.20  22.40   7.50  2.516  1.201  0.990  0.210  0.000  135.1   27.8  107.3    0.0
 1975 280    96  17.30  28.40  11.20  3.955  1.845  1.664  0.180  0.000  136.9   29.4  107.5    0.0
 1975 281    97  23.40  18.10   5.50  4.433  2.719  2.057  0.662  0.000  139.6   31.5  108.2    0.0
 1975 282    98  23.80  18.00   2.10  4.350  2.217  2.078  0.139  0.000  141.9   33.6  108.3    0.0
 1975 283    99  23.50  19.70   1.40  4.394  2.025  1.910  0.115  0.000  143.9   35.5  108.4    0.0
 1975 284   100  21.90  20.20   4.80  4.287  4.287  1.610  2.678  0.000  148.2   37.1  111.1    0.0
 1975 285   101  18.10  20.60   5.50  3.580  3.580  1.399  2.181  0.000  151.8   38.5  113.3    0.0
 1975 286   102  18.00  23.40  11.00  3.870  3.360  1.576  1.784  0.000  155.1   40.1  115.1    0.0
 1975 287   103  22.00  23.10   9.50  4.637  3.279  2.028  1.251  0.000  158.4   42.1  116.3    0.0
 1975 288   104  23.20  26.70   7.50  5.020  3.913  2.314  1.599  0.000  162.3   44.4  117.9    0.0
 1975 289   105  22.60  26.90  10.30  5.003  2.582  2.423  0.159  0.000  164.9   46.8  118.1    0.0
 1975 290   106  25.40  27.80   8.10  5.569  5.569  2.831  2.738  0.000  170.5   49.7  120.8    0.0
 1975 291   107  24.70  27.50   7.70  5.364  5.233  2.726  2.507  0.000  175.7   52.4  123.3    0.0
 1975 292   108  19.30  21.70  13.80  4.092  4.092  2.269  1.822  0.000  179.8   54.7  125.1    0.0
 1975 293   109  19.40  21.90  12.40  4.066  4.066  2.336  1.730  0.000  183.8   57.0  126.9    0.0
 1975 294   110  23.70  21.70   8.20  4.769  4.769  2.819  1.949  0.000  188.6   59.8  128.8    0.0
 1975 295   111  25.80  20.20   6.90  5.023  5.023  3.020  2.003  0.000  193.6   62.8  130.8    0.0
 1975 296   112  26.20  22.50   4.30  5.137  5.137  3.119  2.018  0.000  198.8   65.9  132.8    0.0
 1975 297   113  19.30  23.50   6.90  3.924  3.924  2.386  1.538  0.000  202.7   68.3  134.4    0.0
 1975 298   114  20.00  27.10  10.80  4.393  4.393  2.703  1.689  0.000  207.1   71.0  136.1    0.0
 1975 299   115   9.80  25.20  12.40  2.128  2.113  1.337  0.776  0.000  209.2   72.4  136.8    0.0
 1975 300   116  18.10  23.90   9.90  3.783  3.783  2.418  1.364  0.000  213.0   74.8  138.2    0.0
 1975 301   117  21.20  23.90   5.60  4.267  4.267  2.753  1.514  0.000  217.3   77.5  139.7    0.0
 1975 302   118  25.30  24.00  11.90  5.379  5.379  3.479  1.900  0.000  222.6   81.0  141.6    0.0
 1975 303   119  27.30  25.50   8.90  5.766  5.627  3.616  2.011  0.000  228.3   84.6  143.6    0.0
 1975 304   120  26.50  23.00   7.30  5.345  4.603  3.489  1.115  0.000  232.9   88.1  144.7    0.0
 1975 305   121  27.30  23.10   7.20  5.509  4.566  3.596  0.971  0.000  237.4   91.7  145.7    0.0
 1975 306   122  27.20  23.50   8.80  5.596  5.596  3.641  1.955  0.000  243.0   95.4  147.7    0.0
 1975 307   123  25.80  23.70   8.70  5.318  5.318  3.452  1.866  0.000  248.3   98.8  149.5    0.0
 1975 308   124  19.40  23.20  10.00  4.018  4.018  2.601  1.417  0.000  252.4  101.4  150.9    0.0
 1975 309   125  11.00  22.70  14.60  2.350  2.350  1.549  0.801  0.000  254.7  103.0  151.7    0.0
 1975 310   126  10.60  22.00  16.70  2.284  2.284  1.508  0.776  0.000  257.0  104.5  152.5    0.0
 1975 311   127   8.30  18.50  14.90  1.686  1.686  1.109  0.577  0.000  258.7  105.6  153.1    0.0
 1975 312   128  16.10  23.90  14.30  3.485  3.485  2.272  1.213  0.000  262.2  107.9  154.3    0.0
 1975 313   129  28.00  22.40  12.20  5.849  5.849  3.785  2.064  0.000  268.0  111.6  156.4    0.0
 1975 314   130  28.00  22.70   8.90  5.713  5.713  3.657  2.055  0.000  273.7  115.3  158.4    0.0
 1975 315   131  26.10  22.80  10.70  5.420  5.420  3.423  1.998  0.000  279.2  118.7  160.4    0.0
 1975 316   132  28.30  26.50   7.80  6.015  5.657  3.517  2.140  0.000  284.8  122.2  162.6    0.0
 1975 317   133  26.20  28.00  13.30  5.934  5.603  3.645  1.958  0.000  290.4  125.9  164.5    0.0
 1975 318   134  28.40  32.00  14.00  6.775  6.775  4.115  2.659  0.000  297.2  130.0  167.2    0.0
 1975 319   135   8.60  27.90  16.10  1.991  1.991  1.198  0.793  0.000  299.2  131.2  168.0    0.0
 1975 320   136  14.20  21.40  10.70  2.908  2.908  1.725  1.183  0.000  302.1  132.9  169.2    0.0
 1975 321   137  28.30  23.40   7.30  5.782  5.782  3.373  2.409  0.000  307.9  136.3  171.6    0.0
 1975 322   138  28.30  21.20   6.20  5.567  5.567  3.190  2.377  0.000  313.4  139.5  174.0    0.0
 1975 323   139  28.40  26.60  10.30  6.211  5.130  3.484  1.646  0.000  318.6  143.0  175.6    0.0
 1975 324   140  21.00  27.60  15.10  4.834  3.432  2.670  0.762  0.000  322.0  145.6  176.4    0.0
 1975 325   141  26.50  25.90  13.50  5.908  3.427  3.216  0.212  0.000  325.4  148.9  176.6    0.0
 1975 326   142  26.60  29.10  10.90  6.041  4.603  3.234  1.369  0.000  330.0  152.1  177.9    0.0
 1975 327   143  22.90  25.50  11.60  5.013  2.767  2.638  0.129  0.000  332.8  154.7  178.1    0.0
 1975 328   144  28.70  24.90   8.00  6.059  6.059  3.128  2.931  0.000  338.9  157.9  181.0    0.0
 1975 329   145  28.90  28.20   9.70  6.453  5.914  2.823  3.091  0.000  344.8  160.7  184.1    0.0
 1975 330   146  26.90  28.90  13.00  6.223  4.697  3.085  1.612  0.000  349.5  163.8  185.7    0.0
 1975 331   147  26.50  29.10  13.20  6.163  3.153  2.970  0.182  0.000  352.6  166.7  185.9    0.0
 1975 332   148  13.10  25.20  16.80  2.998  2.998  1.405  1.594  0.000  355.6  168.1  187.5    0.0
 1975 333   149  19.00  19.50   7.40  3.739  3.739  1.709  2.030  0.000  359.4  169.8  189.5    0.0
 1975 334   150  29.30  21.60   4.70  5.797  5.794  2.584  3.211  0.000  365.1  172.4  192.7    0.0
 1975 335   151  29.10  24.90   8.20  6.209  4.662  2.704  1.958  0.000  369.8  175.1  194.7    0.0
 1975 336   152  29.10  30.30  11.60  6.821  3.102  2.902  0.201  0.000  372.9  178.0  194.9    0.0
 1975 337   153  24.90  27.30  14.10  5.753  5.753  2.392  3.360  0.000  378.7  180.4  198.2    0.0
 1975 338   154  28.40  29.30  11.60  6.593  5.834  2.512  3.323  0.000  384.5  182.9  201.6    0.0
 1975 339   155  13.20  25.30  13.40  2.967  2.058  1.181  0.876  0.000  386.6  184.1  202.4    0.0
 1975 340   156  25.70  32.70  18.10  6.519  6.519  2.541  3.978  0.000  393.1  186.7  206.4    0.0
 1975 341   157  23.90  30.90  16.80  5.894  5.303  2.252  3.051  0.000  398.4  188.9  209.5    0.0
 1975 342   158  19.70  26.50  16.10  4.601  4.601  1.724  2.877  0.000  403.0  190.6  212.3    0.0
 1975 343   159  29.20  25.20  13.20  6.567  6.567  2.415  4.152  0.000  409.5  193.1  216.5    0.0
 1975 344   160  29.70  29.60  14.70  7.122  5.756  2.286  3.470  0.000  415.3  195.3  220.0    0.0
 1975 345   161  29.70  27.50  13.40  6.888  4.072  2.428  1.644  0.000  419.4  197.8  221.6    0.0
 1975 346   162  27.00  32.60  14.80  6.714  2.587  2.309  0.278  0.000  422.0  200.1  221.9    0.0
 1975 347   163  29.70  24.70  11.10  6.548  2.437  2.196  0.240  0.000  424.4  202.3  222.1    0.0
 1975 348   164  29.60  26.00   9.80  6.568  2.344  2.148  0.196  0.000  426.7  204.4  222.3    0.0
 1975 349   165  26.00  30.50  14.60  6.324  2.178  2.016  0.162  0.000  428.9  206.4  222.5    0.0
 1975 350   166  23.70  32.20  14.50  5.876  1.960  1.826  0.133  0.000  430.9  208.3  222.6    0.0
 1975 351   167  27.60  34.00  17.60  7.143  7.143  2.164  4.979  0.000  438.0  210.4  227.6    0.0
 1975 352   168  29.00  35.60  19.30  7.940  4.757  2.338  2.419  0.000  442.8  212.8  230.0    0.0
 1975 353   169  18.50  23.90  10.90  4.053  1.406  1.166  0.240  0.000  444.2  213.9  230.3    0.0
 1975 354   170  29.40  26.00   8.30  6.476  2.016  1.815  0.201  0.000  446.2  215.7  230.5    0.0
 1975 355   171  29.60  29.70  12.20  7.040  6.168  1.646  4.522  0.000  452.4  217.4  235.0    0.0
 1975 356   172  25.00  34.40  15.30  6.418  2.892  1.706  1.186  0.000  455.3  219.1  236.2    0.0
 1975 357   173  25.10  30.10  14.70  6.123  6.123  1.585  4.538  0.000  461.4  220.7  240.7    0.0
 1975 358   174  27.40  31.60  11.40  6.636  4.348  1.664  2.684  0.000  465.7  222.3  243.4    0.0
 1975 359   175  23.30  33.30  19.30  6.096  3.021  1.495  1.526  0.000  468.8  223.8  244.9    0.0
 1975 360   176  16.00  31.20  18.10  4.061  1.174  0.969  0.205  0.000  469.9  224.8  245.1    0.0
 1975 361   177  17.00  28.20  13.20  4.022  4.022  0.934  3.089  0.000  474.0  225.7  248.2    0.0
 1975 362   178  30.20  26.30  10.70  6.852  6.583  1.316  5.267  0.000  480.5  227.1  253.5    0.0
 1975 363   179  30.00  32.90  10.00  7.322  3.442  1.608  1.835  0.000  484.0  228.7  255.3    0.0
 1975 364   180  29.90  35.70  12.40  7.912  1.967  1.689  0.278  0.000  485.9  230.4  255.6    0.0
 1975 365   181  30.00  36.70  14.90  8.534  2.015  1.770  0.245  0.000  488.0  232.1  255.8    0.0
 1976 001   182  25.90  37.00  15.60  7.526  1.718  1.517  0.201  0.000  489.7  233.6  256.0    0.0
 1976 002   183  23.70  33.40  19.60  6.255  1.388  1.224  0.163  0.000  491.1  234.9  256.2    0.0
 1976 003   184  20.00  33.90  22.20  5.406  1.163  1.028  0.135  0.000  492.2  235.9  256.3    0.0
 1976 004   185  24.70  33.30  21.10  6.589  6.589  1.216  5.373  0.000  498.8  237.1  261.7    0.0
 1976 005   186   9.60  25.20  20.90  2.342  2.144  0.419  1.724  0.000  501.0  237.5  263.4    0.0
 1976 006   187  28.10  26.60  14.80  6.650  5.246  1.156  4.090  0.000  506.2  238.7  267.5    0.0
 1976 007   188  28.70  26.90  14.30  6.794  5.298  1.145  4.153  0.000  511.5  239.8  271.7    0.0
 1976 008   189  15.00  27.70  15.60  3.623  2.505  0.591  1.914  0.000  514.0  240.4  273.6    0.0
 1976 009   190   9.60  25.00  19.40  2.315  0.819  0.367  0.453  0.000  514.8  240.8  274.0    0.0
 1976 010   191  20.20  29.70  19.70  5.151  2.369  0.790  1.578  0.000  517.2  241.6  275.6    0.0
 1976 011   192  29.10  29.30  19.20  7.365  6.507  0.976  5.531  0.000  523.7  242.6  281.2    0.0
 1976 012   193  23.60  32.40  20.20  6.225  2.792  0.896  1.897  0.000  526.5  243.4  283.0    0.0
 1976 013   194   9.70  26.90  22.00  2.443  0.619  0.340  0.278  0.000  527.1  243.8  283.3    0.0
 1976 014   195  11.70  29.00  14.50  2.853  0.652  0.385  0.267  0.000  527.8  244.2  283.6    0.0
 1976 015   196  29.40  29.90  14.70  7.258  7.072  0.885  6.187  0.000  534.8  245.1  289.8    0.0
 1976 016   197  29.20  31.00  15.40  7.337  2.913  0.956  1.958  0.000  537.8  246.0  291.7    0.0
 1976 017   198  29.20  33.30  16.00  7.558  1.264  0.986  0.278  0.000  539.0  247.0  292.0    0.0
 1976 018   199  23.10  33.80  17.20  6.064  1.069  0.791  0.278  0.000  540.1  247.8  292.3    0.0

*DSSAT Cropping System Model Ver. 4.0.2.000               Aug 01, 2016; 15:14:26

*RUN   2        : UYMZ                    
 MODEL          : MZCER040 - Maize           
 EXPERIMENT     : UYMZ0103 MZ    late to create DSS                             
 TREATMENT  1   : UYMZ                    

@YEAR DOY   DAS   SRAA   TMXA   TMNA   EOAA   ETAA   EPAA   ESAA   EFAD   ETAC   EPAC   ESAC   EFAC
 1976 184     0   9.60  16.90   3.20  1.840  1.151  0.000  1.151  0.000    1.2    0.0    1.2    0.0
 1976 185     1  10.80  20.60   2.20  2.163  2.163  0.000  2.163  0.000    3.3    0.0    3.3    0.0
 1976 186     2  11.90  13.10   1.10  2.105  1.543  0.000  1.543  0.000    4.9    0.0    4.9    0.0
 1976 187     3  11.00  13.70  -3.20  1.875  0.403  0.000  0.403  0.000    5.3    0.0    5.3    0.0
 1976 188     4  10.40  15.30  -2.40  1.836  0.135  0.000  0.135  0.000    5.4    0.0    5.4    0.0
 1976 189     5   9.50  14.50   0.40  1.706  1.706  0.000  1.706  0.000    7.1    0.0    7.1    0.0
 1976 190     6  10.50  10.40   2.40  1.803  1.803  0.000  1.803  0.000    8.9    0.0    8.9    0.0
 1976 191     7  11.70  10.20   0.90  1.969  1.969  0.000  1.969  0.000   10.9    0.0   10.9    0.0
 1976 192     8  12.50  13.00  -1.40  2.148  1.444  0.000  1.444  0.000   12.3    0.0   12.3    0.0
 1976 193     9  12.60  13.80  -3.60  2.142  1.148  0.000  1.148  0.000   13.5    0.0   13.5    0.0
 1976 194    10   6.20  13.70   2.50  1.124  0.262  0.000  0.262  0.000   13.7    0.0   13.7    0.0
 1976 195    11   4.70  12.70   1.80  0.832  0.246  0.000  0.246  0.000   14.0    0.0   14.0    0.0
 1976 196    12   7.70  14.50   1.20  1.394  0.233  0.000  0.233  0.000   14.2    0.0   14.2    0.0
 1976 197    13  11.80  15.70  -2.00  2.105  0.221  0.000  0.221  0.000   14.4    0.0   14.4    0.0
 1976 198    14  12.50  18.20   0.00  2.366  0.310  0.000  0.310  0.000   14.7    0.0   14.7    0.0
 1976 199    15  12.70  20.60  -0.40  2.481  0.201  0.000  0.201  0.000   14.9    0.0   14.9    0.0
 1976 200    16  11.60  20.70   3.00  2.345  0.192  0.000  0.192  0.000   15.1    0.0   15.1    0.0
 1976 201    17  13.00  23.10   3.40  2.726  0.284  0.000  0.284  0.000   15.4    0.0   15.4    0.0
 1976 202    18  12.40  24.70   6.90  2.739  0.177  0.000  0.177  0.000   15.6    0.0   15.6    0.0
 1976 203    19   9.90  24.10  12.50  2.275  0.171  0.000  0.171  0.000   15.8    0.0   15.8    0.0
 1976 204    20   8.90  26.00  15.80  2.149  0.165  0.000  0.165  0.000   15.9    0.0   15.9    0.0
 1976 205    21   6.90  21.40  14.30  1.556  0.160  0.000  0.160  0.000   16.1    0.0   16.1    0.0
 1976 206    22   6.80  19.00  13.30  1.474  1.474  0.003  1.471  0.000   17.6    0.0   17.6    0.0
 1976 207    23   4.00  14.70  11.20  0.802  0.802  0.002  0.800  0.000   18.4    0.0   18.4    0.0
 1976 208    24  11.90  16.00   7.70  2.351  2.351  0.009  2.342  0.000   20.7    0.0   20.7    0.0
 1976 209    25  13.10  17.40   7.20  2.628  2.628  0.012  2.616  0.000   23.3    0.0   23.3    0.0
 1976 210    26   6.80  15.70   5.00  1.303  1.201  0.007  1.194  0.000   24.5    0.0   24.5    0.0
 1976 211    27   5.00  20.40  12.80  1.099  1.099  0.006  1.092  0.000   25.6    0.0   25.6    0.0
 1976 212    28   7.60  14.90   6.20  1.456  0.838  0.011  0.827  0.000   26.5    0.0   26.4    0.0
 1976 213    29  13.20  16.50   3.30  2.516  0.285  0.020  0.265  0.000   26.8    0.1   26.7    0.0
 1976 214    30   4.20  11.50   9.40  0.789  0.255  0.006  0.249  0.000   27.0    0.1   26.9    0.0
 1976 215    31   4.20  13.30   9.30  0.810  0.241  0.007  0.235  0.000   27.3    0.1   27.2    0.0
 1976 216    32   4.20  13.90  10.90  0.830  0.830  0.007  0.822  0.000   28.1    0.1   28.0    0.0
 1976 217    33   4.20  14.10  11.00  0.833  0.833  0.008  0.825  0.000   28.9    0.1   28.8    0.0
 1976 218    34   4.80  16.70  11.60  0.993  0.993  0.011  0.982  0.000   29.9    0.1   29.8    0.0
 1976 219    35  13.40  18.80   9.80  2.805  2.805  0.034  2.771  0.000   32.7    0.1   32.6    0.0
 1976 220    36  13.30  17.20   7.80  2.672  2.672  0.045  2.627  0.000   35.4    0.2   35.2    0.0
 1976 221    37   5.10  15.00   8.60  1.000  0.849  0.020  0.829  0.000   36.2    0.2   36.0    0.0
 1976 222    38   5.10  12.50   7.70  0.955  0.955  0.022  0.932  0.000   37.2    0.2   37.0    0.0
 1976 223    39  14.50  14.80   4.00  2.707  2.707  0.068  2.640  0.000   39.9    0.3   39.6    0.0
 1976 224    40  12.50  15.20   4.60  2.362  1.722  0.060  1.662  0.000   41.6    0.4   41.3    0.0
 1976 225    41  12.70  14.60   7.70  2.452  2.311  0.066  2.245  0.000   43.9    0.4   43.5    0.0
 1976 226    42  13.80  13.20   5.00  2.539  1.911  0.076  1.836  0.000   45.8    0.5   45.3    0.0
 1976 227    43  15.00  13.00   3.20  2.700  2.699  0.083  2.616  0.000   48.5    0.6   48.0    0.0
 1976 228    44  15.60  15.50   0.20  2.830  0.390  0.083  0.306  0.000   48.9    0.7   48.3    0.0
 1976 229    45   7.00  16.90   3.00  1.336  0.253  0.028  0.225  0.000   49.2    0.7   48.5    0.0
 1976 230    46  13.40  16.60   5.90  2.620  0.266  0.054  0.211  0.000   49.5    0.7   48.7    0.0
 1976 231    47  15.30  18.00   2.70  2.958  0.273  0.072  0.201  0.000   49.7    0.8   48.9    0.0
 1976 232    48  14.70  15.60   3.10  2.753  0.259  0.067  0.191  0.000   50.0    0.9   49.1    0.0
 1976 233    49  16.10  16.90  -0.10  2.977  0.254  0.072  0.182  0.000   50.2    1.0   49.3    0.0
 1976 234    50  16.30  17.50   2.40  3.122  0.226  0.053  0.174  0.000   50.5    1.0   49.5    0.0
 1976 235    51  16.40  19.90   1.20  3.215  0.222  0.056  0.166  0.000   50.7    1.1   49.6    0.0
 1976 236    52  15.60  22.60   1.50  3.187  0.212  0.053  0.160  0.000   50.9    1.1   49.8    0.0
 1976 237    53   6.00  17.80   8.90  1.228  0.176  0.022  0.154  0.000   51.1    1.1   49.9    0.0
 1976 238    54   5.10  14.80  11.50  1.025  0.173  0.025  0.149  0.000   51.3    1.2   50.1    0.0
 1976 239    55   5.10  16.00  14.10  1.066  1.066  0.033  1.034  0.000   52.3    1.2   51.1    0.0
 1976 240    56   6.40  22.90  14.20  1.463  1.463  0.058  1.405  0.000   53.8    1.3   52.5    0.0
 1976 241    57  15.20  18.40   8.60  3.116  3.116  0.162  2.954  0.000   56.9    1.4   55.5    0.0
 1976 242    58  17.60  16.50   6.00  3.424  3.356  0.207  3.148  0.000   60.3    1.6   58.6    0.0
 1976 243    59  17.90  22.90   5.70  3.794  2.735  0.251  2.484  0.000   63.0    1.9   61.1    0.0
 1976 244    60  13.60  26.30   7.70  3.060  0.497  0.237  0.260  0.000   63.5    2.1   61.4    0.0
 1976 245    61   5.40  22.20  15.50  1.230  0.584  0.115  0.469  0.000   64.1    2.2   61.8    0.0
 1976 246    62   5.40  19.60  11.60  1.148  0.373  0.131  0.243  0.000   64.4    2.4   62.1    0.0
 1976 247    63  18.00  16.70   7.50  3.537  3.537  0.449  3.087  0.000   68.0    2.8   65.2    0.0
 1976 248    64  14.70  13.90   3.50  2.660  2.660  0.361  2.299  0.000   70.6    3.2   67.5    0.0
 1976 249    65  12.40  12.80   2.60  2.186  1.671  0.285  1.386  0.000   72.3    3.5   68.9    0.0
 1976 250    66  13.60  13.90   0.80  2.397  2.397  0.282  2.114  0.000   74.7    3.7   71.0    0.0
 1976 251    67   5.70  11.30   7.90  1.042  0.748  0.093  0.655  0.000   75.5    3.8   71.6    0.0
 1976 252    68   6.30  10.90   7.10  1.135  1.135  0.105  1.030  0.000   76.6    3.9   72.7    0.0
 1976 253    69  14.10  14.10   4.80  2.606  2.606  0.246  2.360  0.000   79.2    4.2   75.0    0.0
 1976 254    70  18.90  15.10   4.80  3.545  3.545  0.343  3.202  0.000   82.7    4.5   78.2    0.0
 1976 255    71  19.60  15.20   1.20  3.548  2.446  0.356  2.089  0.000   85.2    4.9   80.3    0.0
 1976 256    72  10.60  16.90   7.10  2.091  1.428  0.172  1.256  0.000   86.6    5.1   81.6    0.0
 1976 257    73   6.00  12.70   9.60  1.140  0.382  0.104  0.278  0.000   87.0    5.2   81.8    0.0
 1976 258    74  15.50  17.00   6.40  3.032  3.032  0.335  2.697  0.000   90.0    5.5   84.5    0.0
 1976 259    75  18.40  21.50   6.10  3.818  3.795  0.458  3.337  0.000   93.8    6.0   87.9    0.0
 1976 260    76  17.10  21.30   8.20  3.599  3.596  0.484  3.112  0.000   97.4    6.4   91.0    0.0
 1976 261    77  19.50  25.50   9.00  4.355  1.262  0.665  0.596  0.000   98.7    7.1   91.6    0.0
 1976 262    78  20.80  15.60   4.20  3.872  0.950  0.689  0.261  0.000   99.6    7.8   91.8    0.0
 1976 263    79  20.60  18.80   0.10  3.861  0.916  0.693  0.223  0.000  100.5    8.5   92.1    0.0
 1976 264    80  21.00  22.70   3.20  4.311  0.740  0.547  0.193  0.000  101.3    9.0   92.3    0.0
 1976 265    81  16.90  25.80   8.40  3.777  0.674  0.507  0.167  0.000  102.0    9.5   92.4    0.0
 1976 266    82  21.20  21.50   8.50  4.473  0.877  0.727  0.150  0.000  102.8   10.3   92.6    0.0
 1976 267    83  21.60  21.70   4.30  4.387  0.966  0.830  0.135  0.000  103.8   11.1   92.7    0.0
 1976 268    84  15.90  21.10   5.30  3.227  0.782  0.663  0.119  0.000  104.6   11.8   92.8    0.0
 1976 269    85  21.40  22.80   9.60  4.604  1.139  1.036  0.103  0.000  105.7   12.8   92.9    0.0
 1976 270    86  14.90  23.40  13.60  3.329  0.949  0.855  0.094  0.000  106.7   13.6   93.0    0.0
 1976 271    87  12.00  24.40  14.40  2.722  2.722  0.785  1.937  0.000  109.4   14.4   95.0    0.0
 1976 272    88  19.90  29.90  14.70  4.807  4.807  1.566  3.241  0.000  114.2   16.0   98.2    0.0
 1976 273    89   6.70  20.00  14.20  1.423  1.423  0.534  0.889  0.000  115.6   16.5   99.1    0.0
 1976 274    90  22.30  20.90   9.00  4.564  4.564  1.842  2.723  0.000  120.2   18.4  101.8    0.0
 1976 275    91  21.50  18.40   6.70  4.155  4.155  1.764  2.391  0.000  124.3   20.1  104.2    0.0
 1976 276    92  22.50  17.60   3.90  4.179  3.595  1.833  1.762  0.000  127.9   22.0  106.0    0.0
 1976 277    93  18.30  21.00   7.90  3.701  3.700  1.611  2.089  0.000  131.6   23.6  108.1    0.0
 1976 278    94   7.00  17.20  15.00  1.430  1.430  0.651  0.779  0.000  133.1   24.2  108.8    0.0
 1976 279    95  23.50  20.10   9.80  4.751  2.668  2.298  0.370  0.000  135.7   26.5  109.2    0.0
 1976 280    96  19.50  23.00   7.60  4.007  4.007  2.031  1.976  0.000  139.7   28.6  111.2    0.0
 1976 281    97  13.60  24.70  11.80  2.952  2.952  1.565  1.387  0.000  142.7   30.1  112.6    0.0
 1976 282    98  14.90  24.90  15.00  3.316  3.316  1.861  1.455  0.000  146.0   32.0  114.0    0.0
 1976 283    99  22.70  22.00  10.30  4.669  4.231  2.769  1.462  0.000  150.2   34.8  115.5    0.0
 1976 284   100  22.60  19.50   6.10  4.320  4.320  2.652  1.668  0.000  154.6   37.4  117.2    0.0
 1976 285   101   8.10  18.40  11.80  1.605  1.417  1.001  0.416  0.000  156.0   38.4  117.6    0.0
 1976 286   102  16.50  23.10   8.60  3.376  3.013  2.153  0.860  0.000  159.0   40.6  118.4    0.0
 1976 287   103  10.80  21.80  14.50  2.282  1.631  1.487  0.143  0.000  160.6   42.0  118.6    0.0
 1976 288   104  13.30  22.30  12.80  2.782  2.782  1.863  0.920  0.000  163.4   43.9  119.5    0.0
 1976 289   105  23.90  24.30   9.30  4.970  4.970  3.412  1.558  0.000  168.4   47.3  121.1    0.0
 1976 290   106  22.10  27.30  12.30  4.879  4.879  3.422  1.457  0.000  173.3   50.7  122.5    0.0
 1976 291   107   7.90  21.00  12.80  1.617  1.617  1.164  0.452  0.000  174.9   51.9  123.0    0.0
 1976 292   108  16.40  18.40   6.20  3.050  3.050  2.234  0.816  0.000  177.9   54.1  123.8    0.0
 1976 293   109  22.80  17.40   4.00  4.092  4.092  3.012  1.080  0.000  182.0   57.2  124.9    0.0
 1976 294   110  21.20  19.30   3.90  3.910  3.910  2.844  1.067  0.000  185.9   60.0  125.9    0.0
 1976 295   111  23.40  19.30   2.60  4.267  4.267  3.064  1.203  0.000  190.2   63.1  127.1    0.0
 1976 296   112  21.80  22.70   8.40  4.409  4.409  3.000  1.410  0.000  194.6   66.1  128.5    0.0
 1976 297   113   8.60  19.20  13.80  1.740  1.740  1.198  0.542  0.000  196.3   67.3  129.1    0.0
 1976 298   114  21.00  22.40  14.10  4.433  4.433  3.094  1.339  0.000  200.8   70.4  130.4    0.0
 1976 299   115  13.10  22.80  13.90  2.771  2.771  1.965  0.807  0.000  203.5   72.3  131.2    0.0
 1976 300   116   8.20  19.60  12.40  1.642  1.642  1.180  0.462  0.000  205.2   73.5  131.7    0.0
 1976 301   117  20.40  22.70  11.90  4.232  4.232  3.061  1.171  0.000  209.4   76.6  132.9    0.0
 1976 302   118  17.10  22.30  11.20  3.507  3.507  2.554  0.953  0.000  212.9   79.1  133.8    0.0
 1976 303   119  22.80  22.50   7.50  4.539  4.539  3.321  1.218  0.000  217.5   82.4  135.0    0.0
 1976 304   120  16.10  25.20  15.50  3.544  3.544  2.595  0.950  0.000  221.0   85.0  136.0    0.0
 1976 305   121  26.60  24.50  13.90  5.729  5.729  4.225  1.504  0.000  226.7   89.3  137.5    0.0
 1976 306   122  27.70  24.50  10.40  5.794  5.794  4.294  1.500  0.000  232.5   93.5  139.0    0.0
 1976 307   123  25.70  24.40   9.50  5.328  5.328  3.951  1.378  0.000  237.9   97.5  140.4    0.0
 1976 308   124   8.20  19.70  15.40  1.682  1.682  1.260  0.422  0.000  239.5   98.8  140.8    0.0
 1976 309   125  25.00  24.70  14.60  5.422  5.422  4.052  1.371  0.000  245.0  102.8  142.2    0.0
 1976 310   126  10.70  19.30   9.80  2.080  2.080  1.554  0.526  0.000  247.0  104.4  142.7    0.0
 1976 311   127  27.80  19.90   8.80  5.402  5.402  4.006  1.396  0.000  252.4  108.4  144.1    0.0
 1976 312   128  27.90  22.00  10.40  5.657  5.657  4.154  1.503  0.000  258.1  112.5  145.6    0.0
 1976 313   129  28.00  21.50   8.20  5.537  5.537  4.029  1.508  0.000  263.6  116.6  147.1    0.0
 1976 314   130  27.20  23.30   6.30  5.421  5.231  3.892  1.339  0.000  268.9  120.4  148.4    0.0
 1976 315   131  26.70  21.40   5.00  5.132  4.928  3.650  1.278  0.000  273.8  124.1  149.7    0.0
 1976 316   132  19.40  20.30  10.40  3.860  2.851  2.710  0.141  0.000  276.7  126.8  149.8    0.0
 1976 317   133  12.50  21.50  13.60  2.600  2.600  1.802  0.798  0.000  279.3  128.6  150.6    0.0
 1976 318   134  28.00  23.40  12.40  5.909  5.909  4.051  1.858  0.000  285.2  132.7  152.5    0.0
 1976 319   135  23.80  24.50  12.90  5.117  5.117  3.469  1.648  0.000  290.3  136.1  154.1    0.0
 1976 320   136  21.70  26.00  17.40  4.927  4.894  3.271  1.623  0.000  295.2  139.4  155.8    0.0
 1976 321   137  21.50  25.80  18.60  4.919  4.288  3.269  1.019  0.000  299.5  142.7  156.8    0.0
 1976 322   138  16.60  25.00  18.30  3.756  3.237  2.474  0.763  0.000  302.7  145.1  157.6    0.0
 1976 323   139  23.60  25.00  14.20  5.174  5.174  3.371  1.802  0.000  307.9  148.5  159.4    0.0
 1976 324   140  26.10  27.30  12.20  5.794  5.794  3.727  2.066  0.000  313.7  152.2  161.4    0.0
 1976 325   141  27.70  30.00  13.40  6.412  6.327  4.070  2.257  0.000  320.0  156.3  163.7    0.0
 1976 326   142  28.40  22.30  10.60  5.858  5.658  3.668  1.991  0.000  325.6  160.0  165.7    0.0
 1976 327   143  28.80  21.70   7.50  5.743  3.762  3.541  0.222  0.000  329.4  163.5  165.9    0.0
 1976 328   144  17.30  21.00   5.30  3.354  2.191  2.030  0.161  0.000  331.6  165.5  166.1    0.0
 1976 329   145   9.80  20.60  11.70  2.004  2.004  1.189  0.815  0.000  333.6  166.7  166.9    0.0
 1976 330   146  19.40  23.90  10.40  4.097  4.097  2.387  1.710  0.000  337.7  169.1  168.6    0.0
 1976 331   147  28.20  26.80   6.20  5.969  5.764  3.213  2.551  0.000  343.5  172.3  171.1    0.0
 1976 332   148  29.10  31.10  14.00  6.908  5.813  3.856  1.958  0.000  349.3  176.2  173.1    0.0
 1976 333   149  11.80  28.60  19.50  2.842  1.733  1.551  0.182  0.000  351.0  177.7  173.3    0.0
 1976 334   150   9.10  20.80  16.40  1.954  1.954  1.044  0.910  0.000  353.0  178.8  174.2    0.0
 1976 335   151  21.60  26.30  16.00  4.947  4.947  2.590  2.357  0.000  357.9  181.4  176.5    0.0
 1976 336   152  11.70  23.30  15.20  2.571  2.571  1.320  1.252  0.000  360.5  182.7  177.8    0.0
 1976 337   153  19.30  26.80  16.70  4.480  4.480  2.254  2.226  0.000  365.0  185.0  180.0    0.0
 1976 338   154  26.90  28.90  12.90  6.219  5.550  3.038  2.512  0.000  370.5  188.0  182.5    0.0
 1976 339   155  29.80  33.10  15.90  7.395  4.240  3.584  0.656  0.000  374.8  191.6  183.2    0.0
 1976 340   156  28.40  30.50  15.20  6.819  6.819  3.246  3.573  0.000  381.6  194.8  186.8    0.0
 1976 341   157  25.90  34.10  17.30  6.574  5.798  2.991  2.807  0.000  387.4  197.8  189.6    0.0
 1976 342   158  15.00  28.20  12.60  3.444  2.402  1.585  0.817  0.000  389.8  199.4  190.4    0.0
 1976 343   159  29.70  21.90   9.10  6.132  6.132  2.775  3.356  0.000  395.9  202.2  193.7    0.0
 1976 344   160  28.50  22.00   5.40  5.706  5.090  2.461  2.629  0.000  401.0  204.6  196.4    0.0
 1976 345   161  23.10  29.00  10.40  5.277  3.753  2.300  1.453  0.000  404.7  206.9  197.8    0.0
 1976 346   162  26.20  33.00  15.60  6.522  3.029  2.781  0.248  0.000  407.8  209.7  198.1    0.0
 1976 347   163  20.90  35.00  14.90  5.295  2.410  2.209  0.201  0.000  410.2  211.9  198.3    0.0
 1976 348   164  10.60  29.90  19.40  2.628  1.227  1.072  0.155  0.000  411.4  213.0  198.4    0.0
 1976 349   165   9.30  23.10  16.60  2.088  2.088  0.833  1.255  0.000  413.5  213.8  199.7    0.0
 1976 350   166   9.60  23.90  17.60  2.196  2.196  0.856  1.340  0.000  415.7  214.7  201.0    0.0
 1976 351   167  20.70  22.70  12.10  4.466  4.466  1.702  2.764  0.000  420.2  216.4  203.8    0.0
 1976 352   168  30.00  24.60   8.70  6.448  6.124  2.401  3.723  0.000  426.3  218.8  207.5    0.0
 1976 353   169  29.60  28.60  12.20  6.881  5.275  2.491  2.784  0.000  431.6  221.3  210.3    0.0
 1976 354   170  14.80  27.40  15.00  3.471  1.480  1.233  0.248  0.000  433.0  222.5  210.5    0.0
 1976 355   171  22.80  26.50  14.30  5.266  2.095  1.826  0.269  0.000  435.1  224.3  210.8    0.0
 1976 356   172  29.10  27.00  10.40  6.560  2.455  2.220  0.235  0.000  437.6  226.6  211.0    0.0
 1976 357   173  26.30  29.80  14.20  6.319  2.284  2.086  0.198  0.000  439.9  228.6  211.2    0.0
 1976 358   174  18.00  26.20  14.60  4.164  1.504  1.341  0.163  0.000  441.4  230.0  211.4    0.0
 1976 359   175  27.20  29.80  11.90  6.433  4.555  2.011  2.544  0.000  445.9  232.0  213.9    0.0
 1976 360   176  19.00  30.50  18.70  4.771  2.144  1.460  0.684  0.000  448.1  233.5  214.6    0.0
 1976 361   177  26.20  27.70  16.50  6.277  6.277  1.872  4.405  0.000  454.4  235.3  219.0    0.0
 1976 362   178  21.20  27.50  16.40  5.068  5.068  1.472  3.595  0.000  459.4  236.8  222.6    0.0
 1976 363   179  30.00  23.80  11.10  6.579  6.579  1.862  4.717  0.000  466.0  238.7  227.3    0.0
 1976 364   180  30.00  27.30   7.80  6.692  5.217  1.795  3.422  0.000  471.2  240.5  230.8    0.0
 1976 365   181  29.80  29.20  12.50  7.067  2.452  1.894  0.558  0.000  473.7  242.3  231.3    0.0
 1976 366   182   9.50  22.60  16.80  2.157  0.841  0.562  0.278  0.000  474.5  242.9  231.6    0.0
 1977 001   183  23.90  27.40  18.00  5.800  1.727  1.471  0.256  0.000  476.2  244.4  231.9    0.0
 1977 002   184  10.00  25.10  19.10  2.385  2.385  0.588  1.797  0.000  478.6  245.0  233.7    0.0
 1977 003   185  29.40  27.30  18.20  7.149  7.149  1.713  5.436  0.000  485.8  246.7  239.1    0.0
 1977 004   186  26.90  25.60  14.20  6.220  4.376  1.287  3.089  0.000  490.2  248.0  242.2    0.0
 1977 005   187  29.60  28.80  13.20  7.058  3.387  1.596  1.791  0.000  493.5  249.6  244.0    0.0
 1977 006   188  16.70  30.90  15.50  4.153  1.326  0.911  0.415  0.000  494.9  250.5  244.4    0.0
 1977 007   189  29.80  29.50  16.20  7.340  1.822  1.562  0.260  0.000  496.7  252.0  244.6    0.0
 1977 008   190  29.90  34.80  18.50  7.938  1.869  1.638  0.232  0.000  498.6  253.7  244.9    0.0
 1977 009   191  17.90  32.20  21.60  4.729  1.145  0.946  0.199  0.000  499.7  254.6  245.1    0.0
 1977 010   192  17.90  31.10  21.40  4.671  1.075  0.905  0.171  0.000  500.8  255.5  245.3    0.0
 1977 011   193  13.30  29.80  21.40  3.425  3.425  0.642  2.782  0.000  504.2  256.2  248.0    0.0
 1977 012   194  15.60  30.10  20.90  4.018  4.018  0.729  3.289  0.000  508.2  256.9  251.3    0.0
 1977 013   195  25.20  28.80  17.70  6.253  4.607  1.063  3.545  0.000  512.8  258.0  254.9    0.0
 1977 014   196  12.00  26.50  19.50  2.943  1.061  0.500  0.561  0.000  513.9  258.5  255.4    0.0
 1977 015   197  14.20  29.80  23.10  3.711  0.888  0.610  0.278  0.000  514.8  259.1  255.7    0.0
 1977 016   198  17.70  29.50  22.50  4.593  1.009  0.730  0.278  0.000  515.8  259.8  256.0    0.0
 1977 017   199  24.50  29.80  21.60  6.341  1.227  0.975  0.253  0.000  517.0  260.8  256.2    0.0
 1977 018   200  28.00  28.00  22.30  7.143  7.125  1.098  6.027  0.000  524.1  261.9  262.3    0.0
 1977 019   201  27.80  28.70  19.40  6.996  3.310  1.073  2.236  0.000  527.4  262.9  264.5    0.0

*DSSAT Cropping System Model Ver. 4.0.2.000               Aug 01, 2016; 15:14:26

*RUN   3        : UYMZ                    
 MODEL          : MZCER040 - Maize           
 EXPERIMENT     : UYMZ0103 MZ    late to create DSS                             
 TREATMENT  1   : UYMZ                    

@YEAR DOY   DAS   SRAA   TMXA   TMNA   EOAA   ETAA   EPAA   ESAA   EFAD   ETAC   EPAC   ESAC   EFAC
 1977 184     0   3.70  21.20   9.90  0.802  0.802  0.000  0.802  0.000    0.8    0.0    0.8    0.0
 1977 185     1   3.60  10.80   8.00  0.660  0.660  0.000  0.660  0.000    1.5    0.0    1.5    0.0
 1977 186     2   3.60  13.40   9.10  0.694  0.694  0.000  0.694  0.000    2.2    0.0    2.2    0.0
 1977 187     3   3.60  15.80  12.00  0.739  0.739  0.000  0.739  0.000    2.9    0.0    2.9    0.0
 1977 188     4   3.80  12.80   6.40  0.707  0.707  0.000  0.707  0.000    3.6    0.0    3.6    0.0
 1977 189     5  12.30  17.20   4.20  2.392  2.392  0.000  2.392  0.000    6.0    0.0    6.0    0.0
 1977 190     6   3.80  24.90   9.30  0.859  0.859  0.000  0.859  0.000    6.9    0.0    6.9    0.0
 1977 191     7   3.60  17.00  11.80  0.750  0.750  0.000  0.750  0.000    7.6    0.0    7.6    0.0
 1977 192     8  11.80  25.20  13.10  2.762  2.762  0.000  2.762  0.000   10.4    0.0   10.4    0.0
 1977 193     9   3.60  18.10  11.30  0.758  0.758  0.000  0.758  0.000   11.1    0.0   11.1    0.0
 1977 194    10   3.60  13.10  10.80  0.703  0.703  0.000  0.703  0.000   11.8    0.0   11.8    0.0
 1977 195    11   4.50  17.00   9.40  0.917  0.917  0.000  0.917  0.000   12.7    0.0   12.7    0.0
 1977 196    12   7.10  12.50   8.50  1.343  1.343  0.000  1.343  0.000   14.1    0.0   14.1    0.0
 1977 197    13  12.10  10.10   3.40  2.090  2.090  0.000  2.090  0.000   16.2    0.0   16.2    0.0
 1977 198    14  11.50  15.70   4.40  2.191  2.191  0.000  2.191  0.000   18.4    0.0   18.4    0.0
 1977 199    15  11.80  13.00   3.30  2.133  1.750  0.000  1.750  0.000   20.1    0.0   20.1    0.0
 1977 200    16  11.60  13.60  -0.40  2.035  1.256  0.000  1.256  0.000   21.4    0.0   21.4    0.0
 1977 201    17   3.80  15.90   2.00  0.709  0.278  0.000  0.278  0.000   21.7    0.0   21.7    0.0
 1977 202    18   4.10  17.30   9.00  0.836  0.265  0.000  0.265  0.000   21.9    0.0   21.9    0.0
 1977 203    19  11.50  18.00  10.40  2.397  2.397  0.000  2.397  0.000   24.3    0.0   24.3    0.0
 1977 204    20   3.90  14.50   9.40  0.767  0.767  0.001  0.766  0.000   25.1    0.0   25.1    0.0
 1977 205    21  10.20  14.60   6.50  1.952  1.952  0.004  1.948  0.000   27.0    0.0   27.0    0.0
 1977 206    22  12.50  18.50   2.60  2.438  2.438  0.005  2.433  0.000   29.5    0.0   29.5    0.0
 1977 207    23   6.80  16.00   9.80  1.371  1.371  0.003  1.368  0.000   30.8    0.0   30.8    0.0
 1977 208    24   4.00  16.10  12.40  0.827  0.827  0.003  0.825  0.000   31.7    0.0   31.7    0.0
 1977 209    25   4.00  16.30  12.50  0.830  0.830  0.003  0.827  0.000   32.5    0.0   32.5    0.0
 1977 210    26   6.00  17.60  13.60  1.280  1.280  0.007  1.273  0.000   33.8    0.0   33.8    0.0
 1977 211    27   4.20  17.80   7.10  0.846  0.846  0.006  0.841  0.000   34.6    0.0   34.6    0.0
 1977 212    28  13.70  14.10   3.70  2.528  2.528  0.019  2.509  0.000   37.2    0.1   37.1    0.0
 1977 213    29   8.20  12.80   1.40  1.447  1.447  0.011  1.436  0.000   38.6    0.1   38.5    0.0
 1977 214    30  14.00  12.30   2.50  2.480  2.316  0.015  2.301  0.000   40.9    0.1   40.8    0.0
 1977 215    31  12.60  15.10   0.30  2.280  2.279  0.011  2.268  0.000   43.2    0.1   43.1    0.0
 1977 216    32   7.70  17.70   7.80  1.560  1.190  0.006  1.184  0.000   44.4    0.1   44.3    0.0
 1977 217    33   5.50  15.20   5.40  1.050  0.283  0.005  0.278  0.000   44.7    0.1   44.6    0.0
 1977 218    34   4.30  14.40  10.90  0.856  0.271  0.005  0.267  0.000   44.9    0.1   44.8    0.0
 1977 219    35   4.30  15.60  12.80  0.886  0.886  0.006  0.880  0.000   45.8    0.1   45.7    0.0
 1977 220    36   9.20  17.20   9.10  1.873  1.873  0.014  1.858  0.000   47.7    0.1   47.6    0.0
 1977 221    37  12.40  15.80   4.60  2.369  2.369  0.021  2.347  0.000   50.1    0.1   49.9    0.0
 1977 222    38   5.10  15.40   7.10  0.992  0.992  0.011  0.982  0.000   51.1    0.2   50.9    0.0
 1977 223    39   4.40  16.70  13.20  0.923  0.923  0.012  0.911  0.000   52.0    0.2   51.8    0.0
 1977 224    40   6.30  15.40  11.10  1.273  1.273  0.024  1.249  0.000   53.3    0.2   53.1    0.0
 1977 225    41  14.80  14.10   7.00  2.818  2.818  0.065  2.754  0.000   56.1    0.3   55.8    0.0
 1977 226    42  14.80  14.50   5.50  2.793  2.503  0.071  2.432  0.000   58.6    0.3   58.2    0.0
 1977 227    43  15.50  15.50   1.00  2.836  2.053  0.078  1.975  0.000   60.6    0.4   60.2    0.0
 1977 228    44  15.20  16.20   0.40  2.796  0.339  0.062  0.278  0.000   61.0    0.5   60.5    0.0
 1977 229    45  15.00  18.30   1.60  2.884  0.416  0.048  0.369  0.000   61.4    0.5   60.9    0.0
 1977 230    46  12.90  14.00   3.50  2.369  0.287  0.037  0.250  0.000   61.7    0.5   61.1    0.0
 1977 231    47  15.40  18.10   0.60  2.923  0.281  0.047  0.234  0.000   62.0    0.6   61.4    0.0
 1977 232    48  15.90  21.00   0.30  3.141  0.263  0.042  0.221  0.000   62.2    0.6   61.6    0.0
 1977 233    49  13.80  22.30   6.20  2.932  0.244  0.035  0.209  0.000   62.5    0.7   61.8    0.0
 1977 234    50  10.10  19.30   8.60  2.104  0.240  0.041  0.199  0.000   62.7    0.7   62.0    0.0
 1977 235    51   7.80  17.50   8.30  1.579  0.532  0.042  0.490  0.000   63.2    0.8   62.5    0.0
 1977 236    52  12.40  19.50   4.60  2.492  0.263  0.081  0.182  0.000   63.5    0.8   62.7    0.0
 1977 237    53  16.80  21.80   5.60  3.516  0.406  0.132  0.274  0.000   63.9    1.0   62.9    0.0
 1977 238    54  16.00  22.90   6.00  3.408  0.323  0.156  0.166  0.000   64.2    1.1   63.1    0.0
 1977 239    55   6.20  15.80  10.00  1.241  0.226  0.069  0.157  0.000   64.4    1.2   63.3    0.0
 1977 240    56  17.00  19.90   5.20  3.444  0.563  0.214  0.349  0.000   65.0    1.4   63.6    0.0
 1977 241    57   7.00  21.00   8.50  1.482  0.246  0.103  0.143  0.000   65.3    1.5   63.7    0.0
 1977 242    58  13.20  23.00  12.30  2.961  0.369  0.235  0.134  0.000   65.6    1.7   63.9    0.0
 1977 243    59  17.70  16.00   4.00  3.339  0.546  0.317  0.229  0.000   66.2    2.1   64.1    0.0
 1977 244    60  17.60  14.80   2.10  3.198  0.426  0.306  0.121  0.000   66.6    2.4   64.2    0.0
 1977 245    61  17.50  17.70   0.80  3.284  0.389  0.277  0.112  0.000   67.0    2.6   64.3    0.0
 1977 246    62  17.90  20.30   2.50  3.554  0.338  0.234  0.104  0.000   67.3    2.9   64.4    0.0
 1977 247    63   9.70  19.40   5.30  1.953  0.226  0.128  0.098  0.000   67.6    3.0   64.5    0.0
 1977 248    64   7.30  18.80   8.30  1.497  0.202  0.109  0.093  0.000   67.8    3.1   64.6    0.0
 1977 249    65   7.00  17.10  13.20  1.465  0.411  0.120  0.291  0.000   68.2    3.2   64.9    0.0
 1977 250    66  13.40  22.40   9.60  2.910  2.910  0.275  2.636  0.000   71.1    3.5   67.6    0.0
 1977 251    67  18.00  25.30  10.40  4.075  4.075  0.455  3.620  0.000   75.2    4.0   71.2    0.0
 1977 252    68  14.30  30.70  15.00  3.569  3.286  0.482  2.804  0.000   78.4    4.4   74.0    0.0
 1977 253    69   5.80  18.50  13.30  1.226  1.226  0.209  1.017  0.000   79.7    4.7   75.0    0.0
 1977 254    70   5.80  18.90  13.30  1.230  1.230  0.232  0.998  0.000   80.9    4.9   76.0    0.0
 1977 255    71  10.30  22.90  13.20  2.288  2.288  0.510  1.779  0.000   83.2    5.4   77.8    0.0
 1977 256    72   5.90  17.30  16.50  1.250  1.250  0.323  0.927  0.000   84.4    5.7   78.7    0.0
 1977 257    73   6.00  18.40  14.80  1.268  1.268  0.354  0.913  0.000   85.7    6.1   79.6    0.0
 1977 258    74   6.40  17.50  14.20  1.326  1.326  0.400  0.926  0.000   87.0    6.5   80.5    0.0
 1977 259    75   9.50  20.40  14.50  2.044  2.044  0.662  1.382  0.000   89.1    7.1   81.9    0.0
 1977 260    76   9.70  19.60  10.60  1.991  1.991  0.700  1.290  0.000   91.1    7.8   83.2    0.0
 1977 261    77  20.60  19.60   8.60  4.143  4.143  1.545  2.597  0.000   95.2    9.4   85.8    0.0
 1977 262    78  20.10  21.00   5.60  4.002  3.353  1.554  1.800  0.000   98.6   10.9   87.6    0.0
 1977 263    79  16.80  23.50  12.60  3.666  2.626  1.489  1.138  0.000  101.2   12.4   88.8    0.0
 1977 264    80  14.80  25.10  14.00  3.321  1.646  1.445  0.201  0.000  102.8   13.9   89.0    0.0
 1977 265    81  16.60  29.10  16.20  3.957  2.021  1.851  0.170  0.000  104.8   15.7   89.1    0.0
 1977 266    82  17.60  19.30  10.70  3.539  1.943  1.796  0.147  0.000  106.8   17.5   89.3    0.0
 1977 267    83  16.10  19.30   7.80  3.148  3.148  1.653  1.494  0.000  109.9   19.2   90.8    0.0
 1977 268    84  18.90  23.10   7.70  3.879  3.879  2.090  1.789  0.000  113.8   21.3   92.6    0.0
 1977 269    85  21.40  27.10  10.00  4.698  4.698  2.631  2.067  0.000  118.5   23.9   94.6    0.0
 1977 270    86  18.70  29.40  12.70  4.297  3.790  2.528  1.262  0.000  122.3   26.4   95.9    0.0
 1977 271    87   6.70  17.50   8.50  1.273  1.273  0.790  0.482  0.000  123.6   27.2   96.4    0.0
 1977 272    88  20.70  18.60   5.10  3.863  3.301  2.436  0.864  0.000  126.9   29.6   97.2    0.0
 1977 273    89  22.20  18.80   4.80  4.140  4.140  2.638  1.502  0.000  131.0   32.3   98.7    0.0
 1977 274    90   9.70  22.40   9.20  1.976  1.976  1.268  0.709  0.000  133.0   33.6   99.4    0.0
 1977 275    91  13.60  21.30  14.90  2.864  2.864  1.873  0.991  0.000  135.9   35.4  100.4    0.0
 1977 276    92  15.90  21.50  15.00  3.354  3.354  2.247  1.107  0.000  139.2   37.7  101.5    0.0
 1977 277    93  23.10  22.60  11.40  4.786  4.786  3.276  1.510  0.000  144.0   41.0  103.0    0.0
 1977 278    94  17.80  24.50   8.60  3.686  3.686  2.560  1.126  0.000  147.7   43.5  104.2    0.0
 1977 279    95  19.60  29.80  18.50  4.669  4.669  3.278  1.392  0.000  152.4   46.8  105.6    0.0
 1977 280    96  23.40  32.10  17.20  5.653  5.653  4.062  1.591  0.000  158.0   50.8  107.2    0.0
 1977 281    97   7.10  23.00  17.50  1.547  1.547  1.135  0.412  0.000  159.6   52.0  107.6    0.0
 1977 282    98   7.20  19.30  16.00  1.479  1.479  1.092  0.386  0.000  161.0   53.1  108.0    0.0
 1977 283    99   7.20  15.30  10.00  1.328  1.328  0.982  0.346  0.000  162.4   54.1  108.3    0.0
 1977 284   100  11.20  14.40   8.40  2.008  2.008  1.474  0.534  0.000  164.4   55.5  108.8    0.0
 1977 285   101  16.90  17.60   4.80  3.069  3.069  2.229  0.839  0.000  167.4   57.8  109.7    0.0
 1977 286   102  21.90  22.50   9.90  4.457  4.457  3.206  1.251  0.000  171.9   61.0  110.9    0.0
 1977 287   103   7.70  20.00  16.40  1.605  1.605  1.148  0.456  0.000  173.5   62.1  111.4    0.0
 1977 288   104   9.60  18.80  11.50  1.889  1.889  1.348  0.541  0.000  175.4   63.5  111.9    0.0
 1977 289   105  25.30  19.80  10.00  4.978  4.978  3.547  1.431  0.000  180.4   67.0  113.4    0.0
 1977 290   106  25.20  22.50   7.60  5.031  5.031  3.585  1.446  0.000  185.4   70.6  114.8    0.0
 1977 291   107  24.90  24.50  11.00  5.250  5.250  3.744  1.506  0.000  190.6   74.3  116.3    0.0
 1977 292   108  25.60  26.80  11.20  5.560  5.539  3.963  1.576  0.000  196.2   78.3  117.9    0.0
 1977 293   109  25.80  28.30  13.90  5.824  5.190  4.197  0.993  0.000  201.4   82.5  118.9    0.0
 1977 294   110  23.50  32.30  14.70  5.582  4.731  4.050  0.681  0.000  206.1   86.5  119.6    0.0
 1977 295   111  23.40  30.90  14.60  5.465  4.122  3.997  0.125  0.000  210.2   90.5  119.7    0.0
 1977 296   112  16.30  26.20  16.60  3.655  3.655  2.744  0.911  0.000  213.9   93.3  120.6    0.0
 1977 297   113   9.20  24.10  20.30  2.071  2.071  1.562  0.509  0.000  216.0   94.9  121.1    0.0
 1977 298   114  10.10  24.80  17.80  2.249  2.249  1.684  0.566  0.000  218.2   96.5  121.7    0.0
 1977 299   115  11.70  20.70  16.20  2.449  2.449  1.816  0.633  0.000  220.7   98.4  122.3    0.0
 1977 300   116  17.50  24.20  15.40  3.803  3.803  2.788  1.015  0.000  224.5  101.1  123.3    0.0
 1977 301   117  14.70  24.40  13.70  3.161  3.161  2.291  0.870  0.000  227.6  103.4  124.2    0.0
 1977 302   118  19.50  26.60  18.10  4.461  4.461  3.193  1.268  0.000  232.1  106.6  125.5    0.0
 1977 303   119  22.50  32.60  16.20  5.432  5.432  3.845  1.587  0.000  237.5  110.5  127.0    0.0
 1977 304   120  11.10  26.90  18.10  2.552  2.552  1.788  0.764  0.000  240.1  112.3  127.8    0.0
 1977 305   121  11.00  21.80  16.40  2.351  2.351  1.627  0.723  0.000  242.4  113.9  128.5    0.0
 1977 306   122  23.50  25.60  14.10  5.168  5.168  3.525  1.643  0.000  247.6  117.4  130.2    0.0
 1977 307   123  23.70  20.80  11.00  4.788  4.788  3.217  1.571  0.000  252.4  120.6  131.7    0.0
 1977 308   124  26.10  23.30  10.40  5.424  5.362  3.518  1.844  0.000  257.7  124.1  133.6    0.0
 1977 309   125  24.00  23.50  10.80  5.024  4.404  3.256  1.148  0.000  262.1  127.4  134.7    0.0
 1977 310   126  20.90  23.50  16.00  4.573  3.861  2.910  0.950  0.000  266.0  130.3  135.7    0.0
 1977 311   127  20.60  25.90  15.50  4.625  3.047  2.894  0.153  0.000  269.0  133.2  135.8    0.0
 1977 312   128  12.80  28.10  14.70  2.934  2.934  1.805  1.129  0.000  272.0  135.0  137.0    0.0
 1977 313   129  25.70  22.00  13.80  5.439  5.439  3.291  2.148  0.000  277.4  138.3  139.1    0.0
 1977 314   130   8.60  19.90  11.90  1.746  1.746  1.031  0.715  0.000  279.2  139.3  139.8    0.0
 1977 315   131  22.50  26.10  11.40  4.927  4.927  2.837  2.090  0.000  284.1  142.2  141.9    0.0
 1977 316   132  27.10  20.00   6.90  5.284  4.738  2.935  1.803  0.000  288.8  145.1  143.7    0.0
 1977 317   133  28.00  22.60   3.90  5.511  4.766  3.036  1.730  0.000  293.6  148.1  145.5    0.0
 1977 318   134  27.90  26.40   8.20  6.000  3.399  3.209  0.191  0.000  297.0  151.3  145.6    0.0
 1977 319   135  26.90  29.70  12.00  6.214  3.391  3.252  0.139  0.000  300.4  154.6  145.8    0.0
 1977 320   136  27.30  32.10  13.00  6.539  6.539  3.351  3.188  0.000  306.9  157.9  149.0    0.0
 1977 321   137  22.80  33.00  13.20  5.530  5.318  2.597  2.721  0.000  312.2  160.5  151.7    0.0
 1977 322   138  26.50  34.30  20.10  6.856  4.849  3.375  1.474  0.000  317.1  163.9  153.2    0.0
 1977 323   139  13.60  25.30  17.60  3.131  3.131  1.512  1.619  0.000  320.2  165.4  154.8    0.0
 1977 324   140  28.30  26.40  13.00  6.371  6.371  3.019  3.352  0.000  326.6  168.5  158.1    0.0
 1977 325   141   8.70  19.20  14.60  1.816  1.816  0.845  0.971  0.000  328.4  169.3  159.1    0.0
 1977 326   142  28.40  24.70  10.20  6.132  5.613  2.802  2.811  0.000  334.0  172.1  161.9    0.0
 1977 327   143  26.30  24.70   7.70  5.565  5.298  2.233  3.066  0.000  339.3  174.3  165.0    0.0
 1977 328   144  23.00  25.80  12.10  5.122  4.219  2.262  1.958  0.000  343.5  176.6  166.9    0.0
 1977 329   145  26.70  26.50  12.10  6.001  6.001  2.607  3.394  0.000  349.5  179.2  170.3    0.0
 1977 330   146  28.00  33.50  18.20  7.141  5.698  2.975  2.723  0.000  355.2  182.2  173.1    0.0
 1977 331   147  19.40  25.10  13.80  4.355  2.645  1.810  0.835  0.000  357.9  184.0  173.9    0.0
 1977 332   148  28.90  27.50   9.80  6.474  6.474  2.630  3.844  0.000  364.4  186.6  177.7    0.0
 1977 333   149  29.00  28.70  13.60  6.798  5.640  2.652  2.988  0.000  370.0  189.3  180.7    0.0
 1977 334   150  29.00  31.70  11.90  6.952  3.467  2.697  0.770  0.000  373.5  192.0  181.5    0.0
 1977 335   151  20.30  30.80  18.90  5.080  2.203  1.925  0.278  0.000  375.7  193.9  181.8    0.0
 1977 336   152   9.20  26.00  21.20  2.223  1.047  0.822  0.224  0.000  376.7  194.7  182.0    0.0
 1977 337   153  22.30  30.20  21.60  5.665  2.735  2.046  0.689  0.000  379.4  196.8  182.7    0.0
 1977 338   154  28.80  30.20  17.20  7.092  4.171  2.500  1.671  0.000  383.6  199.3  184.4    0.0
 1977 339   155  15.80  28.40  18.70  3.860  1.470  1.328  0.142  0.000  385.1  200.6  184.5    0.0
 1977 340   156  24.20  24.90  11.30  5.358  5.358  1.798  3.560  0.000  390.4  202.4  188.1    0.0
 1977 341   157  29.30  26.40   8.70  6.474  5.538  2.005  3.533  0.000  396.0  204.4  191.6    0.0
 1977 342   158  29.70  26.90   7.80  6.560  2.921  2.092  0.828  0.000  398.9  206.5  192.4    0.0
 1977 343   159  29.70  29.50  10.30  6.915  2.403  2.149  0.254  0.000  401.3  208.6  192.7    0.0
 1977 344   160  29.70  32.10  13.00  7.280  2.415  2.205  0.210  0.000  403.7  210.8  192.9    0.0
 1977 345   161  28.00  31.50  14.50  6.900  2.209  2.036  0.173  0.000  405.9  212.9  193.1    0.0
 1977 346   162  20.10  32.70  15.30  5.054  1.594  1.452  0.142  0.000  407.5  214.3  193.2    0.0
 1977 347   163  29.40  28.60  16.00  7.104  7.104  1.988  5.116  0.000  414.6  216.3  198.3    0.0
 1977 348   164  25.90  27.80  15.00  6.158  4.161  1.672  2.489  0.000  418.8  218.0  200.8    0.0
 1977 349   165  28.10  29.20  18.80  6.992  2.112  1.852  0.260  0.000  420.9  219.8  201.1    0.0
 1977 350   166  10.60  30.20  18.70  2.667  0.929  0.687  0.242  0.000  421.8  220.5  201.3    0.0
 1977 351   167  28.10  32.00  20.40  7.304  2.024  1.829  0.195  0.000  423.9  222.4  201.5    0.0
 1977 352   168  25.60  34.30  20.20  6.813  5.705  1.413  4.292  0.000  429.6  223.8  205.8    0.0
 1977 353   169  12.40  30.50  17.80  3.117  1.879  0.737  1.142  0.000  431.4  224.5  206.9    0.0
 1977 354   170   9.20  21.50  15.20  2.041  2.041  0.469  1.572  0.000  433.5  225.0  208.5    0.0
 1977 355   171  28.90  25.40  11.60  6.535  6.355  1.456  4.899  0.000  439.8  226.4  213.4    0.0
 1977 356   172  29.30  24.90   9.20  6.460  3.712  1.394  2.318  0.000  443.5  227.8  215.7    0.0
 1977 357   173  28.60  24.90  11.20  6.416  1.612  1.346  0.266  0.000  445.2  229.2  216.0    0.0
 1977 358   174  21.10  26.00  15.90  4.985  1.292  1.014  0.278  0.000  446.5  230.2  216.3    0.0
 1977 359   175  23.70  30.70  15.90  5.913  1.421  1.166  0.256  0.000  447.9  231.3  216.5    0.0
 1977 360   176  22.30  31.60  17.10  5.673  1.310  1.083  0.226  0.000  449.2  232.4  216.8    0.0
 1977 361   177  24.50  35.10  20.80  6.675  1.434  1.234  0.200  0.000  450.6  233.7  217.0    0.0
 1977 362   178  11.00  28.70  18.40  2.740  0.668  0.490  0.178  0.000  451.3  234.2  217.1    0.0
 1977 363   179  29.50  27.30  13.70  6.980  6.980  1.208  5.772  0.000  458.3  235.4  222.9    0.0
 1977 364   180  11.30  24.50  17.20  2.661  1.866  0.445  1.421  0.000  460.1  235.8  224.3    0.0
 1977 365   181  29.70  25.70  12.60  6.842  3.600  1.095  2.505  0.000  463.7  236.9  226.8    0.0
 1978 001   182  28.50  26.90  11.20  6.591  2.022  1.029  0.993  0.000  465.8  237.9  227.8    0.0
 1978 002   183  27.40  25.90  10.50  6.228  1.218  0.939  0.278  0.000  467.0  238.9  228.1    0.0
 1978 003   184  27.60  27.70  11.00  6.442  1.197  0.938  0.259  0.000  468.2  239.8  228.4    0.0
 1978 004   185  29.60  32.40  16.20  7.585  1.335  1.104  0.231  0.000  469.5  240.9  228.6    0.0
 1978 005   186  25.90  32.10  17.10  6.659  1.176  0.969  0.206  0.000  470.7  241.9  228.8    0.0
 1978 006   187  20.60  32.00  19.90  5.398  0.969  0.786  0.183  0.000  471.6  242.7  229.0    0.0

*DSSAT Cropping System Model Ver. 4.0.2.000               Aug 01, 2016; 15:14:26

*RUN   4        : UYMZ                    
 MODEL          : MZCER040 - Maize           
 EXPERIMENT     : UYMZ0103 MZ    late to create DSS                             
 TREATMENT  1   : UYMZ                    

@YEAR DOY   DAS   SRAA   TMXA   TMNA   EOAA   ETAA   EPAA   ESAA   EFAD   ETAC   EPAC   ESAC   EFAC
 1978 184     0   4.10  18.00   9.00  0.844  0.844  0.000  0.844  0.000    0.8    0.0    0.8    0.0
 1978 185     1   5.10  17.80   8.60  1.043  1.043  0.000  1.043  0.000    1.9    0.0    1.9    0.0
 1978 186     2   4.50  18.60  12.50  0.964  0.964  0.000  0.964  0.000    2.9    0.0    2.9    0.0
 1978 187     3   3.60  14.10  10.50  0.711  0.711  0.000  0.711  0.000    3.6    0.0    3.6    0.0
 1978 188     4   3.60  16.20  10.20  0.731  0.731  0.000  0.731  0.000    4.3    0.0    4.3    0.0
 1978 189     5   7.90  24.50  14.30  1.851  1.851  0.000  1.851  0.000    6.1    0.0    6.1    0.0
 1978 190     6   4.50  19.90  12.00  0.976  0.976  0.000  0.976  0.000    7.1    0.0    7.1    0.0
 1978 191     7   3.60  16.20  10.00  0.729  0.729  0.000  0.729  0.000    7.8    0.0    7.8    0.0
 1978 192     8   8.50  20.40   9.00  1.807  1.548  0.000  1.548  0.000    9.4    0.0    9.4    0.0
 1978 193     9  12.00  20.90   6.60  2.514  1.406  0.000  1.406  0.000   10.8    0.0   10.8    0.0
 1978 194    10  10.90  22.70   7.00  2.348  0.120  0.000  0.120  0.000   10.9    0.0   10.9    0.0
 1978 195    11   5.10  21.40   8.80  1.097  1.097  0.000  1.097  0.000   12.0    0.0   12.0    0.0
 1978 196    12   4.20  19.40  13.40  0.916  0.916  0.000  0.916  0.000   12.9    0.0   12.9    0.0
 1978 197    13  11.60  18.20   9.20  2.398  2.398  0.004  2.394  0.000   15.3    0.0   15.3    0.0
 1978 198    14   3.90  16.40   6.40  0.765  0.765  0.002  0.764  0.000   16.1    0.0   16.1    0.0
 1978 199    15  11.50  16.40   5.40  2.235  2.235  0.006  2.229  0.000   18.3    0.0   18.3    0.0
 1978 200    16   4.00  11.80   6.40  0.733  0.733  0.002  0.730  0.000   19.1    0.0   19.1    0.0
 1978 201    17   4.00  12.80   4.40  0.729  0.729  0.003  0.726  0.000   19.8    0.0   19.8    0.0
 1978 202    18   4.90  14.40   6.00  0.930  0.930  0.003  0.927  0.000   20.7    0.0   20.7    0.0
 1978 203    19  12.80  15.10   5.50  2.443  2.235  0.010  2.225  0.000   23.0    0.0   22.9    0.0
 1978 204    20   5.30  16.20   4.00  1.013  1.013  0.004  1.008  0.000   24.0    0.0   23.9    0.0
 1978 205    21  11.20  14.60   1.80  2.043  1.219  0.009  1.210  0.000   25.2    0.0   25.1    0.0
 1978 206    22   5.00  20.40   5.50  1.030  0.236  0.004  0.231  0.000   25.4    0.0   25.4    0.0
 1978 207    23   4.00  10.20   8.20  0.728  0.223  0.004  0.220  0.000   25.7    0.1   25.6    0.0
 1978 208    24   4.00  14.80   8.40  0.782  0.782  0.004  0.778  0.000   26.4    0.1   26.4    0.0
 1978 209    25   4.00  15.90  11.80  0.820  0.820  0.005  0.815  0.000   27.3    0.1   27.2    0.0
 1978 210    26   6.10  14.00   6.60  1.157  1.157  0.008  1.149  0.000   28.4    0.1   28.3    0.0
 1978 211    27  11.40  14.00   3.20  2.089  2.089  0.015  2.074  0.000   30.5    0.1   30.4    0.0
 1978 212    28   4.10  16.60  10.20  0.836  0.836  0.006  0.830  0.000   31.3    0.1   31.2    0.0
 1978 213    29  10.20  22.30  14.60  2.330  2.330  0.019  2.311  0.000   33.7    0.1   33.6    0.0
 1978 214    30  10.30  23.90  16.00  2.427  2.427  0.025  2.401  0.000   36.1    0.1   36.0    0.0
 1978 215    31  12.90  26.60  10.80  3.008  2.321  0.058  2.263  0.000   38.4    0.2   38.2    0.0
 1978 216    32  12.50  28.10  15.40  3.074  0.818  0.089  0.729  0.000   39.2    0.3   39.0    0.0
 1978 217    33  11.30  27.00  17.50  2.784  0.393  0.118  0.274  0.000   39.6    0.4   39.2    0.0
 1978 218    34   4.30  15.20  10.20  0.855  0.303  0.050  0.253  0.000   39.9    0.4   39.5    0.0
 1978 219    35   4.30  13.20  10.70  0.834  0.286  0.053  0.233  0.000   40.2    0.5   39.7    0.0
 1978 220    36   4.30  12.40   8.90  0.810  0.274  0.055  0.219  0.000   40.5    0.6   39.9    0.0
 1978 221    37   8.70  18.70  10.70  1.822  1.822  0.128  1.693  0.000   42.3    0.7   41.6    0.0
 1978 222    38  10.80  27.40  10.60  2.522  2.522  0.198  2.324  0.000   44.8    0.9   44.0    0.0
 1978 223    39  14.00  15.00   5.20  2.634  2.467  0.241  2.226  0.000   47.3    1.1   46.2    0.0
 1978 224    40  11.00  12.10   3.60  1.946  1.660  0.187  1.474  0.000   49.0    1.3   47.6    0.0
 1978 225    41   5.20  11.40   1.80  0.892  0.343  0.082  0.261  0.000   49.3    1.4   47.9    0.0
 1978 226    42  14.80  15.20   4.30  2.773  0.450  0.211  0.239  0.000   49.8    1.6   48.1    0.0
 1978 227    43  12.70  17.90   3.60  2.459  1.613  0.189  1.424  0.000   51.4    1.8   49.6    0.0
 1978 228    44  15.30  19.50   3.30  3.023  0.439  0.233  0.206  0.000   51.8    2.0   49.8    0.0
 1978 229    45  13.70  20.40   5.10  2.788  0.407  0.216  0.191  0.000   52.2    2.2   50.0    0.0
 1978 230    46  12.90  14.70   2.50  2.353  0.377  0.199  0.177  0.000   52.6    2.4   50.1    0.0
 1978 231    47  12.30  11.70   1.20  2.111  0.328  0.162  0.165  0.000   52.9    2.6   50.3    0.0
 1978 232    48   4.80  14.40   0.80  0.858  0.207  0.052  0.155  0.000   53.1    2.7   50.5    0.0
 1978 233    49   5.70  16.30   8.20  1.131  0.198  0.051  0.147  0.000   53.3    2.7   50.6    0.0
 1978 234    50  12.00  19.00   6.40  2.431  0.769  0.127  0.642  0.000   54.1    2.8   51.3    0.0
 1978 235    51  16.50  13.60   3.30  2.991  2.119  0.181  1.937  0.000   56.2    3.0   53.2    0.0
 1978 236    52  14.70  17.10   3.60  2.819  0.297  0.166  0.132  0.000   56.5    3.2   53.3    0.0
 1978 237    53  16.20  18.60   1.50  3.110  0.313  0.188  0.125  0.000   56.8    3.4   53.5    0.0
 1978 238    54   5.10  13.60  11.00  0.999  0.172  0.053  0.119  0.000   57.0    3.4   53.6    0.0
 1978 239    55   6.60  18.10  11.00  1.376  0.197  0.084  0.114  0.000   57.2    3.5   53.7    0.0
 1978 240    56   9.40  20.70   8.80  1.987  1.987  0.146  1.841  0.000   59.2    3.6   55.5    0.0
 1978 241    57  11.40  19.00   9.40  2.364  2.364  0.206  2.158  0.000   61.5    3.9   57.7    0.0
 1978 242    58  12.50  12.10   8.10  2.316  2.316  0.232  2.083  0.000   63.9    4.1   59.8    0.0
 1978 243    59  17.20  15.70   0.00  3.098  3.098  0.325  2.773  0.000   67.0    4.4   62.5    0.0
 1978 244    60  15.90  20.30   2.60  3.158  2.019  0.224  1.794  0.000   69.0    4.6   64.3    0.0
 1978 245    61  16.30  13.10   2.30  2.897  1.376  0.208  1.168  0.000   70.3    4.8   65.5    0.0
 1978 246    62  15.60  16.80   0.30  2.879  0.464  0.187  0.277  0.000   70.8    5.0   65.8    0.0
 1978 247    63   5.50  14.20  10.00  1.077  0.305  0.052  0.253  0.000   71.1    5.1   66.0    0.0
 1978 248    64   9.00  18.20  12.40  1.901  0.359  0.126  0.233  0.000   71.5    5.2   66.3    0.0
 1978 249    65  16.70  20.10  10.00  3.538  3.538  0.275  3.263  0.000   75.0    5.5   69.5    0.0
 1978 250    66  11.10  20.30   9.00  2.330  2.330  0.241  2.089  0.000   77.3    5.7   71.6    0.0
 1978 251    67  17.10  20.20   8.00  3.544  3.148  0.443  2.704  0.000   80.5    6.2   74.3    0.0
 1978 252    68  19.00  19.40   5.70  3.806  3.767  0.503  3.264  0.000   84.3    6.7   77.6    0.0
 1978 253    69  19.30  19.70   4.40  3.830  2.511  0.601  1.910  0.000   86.8    7.3   79.5    0.0
 1978 254    70  19.50  16.60   2.60  3.631  0.875  0.605  0.270  0.000   87.6    7.9   79.8    0.0
 1978 255    71  14.70  18.20   4.60  2.861  0.680  0.446  0.234  0.000   88.3    8.3   80.0    0.0
 1978 256    72   5.90  15.80  11.40  1.182  0.399  0.194  0.205  0.000   88.7    8.5   80.2    0.0
 1978 257    73   6.00  16.00   7.80  1.161  0.415  0.230  0.185  0.000   89.1    8.7   80.4    0.0
 1978 258    74  19.60  19.30   4.60  3.852  3.852  0.809  3.043  0.000   93.0    9.6   83.4    0.0
 1978 259    75  20.00  21.10   4.20  4.010  3.865  0.886  2.979  0.000   96.9   10.4   86.4    0.0
 1978 260    76  12.70  28.40  11.40  2.969  1.707  0.698  1.009  0.000   98.6   11.1   87.4    0.0
 1978 261    77   6.20  20.40  15.70  1.355  0.594  0.374  0.220  0.000   99.2   11.5   87.6    0.0
 1978 262    78   6.40  21.30  15.80  1.413  0.611  0.419  0.192  0.000   99.8   11.9   87.8    0.0
 1978 263    79   6.30  18.30   7.80  1.242  0.576  0.400  0.176  0.000  100.3   12.3   88.0    0.0
 1978 264    80  20.30  23.30   8.30  4.293  4.293  1.449  2.845  0.000  104.6   13.8   90.9    0.0
 1978 265    81  14.40  23.30   7.90  3.025  3.025  1.107  1.918  0.000  107.7   14.9   92.8    0.0
 1978 266    82   8.50  24.00  17.20  1.941  1.940  0.756  1.185  0.000  109.6   15.6   94.0    0.0
 1978 267    83   6.50  21.60  18.40  1.450  1.139  0.620  0.519  0.000  110.7   16.3   94.5    0.0
 1978 268    84  18.60  24.40  17.30  4.239  3.508  1.936  1.572  0.000  114.2   18.2   96.0    0.0
 1978 269    85  19.40  26.60  17.50  4.522  2.465  2.267  0.198  0.000  116.7   20.5   96.2    0.0
 1978 270    86   9.60  23.20  14.70  2.091  1.297  1.142  0.155  0.000  118.0   21.6   96.4    0.0
 1978 271    87  20.40  20.20  11.20  4.138  2.512  2.392  0.119  0.000  120.5   24.0   96.5    0.0
 1978 272    88  21.30  20.60   7.80  4.205  4.205  2.518  1.687  0.000  124.7   26.5   98.2    0.0
 1978 273    89  17.10  24.90   9.40  3.614  3.614  2.219  1.395  0.000  128.3   28.7   99.6    0.0
 1978 274    90   6.80  21.60  16.00  1.454  1.454  0.924  0.530  0.000  129.8   29.7  100.1    0.0
 1978 275    91   6.80  16.10  15.90  1.350  1.350  0.885  0.466  0.000  131.1   30.5  100.6    0.0
 1978 276    92   6.90  18.20  14.00  1.383  1.383  0.928  0.455  0.000  132.5   31.5  101.1    0.0
 1978 277    93  14.00  25.60  16.00  3.125  3.125  2.140  0.984  0.000  135.7   33.6  102.0    0.0
 1978 278    94  10.10  22.40  15.00  2.146  2.146  1.517  0.629  0.000  137.8   35.1  102.7    0.0
 1978 279    95  12.10  22.40  14.90  2.565  2.565  1.853  0.711  0.000  140.4   37.0  103.4    0.0
 1978 280    96   7.80  20.70  16.40  1.637  1.637  1.204  0.432  0.000  142.0   38.2  103.8    0.0
 1978 281    97   7.10  20.20  17.00  1.486  1.486  1.110  0.376  0.000  143.5   39.3  104.2    0.0
 1978 282    98  10.20  23.30  15.60  2.191  2.191  1.653  0.538  0.000  145.7   41.0  104.7    0.0
 1978 283    99  21.30  23.80  11.50  4.447  4.447  3.395  1.052  0.000  150.1   44.3  105.8    0.0
 1978 284   100  14.40  22.80  11.60  2.969  2.969  2.283  0.686  0.000  153.1   46.6  106.5    0.0
 1978 285   101   8.80  20.00  13.80  1.783  1.783  1.377  0.406  0.000  154.9   48.0  106.9    0.0
 1978 286   102   7.30  15.70  12.70  1.383  1.383  1.071  0.312  0.000  156.3   49.1  107.2    0.0
 1978 287   103  18.30  20.40   7.80  3.536  3.536  2.734  0.802  0.000  159.8   51.8  108.0    0.0
 1978 288   104  22.50  22.40   5.50  4.376  4.376  3.374  1.002  0.000  164.2   55.2  109.0    0.0
 1978 289   105  22.20  21.70  10.10  4.455  4.455  3.438  1.017  0.000  168.6   58.6  110.0    0.0
 1978 290   106  24.90  23.90   7.90  5.042  5.042  3.908  1.134  0.000  173.7   62.5  111.1    0.0
 1978 291   107  19.20  23.00   9.20  3.885  3.885  3.024  0.861  0.000  177.6   65.6  112.0    0.0
 1978 292   108  17.40  22.70  10.80  3.555  3.545  2.768  0.778  0.000  181.1   68.3  112.8    0.0
 1978 293   109  12.30  21.60  14.30  2.552  2.552  2.001  0.551  0.000  183.6   70.3  113.3    0.0
 1978 294   110  24.50  25.60  10.60  5.179  5.179  4.077  1.102  0.000  188.8   74.4  114.4    0.0
 1978 295   111  24.70  26.10  13.10  5.359  5.359  4.234  1.125  0.000  194.2   78.6  115.6    0.0
 1978 296   112  21.30  26.20  15.50  4.706  4.706  3.815  0.891  0.000  198.9   82.4  116.4    0.0
 1978 297   113   8.10  22.90  16.00  1.726  1.726  1.412  0.314  0.000  200.6   83.9  116.8    0.0
 1978 298   114  22.70  24.90  14.40  4.892  4.892  3.989  0.903  0.000  205.5   87.9  117.7    0.0
 1978 299   115   8.40  20.90  15.70  1.742  1.742  1.417  0.326  0.000  207.3   89.3  118.0    0.0
 1978 300   116  21.40  25.60  15.70  4.703  4.703  3.801  0.902  0.000  212.0   93.1  118.9    0.0
 1978 301   117  24.90  28.20  12.90  5.522  5.522  4.440  1.082  0.000  217.5   97.5  120.0    0.0
 1978 302   118  15.50  23.20  15.90  3.318  3.318  2.652  0.666  0.000  220.8  100.2  120.6    0.0
 1978 303   119  26.90  20.80   5.10  5.088  5.088  4.038  1.051  0.000  225.9  104.2  121.7    0.0
 1978 304   120  27.20  22.60   9.30  5.476  5.476  4.298  1.178  0.000  231.4  108.5  122.9    0.0
 1978 305   121  27.00  23.20   8.80  5.460  5.460  4.240  1.220  0.000  236.8  112.7  124.1    0.0
 1978 306   122  25.90  25.20  11.00  5.476  5.449  4.180  1.269  0.000  242.3  116.9  125.4    0.0
 1978 307   123  12.40  22.00  11.90  2.540  2.540  1.932  0.608  0.000  244.8  118.8  126.0    0.0
 1978 308   124  27.40  24.00  11.80  5.755  5.731  4.332  1.399  0.000  250.5  123.2  127.4    0.0
 1978 309   125  27.10  29.10  11.00  6.022  6.022  4.484  1.537  0.000  256.6  127.7  128.9    0.0
 1978 310   126  27.40  22.20  10.40  5.568  5.568  4.105  1.463  0.000  262.1  131.8  130.4    0.0
 1978 311   127  27.60  21.60   6.60  5.387  5.387  3.923  1.464  0.000  267.5  135.7  131.8    0.0
 1978 312   128  17.50  27.90  11.40  3.857  3.857  2.770  1.087  0.000  271.4  138.5  132.9    0.0
 1978 313   129   9.20  18.60  15.00  1.862  1.862  1.322  0.540  0.000  273.2  139.8  133.4    0.0
 1978 314   130  24.10  25.00  13.60  5.230  5.230  3.664  1.566  0.000  278.5  143.4  135.0    0.0
 1978 315   131  20.60  22.90  10.70  4.256  4.256  2.945  1.311  0.000  282.7  146.4  136.3    0.0
 1978 316   132  26.80  19.00   8.20  5.148  5.148  3.513  1.636  0.000  287.9  149.9  138.0    0.0
 1978 317   133  26.70  19.00   5.60  5.013  5.013  3.364  1.649  0.000  292.9  153.3  139.6    0.0
 1978 318   134  23.60  19.60   4.90  4.445  4.445  2.931  1.514  0.000  297.3  156.2  141.1    0.0
 1978 319   135  27.10  23.50   6.40  5.462  5.167  3.531  1.636  0.000  302.5  159.7  142.8    0.0
 1978 320   136  23.80  28.00  15.80  5.482  4.333  3.491  0.842  0.000  306.8  163.2  143.6    0.0
 1978 321   137  12.30  25.40  18.20  2.805  1.900  1.749  0.151  0.000  308.7  165.0  143.8    0.0
 1978 322   138   9.10  24.00  17.20  2.028  2.028  1.238  0.790  0.000  310.8  166.2  144.5    0.0
 1978 323   139  22.40  28.50  15.00  5.179  5.179  3.104  2.075  0.000  315.9  169.3  146.6    0.0
 1978 324   140   8.90  24.80  18.00  2.020  2.020  1.189  0.831  0.000  318.0  170.5  147.4    0.0
 1978 325   141  10.00  25.10  17.20  2.266  2.266  1.311  0.955  0.000  320.2  171.8  148.4    0.0
 1978 326   142  16.90  24.20  15.80  3.750  3.750  2.133  1.617  0.000  324.0  173.9  150.0    0.0
 1978 327   143  28.30  24.50  11.00  6.067  6.001  3.328  2.673  0.000  330.0  177.3  152.7    0.0
 1978 328   144  28.70  25.00   9.30  6.110  5.320  3.363  1.957  0.000  335.3  180.6  154.7    0.0
 1978 329   145  28.40  27.20   9.60  6.235  3.580  3.377  0.204  0.000  338.9  184.0  154.9    0.0
 1978 330   146  11.00  22.00  16.60  2.401  1.428  1.280  0.148  0.000  340.3  185.3  155.0    0.0
 1978 331   147  28.50  26.90  10.60  6.296  6.296  3.307  2.989  0.000  346.6  188.6  158.0    0.0
 1978 332   148  28.70  26.00  10.70  6.281  6.273  3.251  3.023  0.000  352.9  191.9  161.0    0.0
 1978 333   149  27.80  28.50  11.80  6.331  6.300  3.199  3.101  0.000  359.2  195.1  164.1    0.0
 1978 334   150  28.50  33.90  18.40  7.247  4.002  3.647  0.355  0.000  363.2  198.7  164.5    0.0
 1978 335   151  26.50  33.60  21.50  6.872  3.639  3.391  0.248  0.000  366.8  202.1  164.7    0.0
 1978 336   152  13.50  29.60  20.00  3.322  1.793  1.607  0.186  0.000  368.6  203.7  164.9    0.0
 1978 337   153   9.20  21.00  17.70  2.015  2.015  0.955  1.060  0.000  370.6  204.7  166.0    0.0
 1978 338   154   9.00  18.20  16.90  1.892  1.892  0.878  1.014  0.000  372.5  205.5  167.0    0.0
 1978 339   155  10.00  23.20  15.50  2.215  2.215  1.007  1.208  0.000  374.7  206.5  168.2    0.0
 1978 340   156  28.40  28.60  16.40  6.758  6.758  3.008  3.750  0.000  381.5  209.5  171.9    0.0
 1978 341   157  28.10  30.90  14.70  6.782  5.780  2.907  2.873  0.000  387.3  212.5  174.8    0.0
 1978 342   158  25.10  31.70  17.40  6.242  3.507  2.661  0.846  0.000  390.8  215.1  175.7    0.0
 1978 343   159  20.00  25.80  13.70  4.524  2.165  1.886  0.278  0.000  392.9  217.0  175.9    0.0
 1978 344   160  28.30  25.00  10.20  6.167  2.745  2.514  0.231  0.000  395.7  219.5  176.2    0.0
 1978 345   161  29.70  26.40  11.60  6.667  2.851  2.657  0.195  0.000  398.5  222.2  176.4    0.0
 1978 346   162  28.90  30.00  13.90  6.898  2.843  2.686  0.157  0.000  401.4  224.9  176.5    0.0
 1978 347   163  20.40  28.00  18.60  4.937  2.003  1.878  0.125  0.000  403.4  226.7  176.6    0.0
 1978 348   164  23.50  26.00  17.90  5.535  5.535  2.056  3.479  0.000  408.9  228.8  180.1    0.0
 1978 349   165  26.00  27.20  18.40  6.239  5.405  2.011  3.394  0.000  414.3  230.8  183.5    0.0
 1978 350   166  17.40  26.00  18.50  4.125  3.218  1.460  1.758  0.000  417.5  232.3  185.3    0.0
 1978 351   167  24.20  27.80  18.80  5.876  2.307  2.028  0.278  0.000  419.8  234.3  185.6    0.0
 1978 352   168  29.00  28.20  24.80  7.397  4.740  2.486  2.255  0.000  424.6  236.8  187.8    0.0
 1978 353   169  29.70  27.60  12.90  6.888  2.461  2.260  0.202  0.000  427.0  239.0  188.0    0.0
 1978 354   170  25.80  29.00  12.50  6.069  2.111  1.940  0.171  0.000  429.2  241.0  188.2    0.0
 1978 355   171  27.90  32.00  15.10  6.932  2.298  2.157  0.140  0.000  431.5  243.1  188.3    0.0
 1978 356   172  29.00  27.80  16.40  6.946  6.946  2.104  4.842  0.000  438.4  245.2  193.2    0.0
 1978 357   173  27.40  29.30  16.00  6.662  4.468  1.957  2.511  0.000  442.9  247.2  195.7    0.0
 1978 358   174  13.30  29.20  18.80  3.302  1.175  0.946  0.229  0.000  444.0  248.1  195.9    0.0
 1978 359   175  29.80  27.80  14.00  7.026  6.120  1.688  4.433  0.000  450.2  249.8  200.3    0.0
 1978 360   176  29.80  27.00  10.50  6.774  2.797  1.833  0.964  0.000  453.0  251.7  201.3    0.0
 1978 361   177  27.90  30.50  14.00  6.798  1.938  1.786  0.152  0.000  454.9  253.4  201.4    0.0
 1978 362   178  29.70  33.40  14.00  7.481  7.459  1.885  5.573  0.000  462.4  255.3  207.0    0.0
 1978 363   179  26.10  34.20  18.10  6.835  3.648  1.690  1.958  0.000  466.0  257.0  209.0    0.0
 1978 364   180   9.10  24.00  18.40  2.133  0.765  0.511  0.254  0.000  466.8  257.5  209.2    0.0
 1978 365   181  19.00  27.70  19.60  4.694  3.474  1.086  2.388  0.000  470.2  258.6  211.6    0.0
 1979 001   182  28.30  27.30  12.90  6.615  1.970  1.487  0.482  0.000  472.2  260.1  212.1    0.0
 1979 002   183  27.70  31.20  16.90  6.985  6.134  1.257  4.876  0.000  478.3  261.4  217.0    0.0
 1979 003   184  28.30  26.10  11.60  6.463  2.535  1.361  1.174  0.000  480.9  262.7  218.2    0.0
 1979 004   185  27.60  26.30   9.00  6.191  6.149  1.260  4.889  0.000  487.0  264.0  223.0    0.0
 1979 005   186  28.60  25.90  10.00  6.441  3.686  1.263  2.422  0.000  490.7  265.2  225.5    0.0
 1979 006   187  26.50  26.30   8.80  5.943  1.374  1.130  0.245  0.000  492.1  266.4  225.7    0.0
 1979 007   188  29.20  27.60  10.10  6.730  1.453  1.235  0.218  0.000  493.5  267.6  225.9    0.0
 1979 008   189  29.40  28.10  10.20  6.827  1.393  1.209  0.184  0.000  494.9  268.8  226.1    0.0
 1979 009   190  28.70  30.10  11.60  6.904  6.726  1.001  5.725  0.000  501.7  269.8  231.8    0.0
 1979 010   191  29.10  32.90  16.80  7.510  3.201  1.282  1.918  0.000  504.9  271.1  233.8    0.0
 1979 011   192  27.90  33.50  18.20  7.319  1.515  1.250  0.265  0.000  506.4  272.4  234.0    0.0

[...]
 1995 010   191  25.50  25.70  12.10  5.870  0.984  0.776  0.208  0.000  482.5  237.7  244.8    0.0
 1995 011   192  27.50  28.20   8.50  6.338  1.020  0.837  0.183  0.000  483.5  238.5  245.0    0.0
 1995 012   193   9.00  21.90  19.00  2.092  0.438  0.276  0.162  0.000  483.9  238.8  245.1    0.0

*DSSAT Cropping System Model Ver. 4.0.2.000               Aug 01, 2016; 15:14:26

*RUN  21        : UYMZ                    
 MODEL          : MZCER040 - Maize           
 EXPERIMENT     : UYMZ0103 MZ    late to create DSS                             
 TREATMENT  1   : UYMZ                    

@YEAR DOY   DAS   SRAA   TMXA   TMNA   EOAA   ETAA   EPAA   ESAA   EFAD   ETAC   EPAC   ESAC   EFAC
 1995 184     0  10.40  15.00   2.00  1.914  1.582  0.000  1.582  0.000    1.6    0.0    1.6    0.0
 1995 185     1   3.60  22.00  11.40  0.798  0.798  0.000  0.798  0.000    2.4    0.0    2.4    0.0
 1995 186     2  12.20  14.40   4.30  2.277  2.277  0.000  2.277  0.000    4.7    0.0    4.7    0.0
 1995 187     3  12.10  16.30   2.30  2.278  2.278  0.000  2.278  0.000    6.9    0.0    6.9    0.0
 1995 188     4  12.30  17.50   1.30  2.334  1.979  0.000  1.979  0.000    8.9    0.0    8.9    0.0
 1995 189     5  11.10  20.20   2.30  2.213  2.213  0.000  2.213  0.000   11.1    0.0   11.1    0.0
 1995 190     6  12.10  19.30   6.30  2.473  0.990  0.000  0.990  0.000   12.1    0.0   12.1    0.0
 1995 191     7   9.10  21.30   7.00  1.924  0.278  0.000  0.278  0.000   12.4    0.0   12.4    0.0
 1995 192     8   3.60  13.90  12.40  0.722  0.276  0.000  0.276  0.000   12.7    0.0   12.7    0.0
 1995 193     9   3.60  15.00  13.50  0.741  0.741  0.000  0.741  0.000   13.4    0.0   13.4    0.0
 1995 194    10   3.60  15.00  11.80  0.729  0.729  0.000  0.729  0.000   14.1    0.0   14.1    0.0
 1995 195    11   3.80  14.80  10.50  0.758  0.758  0.000  0.758  0.000   14.9    0.0   14.9    0.0
 1995 196    12  12.40  12.20   3.70  2.223  2.223  0.000  2.223  0.000   17.1    0.0   17.1    0.0
 1995 197    13   8.70  10.40   0.60  1.464  1.464  0.000  1.464  0.000   18.6    0.0   18.6    0.0
 1995 198    14   3.70  10.20   5.20  0.653  0.653  0.000  0.653  0.000   19.2    0.0   19.2    0.0
 1995 199    15   4.30  13.00   7.80  0.814  0.814  0.000  0.814  0.000   20.1    0.0   20.1    0.0
 1995 200    16  12.30  13.00   1.00  2.170  2.170  0.000  2.170  0.000   22.2    0.0   22.2    0.0
 1995 201    17  12.10  13.40  -2.00  2.080  2.080  0.000  2.080  0.000   24.3    0.0   24.3    0.0
 1995 202    18  10.40  16.00  -0.60  1.892  1.510  0.000  1.510  0.000   25.8    0.0   25.8    0.0
 1995 203    19  11.20  19.30   4.00  2.240  1.703  0.000  1.703  0.000   27.5    0.0   27.5    0.0
 1995 204    20  12.60  26.30  10.00  2.915  0.276  0.000  0.276  0.000   27.8    0.0   27.8    0.0
 1995 205    21  11.50  19.00  11.20  2.448  0.259  0.000  0.259  0.000   28.1    0.0   28.1    0.0
 1995 206    22   3.90  16.30  11.00  0.798  0.245  0.001  0.244  0.000   28.3    0.0   28.3    0.0
 1995 207    23   4.00  17.00  14.00  0.850  0.850  0.002  0.848  0.000   29.1    0.0   29.1    0.0
 1995 208    24   4.00  16.20  11.40  0.821  0.821  0.003  0.818  0.000   30.0    0.0   30.0    0.0
 1995 209    25  14.10  16.20   7.30  2.783  2.783  0.012  2.771  0.000   32.7    0.0   32.7    0.0
 1995 210    26  11.50  12.00   6.00  2.104  2.104  0.010  2.093  0.000   34.9    0.0   34.8    0.0
 1995 211    27   7.90  13.10   7.20  1.488  1.023  0.008  1.015  0.000   35.9    0.0   35.8    0.0
 1995 212    28  10.00  15.40   5.30  1.913  1.193  0.011  1.182  0.000   37.1    0.0   37.0    0.0
 1995 213    29  13.40  14.00   1.30  2.408  2.011  0.014  1.996  0.000   39.1    0.1   39.0    0.0
 1995 214    30  14.20   9.30  -1.60  2.284  0.282  0.011  0.270  0.000   39.4    0.1   39.3    0.0
 1995 215    31  14.10  14.00  -1.20  2.468  0.260  0.005  0.255  0.000   39.6    0.1   39.5    0.0
 1995 216    32  13.40  16.20  -3.60  2.369  0.242  0.003  0.240  0.000   39.9    0.1   39.8    0.0
 1995 217    33  13.80  16.50  -2.50  2.480  0.228  0.000  0.227  0.000   40.1    0.1   40.0    0.0
 1995 218    34  13.90  16.30  -1.80  2.509  0.217  0.000  0.217  0.000   40.3    0.1   40.2    0.0
 1995 219    35  14.40  18.10   2.30  2.785  0.207  0.000  0.207  0.000   40.5    0.1   40.4    0.0
 1995 220    36  13.00  12.20  -0.20  2.234  0.200  0.001  0.198  0.000   40.7    0.1   40.6    0.0
 1995 221    37   4.40  13.00  -1.80  0.753  0.191  0.000  0.191  0.000   40.9    0.1   40.8    0.0
 1995 222    38   5.70  17.00  11.00  1.179  0.184  0.000  0.184  0.000   41.1    0.1   41.0    0.0
 1995 223    39   9.50  23.00  13.30  2.168  0.881  0.003  0.878  0.000   42.0    0.1   41.9    0.0
 1995 224    40   4.50  18.00  13.90  0.968  0.175  0.004  0.172  0.000   42.1    0.1   42.1    0.0
 1995 225    41  11.70  14.00   5.60  2.198  0.179  0.012  0.166  0.000   42.3    0.1   42.2    0.0
 1995 226    42  10.90  12.00   4.70  1.967  0.773  0.012  0.761  0.000   43.1    0.1   43.0    0.0
 1995 227    43  11.00  13.00   4.40  2.010  0.170  0.013  0.157  0.000   43.3    0.1   43.1    0.0
 1995 228    44  10.60  13.00   3.20  1.913  0.766  0.014  0.752  0.000   44.0    0.1   43.9    0.0
 1995 229    45  16.20  14.00   1.20  2.908  0.169  0.021  0.148  0.000   44.2    0.2   44.0    0.0
 1995 230    46  15.40  15.00  -2.70  2.694  0.161  0.017  0.144  0.000   44.4    0.2   44.2    0.0
 1995 231    47   7.20  17.00   5.10  1.408  0.142  0.003  0.140  0.000   44.5    0.2   44.3    0.0
 1995 232    48  12.70  22.00   9.00  2.757  0.148  0.012  0.136  0.000   44.7    0.2   44.5    0.0
 1995 233    49  12.80  26.40  10.50  2.973  0.166  0.033  0.133  0.000   44.8    0.2   44.6    0.0
 1995 234    50   9.80  30.40  18.20  2.528  0.184  0.054  0.130  0.000   45.0    0.3   44.7    0.0
 1995 235    51   5.00  17.30  13.30  1.055  0.168  0.042  0.127  0.000   45.2    0.3   44.9    0.0
 1995 236    52   5.10  18.20  14.30  1.098  0.175  0.052  0.123  0.000   45.3    0.4   45.0    0.0
 1995 237    53   5.40  18.30  13.40  1.154  0.186  0.066  0.120  0.000   45.5    0.4   45.1    0.0
 1995 238    54  16.60  21.00   8.10  3.504  0.352  0.235  0.117  0.000   45.9    0.7   45.2    0.0
 1995 239    55   6.50  18.80   9.60  1.348  0.217  0.103  0.113  0.000   46.1    0.8   45.3    0.0
 1995 240    56  15.90  15.30   7.00  3.061  3.061  0.260  2.801  0.000   49.2    1.0   48.1    0.0
 1995 241    57  13.90  18.40   5.00  2.744  2.744  0.247  2.497  0.000   51.9    1.3   50.6    0.0
 1995 242    58  13.30  21.00   3.90  2.694  2.000  0.256  1.743  0.000   53.9    1.5   52.4    0.0
 1995 243    59  16.20  13.40   1.00  2.845  2.843  0.278  2.565  0.000   56.7    1.8   54.9    0.0
 1995 244    60  17.50  16.00  -1.00  3.143  0.560  0.239  0.320  0.000   57.3    2.1   55.2    0.0
 1995 245    61  17.00  21.40   7.60  3.602  0.418  0.149  0.269  0.000   57.7    2.2   55.5    0.0
 1995 246    62  16.10  28.00   9.00  3.749  0.445  0.201  0.244  0.000   58.2    2.4   55.8    0.0
 1995 247    63  18.30  30.30  11.20  4.446  0.557  0.331  0.226  0.000   58.7    2.7   56.0    0.0
 1995 248    64  17.50  31.20  11.80  4.303  0.645  0.437  0.208  0.000   59.4    3.2   56.2    0.0
 1995 249    65   6.20  19.00  10.80  1.296  0.360  0.171  0.189  0.000   59.7    3.3   56.4    0.0
 1995 250    66   5.60  13.00   9.20  1.058  0.324  0.155  0.169  0.000   60.1    3.5   56.6    0.0
 1995 251    67   5.70  16.00  12.40  1.158  1.158  0.177  0.980  0.000   61.2    3.7   57.5    0.0
 1995 252    68   9.40  19.30   6.70  1.893  1.893  0.315  1.578  0.000   63.1    4.0   59.1    0.0
 1995 253    69  18.90  14.00   4.40  3.441  3.441  0.613  2.828  0.000   66.5    4.6   61.9    0.0
 1995 254    70   6.00  13.40   7.00  1.111  1.111  0.198  0.913  0.000   67.7    4.8   62.9    0.0
 1995 255    71   7.50  16.00   8.00  1.457  1.457  0.267  1.190  0.000   69.1    5.1   64.0    0.0
 1995 256    72  19.90  19.30   6.20  3.978  3.978  0.766  3.212  0.000   73.1    5.8   67.3    0.0
 1995 257    73  20.20  23.00   5.00  4.194  3.613  0.856  2.758  0.000   76.7    6.7   70.0    0.0
 1995 258    74  19.90  25.00   7.00  4.309  1.729  0.956  0.773  0.000   78.4    7.7   70.8    0.0
 1995 259    75  18.50  24.00   7.00  3.944  1.199  0.966  0.233  0.000   79.6    8.6   71.0    0.0
 1995 260    76  21.30  14.40   3.80  3.838  1.229  1.038  0.191  0.000   80.9    9.7   71.2    0.0
 1995 261    77  20.40  14.40   1.80  3.603  1.114  0.956  0.158  0.000   82.0   10.6   71.4    0.0
 1995 262    78  19.60  17.50   2.30  3.662  0.968  0.840  0.129  0.000   82.9   11.4   71.5    0.0
 1995 263    79  11.10  19.00   9.20  2.267  0.583  0.477  0.107  0.000   83.5   11.9   71.6    0.0
 1995 264    80  10.20  18.20  10.10  2.073  0.562  0.471  0.092  0.000   84.1   12.4   71.7    0.0
 1995 265    81  17.30  21.20   3.90  3.455  1.936  0.851  1.085  0.000   86.0   13.2   72.8    0.0
 1995 266    82  20.30  22.30   5.40  4.168  1.139  1.059  0.080  0.000   87.2   14.3   72.9    0.0
 1995 267    83  13.00  22.40   9.20  2.757  2.757  0.762  1.995  0.000   89.9   15.1   74.9    0.0
 1995 268    84  13.20  18.00   4.30  2.513  2.513  0.761  1.752  0.000   92.4   15.8   76.6    0.0
 1995 269    85  15.10  17.00   5.00  2.851  2.851  0.876  1.975  0.000   95.3   16.7   78.6    0.0
 1995 270    86   6.60  15.20  11.00  1.285  1.044  0.407  0.638  0.000   96.3   17.1   79.2    0.0
 1995 271    87   9.00  20.50  12.00  1.896  1.896  0.630  1.266  0.000   98.2   17.7   80.5    0.0
 1995 272    88  10.50  22.00  10.20  2.214  2.214  0.795  1.419  0.000  100.4   18.5   81.9    0.0
 1995 273    89  12.00  21.00  13.90  2.571  2.571  0.989  1.582  0.000  103.0   19.5   83.5    0.0
 1995 274    90   6.80  19.00  14.10  1.418  1.418  0.588  0.830  0.000  104.4   20.1   84.3    0.0
 1995 275    91  17.50  25.00  16.90  4.011  4.011  1.769  2.242  0.000  108.4   21.9   86.6    0.0
 1995 276    92  11.20  22.20  16.80  2.467  2.467  1.203  1.264  0.000  110.9   23.1   87.8    0.0
 1995 277    93   8.70  22.40  16.40  1.907  1.907  1.002  0.905  0.000  112.8   24.1   88.7    0.0
 1995 278    94  10.80  23.20  13.00  2.317  2.317  1.292  1.024  0.000  115.1   25.4   89.8    0.0
 1995 279    95  22.60  21.80   9.00  4.588  4.588  2.690  1.897  0.000  119.7   28.1   91.7    0.0
 1995 280    96  20.90  18.20   8.60  4.019  4.019  2.432  1.587  0.000  123.7   30.5   93.2    0.0
 1995 281    97  14.00  17.30   7.00  2.615  2.615  1.614  1.001  0.000  126.4   32.1   94.2    0.0
 1995 282    98  19.70  20.40   5.00  3.769  3.769  2.358  1.411  0.000  130.1   34.5   95.7    0.0
 1995 283    99  12.40  19.40  10.00  2.447  2.447  1.552  0.895  0.000  132.6   36.0   96.5    0.0
 1995 284   100  19.40  18.00   8.50  3.700  3.700  2.394  1.306  0.000  136.3   38.4   97.9    0.0
 1995 285   101  24.40  21.30   8.20  4.849  4.849  3.179  1.670  0.000  141.1   41.6   99.5    0.0
 1995 286   102  26.10  26.70   8.30  5.558  5.558  3.704  1.854  0.000  146.7   45.3  101.4    0.0
 1995 287   103  25.80  23.20   5.00  5.097  4.916  3.475  1.441  0.000  151.6   48.8  102.8    0.0
 1995 288   104  21.50  19.30   4.20  3.993  3.990  2.752  1.238  0.000  155.6   51.5  104.1    0.0
 1995 289   105  23.00  22.00   3.30  4.401  3.945  3.018  0.927  0.000  159.5   54.6  105.0    0.0
 1995 290   106  25.50  22.30   7.00  5.075  3.518  3.389  0.129  0.000  163.1   57.9  105.1    0.0
 1995 291   107  18.20  22.30   5.40  3.568  3.568  2.407  1.161  0.000  166.6   60.3  106.3    0.0
 1995 292   108  22.90  23.30   7.80  4.643  4.643  3.167  1.476  0.000  171.3   63.5  107.7    0.0
 1995 293   109  25.80  25.20  10.20  5.464  5.464  3.779  1.685  0.000  176.7   67.3  109.4    0.0
 1995 294   110  25.90  30.20  11.00  5.855  5.855  4.124  1.731  0.000  182.6   71.4  111.2    0.0
 1995 295   111  25.60  31.30  11.80  5.887  5.887  4.241  1.646  0.000  188.5   75.7  112.8    0.0
 1995 296   112   7.80  21.00  17.50  1.658  1.658  1.220  0.438  0.000  190.1   76.9  113.2    0.0
 1995 297   113   8.40  16.50   9.40  1.566  1.566  1.162  0.404  0.000  191.7   78.0  113.7    0.0
 1995 298   114  10.50  16.20   8.20  1.927  1.927  1.429  0.498  0.000  193.6   79.5  114.2    0.0
 1995 299   115  22.60  19.20   4.60  4.185  4.185  3.095  1.089  0.000  197.8   82.6  115.2    0.0
 1995 300   116  25.60  16.00   3.80  4.490  4.490  3.314  1.177  0.000  202.3   85.9  116.4    0.0
 1995 301   117  27.10  20.00   2.70  4.993  4.993  3.614  1.379  0.000  207.3   89.5  117.8    0.0
 1995 302   118  23.70  23.30   6.40  4.744  4.731  3.250  1.481  0.000  212.0   92.7  119.3    0.0
 1995 303   119  24.70  27.00  12.00  5.428  4.903  3.741  1.162  0.000  216.9   96.5  120.4    0.0
 1995 304   120  26.20  29.00  14.40  5.994  4.642  4.244  0.398  0.000  221.6  100.7  120.8    0.0
 1995 305   121  23.20  31.00  15.00  5.447  5.447  3.923  1.524  0.000  227.0  104.6  122.4    0.0
 1995 306   122  22.00  31.30  18.30  5.306  5.306  3.854  1.452  0.000  232.3  108.5  123.8    0.0
 1995 307   123  22.60  33.10  19.70  5.612  5.514  3.993  1.521  0.000  237.8  112.5  125.3    0.0
 1995 308   124  12.90  28.40  19.00  3.028  3.028  2.209  0.819  0.000  240.9  114.7  126.2    0.0
 1995 309   125   9.40  22.40  16.60  2.020  2.020  1.465  0.554  0.000  242.9  116.2  126.7    0.0
 1995 310   126   8.30  21.40  19.00  1.798  1.798  1.292  0.506  0.000  244.7  117.5  127.2    0.0
 1995 311   127   8.30  20.50  15.60  1.730  1.730  1.229  0.501  0.000  246.4  118.7  127.7    0.0
 1995 312   128  28.20  22.00  13.00  5.866  5.866  4.119  1.748  0.000  252.3  122.8  129.5    0.0
 1995 313   129  28.00  25.20  10.10  5.924  5.924  4.108  1.816  0.000  258.2  126.9  131.3    0.0
 1995 314   130  27.70  21.20  10.40  5.588  5.588  3.824  1.764  0.000  263.8  130.7  133.0    0.0
 1995 315   131  24.10  23.60  13.00  5.130  4.717  3.445  1.272  0.000  268.5  134.2  134.3    0.0
 1995 316   132  16.20  22.30  17.50  3.525  3.525  2.343  1.181  0.000  272.0  136.5  135.5    0.0
 1995 317   133  20.40  24.00  15.60  4.466  3.628  2.929  0.699  0.000  275.7  139.5  136.2    0.0
 1995 318   134  23.60  25.00  15.00  5.210  3.824  3.369  0.455  0.000  279.5  142.8  136.6    0.0
 1995 319   135  18.00  23.20  14.50  3.876  2.590  2.470  0.120  0.000  282.1  145.3  136.8    0.0
 1995 320   136  23.30  23.40  13.00  4.973  4.973  3.119  1.853  0.000  287.0  148.4  138.6    0.0
 1995 321   137  26.30  23.90  12.00  5.608  5.608  3.460  2.148  0.000  292.6  151.9  140.8    0.0
 1995 322   138  29.20  25.20  13.20  6.399  6.212  3.776  2.436  0.000  298.9  155.7  143.2    0.0
 1995 323   139  15.50  25.40  15.40  3.471  3.471  2.044  1.427  0.000  302.3  157.7  144.6    0.0
 1995 324   140  18.50  28.00  17.40  4.342  2.715  2.506  0.209  0.000  305.0  160.2  144.8    0.0
 1995 325   141  26.20  24.40  11.80  5.643  3.366  3.193  0.172  0.000  308.4  163.4  145.0    0.0
 1995 326   142  29.90  25.40   8.30  6.341  5.370  3.503  1.867  0.000  313.8  166.9  146.9    0.0
 1995 327   143  26.60  24.70  10.30  5.693  3.852  3.099  0.753  0.000  317.6  170.0  147.6    0.0
 1995 328   144  27.50  28.00  16.00  6.416  6.416  3.426  2.990  0.000  324.1  173.4  150.6    0.0
 1995 329   145  27.70  21.00  11.10  5.706  5.359  2.827  2.532  0.000  329.4  176.3  153.2    0.0
 1995 330   146  30.10  25.00   6.20  6.266  4.791  3.225  1.565  0.000  334.2  179.5  154.7    0.0
 1995 331   147  29.70  28.30  12.20  6.773  6.773  3.424  3.349  0.000  341.0  182.9  158.1    0.0
 1995 332   148  29.70  30.20  12.00  6.920  5.887  3.363  2.524  0.000  346.9  186.3  160.6    0.0
 1995 333   149  10.80  26.00  18.20  2.517  2.198  1.230  0.969  0.000  349.1  187.5  161.6    0.0
 1995 334   150  20.60  28.20  17.50  4.901  4.901  2.356  2.545  0.000  354.0  189.9  164.1    0.0
 1995 335   151  27.00  29.20  15.00  6.381  5.549  2.538  3.011  0.000  359.5  192.4  167.1    0.0
 1995 336   152  29.40  30.40  12.10  6.895  4.986  3.214  1.772  0.000  364.5  195.6  168.9    0.0
 1995 337   153  29.40  33.20  15.00  7.279  3.504  3.323  0.181  0.000  368.0  198.9  169.1    0.0
 1995 338   154  29.60  34.60  17.20  7.566  7.566  3.380  4.185  0.000  375.6  202.3  173.3    0.0
 1995 339   155  22.40  32.40  17.70  5.618  4.978  2.427  2.551  0.000  380.5  204.7  175.8    0.0
 1995 340   156  30.00  22.80   9.70  6.317  3.341  2.701  0.640  0.000  383.9  207.4  176.4    0.0
 1995 341   157  30.10  24.40   4.40  6.186  6.186  2.586  3.600  0.000  390.1  210.0  180.0    0.0
 1995 342   158  30.00  28.00   6.90  6.602  5.663  2.617  3.046  0.000  395.7  212.6  183.1    0.0
 1995 343   159  28.30  28.00  11.20  6.455  3.300  2.578  0.722  0.000  399.0  215.2  183.8    0.0
 1995 344   160  30.40  27.80   5.40  6.604  6.604  2.578  4.026  0.000  405.6  217.8  187.8    0.0
 1995 345   161  30.40  32.90  11.50  7.371  5.883  2.777  3.106  0.000  411.5  220.6  191.0    0.0
 1995 346   162  27.40  28.20   8.50  6.149  2.470  2.290  0.180  0.000  414.0  222.9  191.1    0.0
 1995 347   163  29.20  32.40  11.00  7.027  7.027  2.556  4.471  0.000  421.0  225.4  195.6    0.0
 1995 348   164  28.90  28.50  18.60  7.054  5.350  2.485  2.865  0.000  426.4  227.9  198.5    0.0
 1995 349   165  26.20  32.50  13.90  6.463  2.431  2.240  0.191  0.000  428.8  230.1  198.7    0.0
 1995 350   166  30.30  40.40  17.60 10.390  9.396  2.947  6.449  0.000  438.2  233.1  205.1    0.0
 1995 351   167  29.80  28.20  15.30  7.089  3.647  2.339  1.308  0.000  441.8  235.4  206.4    0.0
 1995 352   168  28.30  31.10  11.00  6.741  2.391  2.168  0.223  0.000  444.2  237.6  206.6    0.0
 1995 353   169  20.50  32.00  18.40  5.216  5.216  1.635  3.581  0.000  449.5  239.2  210.2    0.0
 1995 354   170  11.40  28.90  22.00  2.881  2.847  0.846  2.001  0.000  452.3  240.1  212.2    0.0
 1995 355   171   9.20  25.30  22.40  2.243  2.243  0.667  1.576  0.000  454.5  240.7  213.8    0.0
 1995 356   172  10.20  27.40  21.80  2.537  2.537  0.735  1.802  0.000  457.1  241.5  215.6    0.0
 1995 357   173  26.80  26.80  18.60  6.469  6.469  1.824  4.645  0.000  463.5  243.3  220.2    0.0
 1995 358   174  28.40  27.00  16.20  6.751  4.352  1.848  2.504  0.000  467.9  245.2  222.7    0.0
 1995 359   175  29.40  26.40  14.30  6.843  2.087  1.827  0.259  0.000  470.0  247.0  223.0    0.0
 1995 360   176  30.80  28.70  15.00  7.410  2.203  1.924  0.278  0.000  472.2  248.9  223.3    0.0
 1995 361   177  28.70  28.70  15.30  6.927  1.994  1.748  0.247  0.000  474.2  250.7  223.5    0.0
 1995 362   178  23.40  28.40  16.40  5.680  1.598  1.391  0.206  0.000  475.8  252.0  223.7    0.0
 1995 363   179  22.70  27.90  14.80  5.416  1.462  1.287  0.175  0.000  477.2  253.3  223.9    0.0
 1995 364   180  26.60  28.60  15.90  6.458  1.640  1.488  0.152  0.000  478.9  254.8  224.1    0.0
 1995 365   181  30.70  30.90  19.50  7.859  1.888  1.754  0.134  0.000  480.8  256.6  224.2    0.0
 1996 001   182  26.60  28.60  15.90  6.468  6.468  1.398  5.070  0.000  487.2  258.0  229.3    0.0
 1996 002   183  30.60  30.90  19.50  7.846  4.012  1.637  2.374  0.000  491.2  259.6  231.6    0.0
 1996 003   184  26.90  33.10  21.40  7.162  1.698  1.449  0.249  0.000  492.9  261.1  231.9    0.0
 1996 004   185  19.80  32.80  19.80  5.200  1.235  1.017  0.218  0.000  494.2  262.1  232.1    0.0
 1996 005   186  26.00  30.10  15.00  6.406  1.393  1.211  0.182  0.000  495.6  263.3  232.3    0.0
 1996 006   187  30.10  26.00   9.80  6.787  6.787  1.238  5.549  0.000  502.4  264.5  237.8    0.0
 1996 007   188  30.10  27.80  11.10  7.016  3.493  1.233  2.260  0.000  505.9  265.8  240.1    0.0
 1996 008   189  28.70  28.40  13.20  6.854  1.432  1.164  0.268  0.000  507.3  266.9  240.4    0.0
 1996 009   190  28.20  33.60  14.40  7.212  1.459  1.181  0.278  0.000  508.7  268.1  240.6    0.0
 1996 010   191  30.30  33.20  16.30  7.822  1.526  1.281  0.245  0.000  510.3  269.4  240.9    0.0
 1996 011   192  13.80  31.40  19.30  3.570  0.799  0.585  0.214  0.000  511.1  270.0  241.1    0.0
