*SIMULATION OVERVIEW FILE

*DSSAT Cropping System Model Ver. 4.0.2.000               Aug 01, 2016; 15:14:26
                                                                                
*RUN   1        : UYMZ                                                          
 MODEL          : MZCER040 - MAIZE                                              
 EXPERIMENT     : UYMZ0103 SN late to create DSS                                
 TREATMENT  1   : UYMZ                                                          
                                                                                
 CROP           : MAIZE          CULTIVAR : CMEDIO UY        ECOTYPE :IB0001    
 STARTING DATE  : JUL  3 1975                                                   
 PLANTING DATE  : JUL  6 1975    PLANTS/m2 :  7.0     ROW SPACING :  15.cm      
 WEATHER        : UYTT   1975                                                   
 SOIL           : UYSS1N1706     TEXTURE : SL    -  N17-06    SNIA SANDY WES    
 SOIL INITIAL C : DEPTH:100cm EXTR. H2O: 79.2mm  NO3: 63.0kg/ha  NH4: 23.1kg/ha 
 WATER BALANCE  : AUTOMATIC IRRIGATION - REFILL PROFILE                         
 IRRIGATION     : AUTOMATIC - PLANTING -> MATURITY [ SOIL DEPTH:30.00m 50.%]    
 NITROGEN BAL.  : SOIL-N & N-UPTAKE SIMULATION; NO N-FIXATION                   
 N-FERTILIZER   :       55 kg/ha IN     3 APPLICATIONS                          
 RESIDUE/MANURE : INITIAL :     0 kg/ha ;       0 kg/ha IN     0 APPLICATIONS   
 ENVIRONM. OPT. : DAYL=    0.00  SRAD=    0.00  TMAX=    0.00  TMIN=    0.00    
                  RAIN=    0.00  CO2 = R330.00  DEW =    0.00  WIND=    0.00    
 SIMULATION OPT : WATER   :Y  NITROGEN:Y  N-FIX:N  PHOSPH :N  PESTS  :N         
                  PHOTO   :C  ET      :R  INFIL:S  HYDROL :R  SOM    :G         
 MANAGEMENT OPT : PLANTING:R  IRRIG   :A  FERT :D  RESIDUE:N  HARVEST:M  WTH:M  
                                                                                
*SUMMARY OF SOIL AND GENETIC INPUT PARAMETERS                                   
                                                                                
   SOIL LOWER UPPER   SAT  EXTR  INIT   ROOT   BULK     pH    NO3    NH4    ORG 
  DEPTH LIMIT LIMIT    SW    SW    SW   DIST   DENS                          C  
   cm   cm3/cm3    cm3/cm3    cm3/cm3         g/cm3         ugN/g  ugN/g     %  
------------------------------------------------------------------------------- 
  0-  5 0.116 0.202 0.414 0.086 0.176   1.00   1.47   6.00  15.00   1.50   1.10 
  5- 15 0.116 0.202 0.414 0.086 0.176   1.00   1.47   6.00  15.00   1.50   1.10 
 15- 30 0.118 0.205 0.410 0.087 0.178   0.48   1.49   6.00   8.41   1.50   0.84 
 30- 45 0.139 0.224 0.402 0.084 0.206   0.27   1.51   6.00   4.93   1.50   0.67 
 45- 60 0.182 0.261 0.387 0.079 0.261   0.00   1.56   6.00   0.00   1.50   0.40 
 60- 80 0.176 0.248 0.378 0.072 0.248   0.00   1.59   6.00   0.00   1.50   0.20 
 80-100 0.156 0.228 0.374 0.072 0.228   0.00   1.60   6.00   0.00   1.50   0.14 
                                                                                
TOT-100  15.0  22.9  39.2   7.9  21.8  <--cm   -  kg/ha-->   63.0   23.1  78401 
SOIL ALBEDO    : 0.13      EVAPORATION LIMIT : 6.00         MIN. FACTOR  : 1.00 
RUNOFF CURVE # :10.00      DRAINAGE RATE     : 0.60         FERT. FACTOR : 1.00 
                                                                                
 MAIZE      CULTIVAR :UY0370-CMEDIO UY          ECOTYPE :IB0001                 
 P1     : 280.00  P2     : 0.0000  P5     : 750.00                              
 G2     : 800.00  G3     :  7.500  PHINT  : 38.900                              
                                                                                
                                                                                
                                                                                
*SIMULATED CROP AND SOIL STATUS AT MAIN DEVELOPMENT STAGES

 RUN NO.     1     UYMZ                    

        CROP GROWTH   BIOMASS         LEAF   CROP N     STRESS  
   DATE  AGE STAGE      kg/ha    LAI   NUM  kg/ha  %   H2O    N 
 ------  --- ---------- -----  -----  ----  ---  ---  ----  ----
  3 JUL    0 Start Sim      0   0.00   0.0    0  0.0  0.00  0.00
  6 JUL    0 Sowing         0   0.00   0.0    0  0.0  0.00  0.00
  7 JUL    1 Germinate      0   0.00   0.0    0  0.0  0.00  0.00
 29 JUL   23 Emergence     28   0.00   1.6    1  4.4  0.00  0.00
 20 SEP   76 End Juveni   313   0.50   9.5   12  3.7  0.00  0.00
 24 SEP   80 Floral Ini   416   0.65  10.2   15  3.7  0.00  0.01
 26 NOV  143 75% Silkin  4427   0.96  21.5   38  0.9  0.00  0.23
 10 DEC  157 Beg Gr Fil  5355   0.63  21.5   39  0.7  0.00  0.30
 15 JAN  193 End Gr Fil  7311   0.20  21.5   43  0.6  0.00  0.37
 18 JAN  196 Maturity    7311   0.20  21.5   43  0.6  0.00  0.45
 18 JAN  196 Harvest     7311   0.20  21.5   43  0.6  0.00  0.00


*MAIN GROWTH AND DEVELOPMENT VARIABLES

@     VARIABLE                          SIMULATED     MEASURED
      --------                          ---------     --------
      Anthesis day (dap)                      143          -99
      Physiological maturity day (dap)        196          -99
      Yield at harvest maturity (kg [dm]/    2305          -99
      Number at maturity (no/m2)              911          -99
      Unit wt at maturity (g [dm]/unit)    0.2531          -99
      Number at maturity (no/unit)          130.1          -99
      Tops weight at maturity (kg [dm]/ha    7311          -99
      By-product produced (stalk) at matu    5063          -99
      Leaf area index, maximum               1.58          -99
      Harvest index at maturity             0.315          -99
      Grain N at maturity (kg/ha)              20          -99
      Tops N at maturity (kg/ha)               43          -99
      Stem N at maturity (kg/ha)               23          -99
      Grain N at maturity (%)                 0.9          -99
      Tops weight at anthesis (kg [dm]/ha    4398          -99
      Tops N at anthesis (kg/ha)               38          -99
      Leaf number per stem at maturity      21.46          -99


*ENVIRONMENTAL AND STRESS FACTORS

 |-----Development Phase------|-------------Environment--------------|---------Stress----------|
                              |--------Average-------|---Cumulative--|  (0=Min, 1=Max Stress)  |
                         Time  Temp  Temp Solar Photop         Evapo |----Water---|--Nitrogen--|
                         Span   Max   Min   Rad  [day]   Rain  Trans  Photo         Photo
                         days    øC    øC MJ/m2     hr     mm     mm  synth Growth  synth Growth
------------------------------------------------------------------------------------------------
 Emergence-End Juvenile    53  17.6   7.4  10.4  11.04  166.6   63.5  0.000  0.000  0.004  0.002
 End Juvenil-Floral Init    4  20.3  12.1  15.1  11.99   16.2   12.1  0.000  0.000  0.001  0.000
 Floral Init-End Lf Grow   63  22.9   9.2  21.0  13.09  146.4  237.8  0.000  0.000  0.393  0.219
 End Lf Grth-Beg Grn Fil   14  27.1  12.5  24.1  14.06   33.6   64.8  0.000  0.000  0.596  0.320
 Grain Filling Phase       36  30.1  15.5  24.5  14.15   69.8  118.2  0.000  0.000  0.637  0.364

                     Maize YIELD :     2305 kg/ha    [Dry weight] 

************************************************************************************************

*DSSAT Cropping System Model Ver. 4.0.2.000               Aug 01, 2016; 15:14:26
                                                                                
*RUN   2        : UYMZ                                                          
 MODEL          : MZCER040 - MAIZE                                              
 EXPERIMENT     : UYMZ0103 SN late to create DSS                                
 TREATMENT  1   : UYMZ                                                          
                                                                                
 CROP           : MAIZE          CULTIVAR : CMEDIO UY        ECOTYPE :IB0001    
 STARTING DATE  : JUL  3 1975                                                   
 PLANTING DATE  : JUL  6 1975    PLANTS/m2 :  7.0     ROW SPACING :  15.cm      
 WEATHER        : UYTT   1975                                                   
 SOIL           : UYSS1N1706     TEXTURE : SL    -  N17-06    SNIA SANDY WES    
 SOIL INITIAL C : DEPTH:100cm EXTR. H2O: 79.2mm  NO3: 63.0kg/ha  NH4: 23.1kg/ha 
 WATER BALANCE  : AUTOMATIC IRRIGATION - REFILL PROFILE                         
 IRRIGATION     : AUTOMATIC - PLANTING -> MATURITY [ SOIL DEPTH:30.00m 50.%]    
 NITROGEN BAL.  : SOIL-N & N-UPTAKE SIMULATION; NO N-FIXATION                   
 N-FERTILIZER   :       55 kg/ha IN     3 APPLICATIONS                          
 RESIDUE/MANURE : INITIAL :     0 kg/ha ;       0 kg/ha IN     0 APPLICATIONS   
 ENVIRONM. OPT. : DAYL=    0.00  SRAD=    0.00  TMAX=    0.00  TMIN=    0.00    
                  RAIN=    0.00  CO2 = R330.00  DEW =    0.00  WIND=    0.00    
 SIMULATION OPT : WATER   :Y  NITROGEN:Y  N-FIX:N  PHOSPH :N  PESTS  :N         
                  PHOTO   :C  ET      :R  INFIL:S  HYDROL :R  SOM    :G         
 MANAGEMENT OPT : PLANTING:R  IRRIG   :A  FERT :D  RESIDUE:N  HARVEST:M  WTH:M  
                                                                                
*SUMMARY OF SOIL AND GENETIC INPUT PARAMETERS                                   
                                                                                
   SOIL LOWER UPPER   SAT  EXTR  INIT   ROOT   BULK     pH    NO3    NH4    ORG 
  DEPTH LIMIT LIMIT    SW    SW    SW   DIST   DENS                          C  
   cm   cm3/cm3    cm3/cm3    cm3/cm3         g/cm3         ugN/g  ugN/g     %  
------------------------------------------------------------------------------- 
  0-  5 0.116 0.202 0.414 0.086 0.176   1.00   1.47   6.00  15.00   1.50   1.10 
  5- 15 0.116 0.202 0.414 0.086 0.176   1.00   1.47   6.00  15.00   1.50   1.10 
 15- 30 0.118 0.205 0.410 0.087 0.178   0.48   1.49   6.00   8.41   1.50   0.84 
 30- 45 0.139 0.224 0.402 0.084 0.206   0.27   1.51   6.00   4.93   1.50   0.67 
 45- 60 0.182 0.261 0.387 0.079 0.261   0.00   1.56   6.00   0.00   1.50   0.40 
 60- 80 0.176 0.248 0.378 0.072 0.248   0.00   1.59   6.00   0.00   1.50   0.20 
 80-100 0.156 0.228 0.374 0.072 0.228   0.00   1.60   6.00   0.00   1.50   0.14 
                                                                                
TOT-100  15.0  22.9  39.2   7.9  21.8  <--cm   -  kg/ha-->   63.0   23.1  78401 
SOIL ALBEDO    : 0.13      EVAPORATION LIMIT : 6.00         MIN. FACTOR  : 1.00 
RUNOFF CURVE # :10.00      DRAINAGE RATE     : 0.60         FERT. FACTOR : 1.00 
                                                                                
 MAIZE      CULTIVAR :UY0370-CMEDIO UY          ECOTYPE :IB0001                 
 P1     : 280.00  P2     : 0.0000  P5     : 750.00                              
 G2     : 800.00  G3     :  7.500  PHINT  : 38.900                              
                                                                                
                                                                                
                                                                                
*SIMULATED CROP AND SOIL STATUS AT MAIN DEVELOPMENT STAGES

 RUN NO.     2     UYMZ                    

        CROP GROWTH   BIOMASS         LEAF   CROP N     STRESS  
   DATE  AGE STAGE      kg/ha    LAI   NUM  kg/ha  %   H2O    N 
 ------  --- ---------- -----  -----  ----  ---  ---  ----  ----
  2 JUL    0 Start Sim      0   0.00   0.0    0  0.0  0.00  0.00
  5 JUL    0 Sowing         0   0.00   0.0    0  0.0  0.00  0.00
  6 JUL    1 Germinate      0   0.00   0.0    0  0.0  0.00  0.00
 23 JUL   18 Emergence     28   0.00   1.9    1  4.4  0.00  0.00
 22 SEP   79 End Juveni   335   0.31   9.6   13  3.8  0.00  0.00
 26 SEP   83 Floral Ini   472   0.50  10.4   17  3.7  0.00  0.01
 26 NOV  144 75% Silkin  5218   1.19  22.0   47  0.9  0.00  0.21
  9 DEC  157 Beg Gr Fil  6193   0.84  22.0   48  0.8  0.00  0.26
 17 JAN  196 End Gr Fil  8659   0.24  22.0   51  0.6  0.00  0.37
 19 JAN  198 Maturity    8659   0.24  22.0   51  0.6  0.00  0.47
 19 JAN  198 Harvest     8659   0.24  22.0   51  0.6  0.00  0.00


*MAIN GROWTH AND DEVELOPMENT VARIABLES

@     VARIABLE                          SIMULATED     MEASURED
      --------                          ---------     --------
      Anthesis day (dap)                      144          -99
      Physiological maturity day (dap)        198          -99
      Yield at harvest maturity (kg [dm]/    2877          -99
      Number at maturity (no/m2)             1120          -99
      Unit wt at maturity (g [dm]/unit)    0.2570          -99
      Number at maturity (no/unit)          159.9          -99
      Tops weight at maturity (kg [dm]/ha    8659          -99
      By-product produced (stalk) at matu    5844          -99
      Leaf area index, maximum               2.02          -99
      Harvest index at maturity             0.332          -99
      Grain N at maturity (kg/ha)              25          -99
      Tops N at maturity (kg/ha)               51          -99
      Stem N at maturity (kg/ha)               26          -99
      Grain N at maturity (%)                 0.9          -99
      Tops weight at anthesis (kg [dm]/ha    5202          -99
      Tops N at anthesis (kg/ha)               46          -99
      Leaf number per stem at maturity      22.01          -99


*ENVIRONMENTAL AND STRESS FACTORS

 |-----Development Phase------|-------------Environment--------------|---------Stress----------|
                              |--------Average-------|---Cumulative--|  (0=Min, 1=Max Stress)  |
                         Time  Temp  Temp Solar Photop         Evapo |----Water---|--Nitrogen--|
                         Span   Max   Min   Rad  [day]   Rain  Trans  Photo         Photo
                         days    øC    øC MJ/m2     hr     mm     mm  synth Growth  synth Growth
------------------------------------------------------------------------------------------------
 Emergence-End Juvenile    61  17.0   7.0  11.7  11.01  230.6   86.0  0.000  0.000  0.003  0.001
 End Juvenil-Floral Init    4  22.5   6.6  18.9  12.10    0.0    3.8  0.000  0.000  0.000  0.000
 Floral Init-End Lf Grow   61  22.3  10.9  19.4  13.15  194.7  232.0  0.000  0.000  0.372  0.200
 End Lf Grth-Beg Grn Fil   13  27.9  14.5  21.2  14.06   14.8   58.2  0.000  0.000  0.555  0.277
 Grain Filling Phase       39  27.9  15.4  21.9  14.14  187.8  119.9  0.000  0.000  0.637  0.364

                     Maize YIELD :     2877 kg/ha    [Dry weight] 

************************************************************************************************

*DSSAT Cropping System Model Ver. 4.0.2.000               Aug 01, 2016; 15:14:26
                                                                                
*RUN   3        : UYMZ                                                          
 MODEL          : MZCER040 - MAIZE                                              
 EXPERIMENT     : UYMZ0103 SN late to create DSS                                
 TREATMENT  1   : UYMZ                                                          
                                                                                
 CROP           : MAIZE          CULTIVAR : CMEDIO UY        ECOTYPE :IB0001    
 STARTING DATE  : JUL  3 1975                                                   
 PLANTING DATE  : JUL  6 1975    PLANTS/m2 :  7.0     ROW SPACING :  15.cm      
 WEATHER        : UYTT   1975                                                   
 SOIL           : UYSS1N1706     TEXTURE : SL    -  N17-06    SNIA SANDY WES    
 SOIL INITIAL C : DEPTH:100cm EXTR. H2O: 79.2mm  NO3: 63.0kg/ha  NH4: 23.1kg/ha 
 WATER BALANCE  : AUTOMATIC IRRIGATION - REFILL PROFILE                         
 IRRIGATION     : AUTOMATIC - PLANTING -> MATURITY [ SOIL DEPTH:30.00m 50.%]    
 NITROGEN BAL.  : SOIL-N & N-UPTAKE SIMULATION; NO N-FIXATION                   
 N-FERTILIZER   :       55 kg/ha IN     3 APPLICATIONS                          
 RESIDUE/MANURE : INITIAL :     0 kg/ha ;       0 kg/ha IN     0 APPLICATIONS   
 ENVIRONM. OPT. : DAYL=    0.00  SRAD=    0.00  TMAX=    0.00  TMIN=    0.00    
                  RAIN=    0.00  CO2 = R330.00  DEW =    0.00  WIND=    0.00    
 SIMULATION OPT : WATER   :Y  NITROGEN:Y  N-FIX:N  PHOSPH :N  PESTS  :N         
                  PHOTO   :C  ET      :R  INFIL:S  HYDROL :R  SOM    :G         
 MANAGEMENT OPT : PLANTING:R  IRRIG   :A  FERT :D  RESIDUE:N  HARVEST:M  WTH:M  
                                                                                
*SUMMARY OF SOIL AND GENETIC INPUT PARAMETERS                                   
                                                                                
   SOIL LOWER UPPER   SAT  EXTR  INIT   ROOT   BULK     pH    NO3    NH4    ORG 
  DEPTH LIMIT LIMIT    SW    SW    SW   DIST   DENS                          C  
   cm   cm3/cm3    cm3/cm3    cm3/cm3         g/cm3         ugN/g  ugN/g     %  
------------------------------------------------------------------------------- 
  0-  5 0.116 0.202 0.414 0.086 0.176   1.00   1.47   6.00  15.00   1.50   1.10 
  5- 15 0.116 0.202 0.414 0.086 0.176   1.00   1.47   6.00  15.00   1.50   1.10 
 15- 30 0.118 0.205 0.410 0.087 0.178   0.48   1.49   6.00   8.41   1.50   0.84 
 30- 45 0.139 0.224 0.402 0.084 0.206   0.27   1.51   6.00   4.93   1.50   0.67 
 45- 60 0.182 0.261 0.387 0.079 0.261   0.00   1.56   6.00   0.00   1.50   0.40 
 60- 80 0.176 0.248 0.378 0.072 0.248   0.00   1.59   6.00   0.00   1.50   0.20 
 80-100 0.156 0.228 0.374 0.072 0.228   0.00   1.60   6.00   0.00   1.50   0.14 
                                                                                
TOT-100  15.0  22.9  39.2   7.9  21.8  <--cm   -  kg/ha-->   63.0   23.1  78401 
SOIL ALBEDO    : 0.13      EVAPORATION LIMIT : 6.00         MIN. FACTOR  : 1.00 
RUNOFF CURVE # :10.00      DRAINAGE RATE     : 0.60         FERT. FACTOR : 1.00 
                                                                                
 MAIZE      CULTIVAR :UY0370-CMEDIO UY          ECOTYPE :IB0001                 
 P1     : 280.00  P2     : 0.0000  P5     : 750.00                              
 G2     : 800.00  G3     :  7.500  PHINT  : 38.900                              
                                                                                
                                                                                
                                                                                
*SIMULATED CROP AND SOIL STATUS AT MAIN DEVELOPMENT STAGES

 RUN NO.     3     UYMZ                    

        CROP GROWTH   BIOMASS         LEAF   CROP N     STRESS  
   DATE  AGE STAGE      kg/ha    LAI   NUM  kg/ha  %   H2O    N 
 ------  --- ---------- -----  -----  ----  ---  ---  ----  ----
  3 JUL    0 Start Sim      0   0.00   0.0    0  0.0  0.00  0.00
  6 JUL    0 Sowing         0   0.00   0.0    0  0.0  0.00  0.00
  7 JUL    1 Germinate      0   0.00   0.0    0  0.0  0.00  0.00
 22 JUL   16 Emergence     28   0.00   1.8    1  4.4  0.00  0.00
 14 SEP   70 End Juveni   354   0.52   9.6   13  3.6  0.00  0.02
 18 SEP   74 Floral Ini   488   0.72  10.4   18  3.7  0.00  0.01
  9 NOV  126 75% Silkin  4508   1.30  22.0   39  0.9  0.00  0.25
 25 NOV  142 Beg Gr Fil  5468   0.81  22.0   41  0.7  0.00  0.30
  3 JAN  181 End Gr Fil  7786   0.23  22.0   44  0.6  0.00  0.38
  6 JAN  184 Maturity    7786   0.23  22.0   44  0.6  0.00  0.50
  6 JAN  184 Harvest     7786   0.23  22.0   44  0.6  0.00  0.00


*MAIN GROWTH AND DEVELOPMENT VARIABLES

@     VARIABLE                          SIMULATED     MEASURED
      --------                          ---------     --------
      Anthesis day (dap)                      126          -99
      Physiological maturity day (dap)        184          -99
      Yield at harvest maturity (kg [dm]/    2521          -99
      Number at maturity (no/m2)              977          -99
      Unit wt at maturity (g [dm]/unit)    0.2579          -99
      Number at maturity (no/unit)          139.6          -99
      Tops weight at maturity (kg [dm]/ha    7786          -99
      By-product produced (stalk) at matu    5324          -99
      Leaf area index, maximum               2.05          -99
      Harvest index at maturity             0.324          -99
      Grain N at maturity (kg/ha)              22          -99
      Tops N at maturity (kg/ha)               44          -99
      Stem N at maturity (kg/ha)               22          -99
      Grain N at maturity (%)                 0.9          -99
      Tops weight at anthesis (kg [dm]/ha    4491          -99
      Tops N at anthesis (kg/ha)               39          -99
      Leaf number per stem at maturity      21.96          -99


*ENVIRONMENTAL AND STRESS FACTORS

 |-----Development Phase------|-------------Environment--------------|---------Stress----------|
                              |--------Average-------|---Cumulative--|  (0=Min, 1=Max Stress)  |
                         Time  Temp  Temp Solar Photop         Evapo |----Water---|--Nitrogen--|
                         Span   Max   Min   Rad  [day]   Rain  Trans  Photo         Photo
                         days    øC    øC MJ/m2     hr     mm     mm  synth Growth  synth Growth
------------------------------------------------------------------------------------------------
 Emergence-End Juvenile    54  17.8   7.2  10.7  10.84  384.7   62.5  0.000  0.000  0.050  0.020
 End Juvenil-Floral Init    4  18.4  15.0   6.9  11.78   36.5    6.6  0.000  0.000  0.002  0.001
 Floral Init-End Lf Grow   52  23.4  12.6  17.5  12.74  212.3  180.9  0.000  0.000  0.439  0.241
 End Lf Grth-Beg Grn Fil   16  25.9  12.0  22.6  13.75   18.6   71.6  0.000  0.000  0.587  0.311
 Grain Filling Phase       39  28.6  15.0  23.8  14.13  114.5  123.4  0.000  0.000  0.649  0.379

                     Maize YIELD :     2521 kg/ha    [Dry weight] 

************************************************************************************************

*DSSAT Cropping System Model Ver. 4.0.2.000               Aug 01, 2016; 15:14:26
                                                                                
*RUN   4        : UYMZ                                                          
 MODEL          : MZCER040 - MAIZE                                              
 EXPERIMENT     : UYMZ0103 SN late to create DSS                                
 TREATMENT  1   : UYMZ                                                          
                                                                                
 CROP           : MAIZE          CULTIVAR : CMEDIO UY        ECOTYPE :IB0001    
 STARTING DATE  : JUL  3 1975                                                   
 PLANTING DATE  : JUL  6 1975    PLANTS/m2 :  7.0     ROW SPACING :  15.cm      
 WEATHER        : UYTT   1975                                                   
 SOIL           : UYSS1N1706     TEXTURE : SL    -  N17-06    SNIA SANDY WES    
 SOIL INITIAL C : DEPTH:100cm EXTR. H2O: 79.2mm  NO3: 63.0kg/ha  NH4: 23.1kg/ha 
 WATER BALANCE  : AUTOMATIC IRRIGATION - REFILL PROFILE                         
 IRRIGATION     : AUTOMATIC - PLANTING -> MATURITY [ SOIL DEPTH:30.00m 50.%]    
 NITROGEN BAL.  : SOIL-N & N-UPTAKE SIMULATION; NO N-FIXATION                   
 N-FERTILIZER   :       55 kg/ha IN     3 APPLICATIONS                          
 RESIDUE/MANURE : INITIAL :     0 kg/ha ;       0 kg/ha IN     0 APPLICATIONS   
 ENVIRONM. OPT. : DAYL=    0.00  SRAD=    0.00  TMAX=    0.00  TMIN=    0.00    
                  RAIN=    0.00  CO2 = R330.00  DEW =    0.00  WIND=    0.00    
 SIMULATION OPT : WATER   :Y  NITROGEN:Y  N-FIX:N  PHOSPH :N  PESTS  :N         
                  PHOTO   :C  ET      :R  INFIL:S  HYDROL :R  SOM    :G         
 MANAGEMENT OPT : PLANTING:R  IRRIG   :A  FERT :D  RESIDUE:N  HARVEST:M  WTH:M  
                                                                                
*SUMMARY OF SOIL AND GENETIC INPUT PARAMETERS                                   
                                                                                
   SOIL LOWER UPPER   SAT  EXTR  INIT   ROOT   BULK     pH    NO3    NH4    ORG 
  DEPTH LIMIT LIMIT    SW    SW    SW   DIST   DENS                          C  
   cm   cm3/cm3    cm3/cm3    cm3/cm3         g/cm3         ugN/g  ugN/g     %  
------------------------------------------------------------------------------- 
  0-  5 0.116 0.202 0.414 0.086 0.176   1.00   1.47   6.00  15.00   1.50   1.10 
  5- 15 0.116 0.202 0.414 0.086 0.176   1.00   1.47   6.00  15.00   1.50   1.10 
 15- 30 0.118 0.205 0.410 0.087 0.178   0.48   1.49   6.00   8.41   1.50   0.84 
 30- 45 0.139 0.224 0.402 0.084 0.206   0.27   1.51   6.00   4.93   1.50   0.67 
 45- 60 0.182 0.261 0.387 0.079 0.261   0.00   1.56   6.00   0.00   1.50   0.40 
 60- 80 0.176 0.248 0.378 0.072 0.248   0.00   1.59   6.00   0.00   1.50   0.20 
 80-100 0.156 0.228 0.374 0.072 0.228   0.00   1.60   6.00   0.00   1.50   0.14 
                                                                                
TOT-100  15.0  22.9  39.2   7.9  21.8  <--cm   -  kg/ha-->   63.0   23.1  78401 
SOIL ALBEDO    : 0.13      EVAPORATION LIMIT : 6.00         MIN. FACTOR  : 1.00 
RUNOFF CURVE # :10.00      DRAINAGE RATE     : 0.60         FERT. FACTOR : 1.00 
                                                                                
 MAIZE      CULTIVAR :UY0370-CMEDIO UY          ECOTYPE :IB0001                 
 P1     : 280.00  P2     : 0.0000  P5     : 750.00                              
 G2     : 800.00  G3     :  7.500  PHINT  : 38.900                              
                                                                                
                                                                                
                                                                                
*SIMULATED CROP AND SOIL STATUS AT MAIN DEVELOPMENT STAGES

 RUN NO.     4     UYMZ                    

        CROP GROWTH   BIOMASS         LEAF   CROP N     STRESS  
   DATE  AGE STAGE      kg/ha    LAI   NUM  kg/ha  %   H2O    N 
 ------  --- ---------- -----  -----  ----  ---  ---  ----  ----
  3 JUL    0 Start Sim      0   0.00   0.0    0  0.0  0.00  0.00
  6 JUL    0 Sowing         0   0.00   0.0    0  0.0  0.00  0.00
  7 JUL    1 Germinate      0   0.00   0.0    0  0.0  0.00  0.00
 15 JUL    9 Emergence     28   0.00   1.8    1  4.4  0.00  0.00
 15 SEP   71 End Juveni   377   0.37   9.7   14  3.7  0.00  0.00
 19 SEP   75 Floral Ini   525   0.57  10.7   19  3.7  0.00  0.01
 16 NOV  133 75% Silkin  5729   1.42  22.5   52  0.9  0.00  0.21
 30 NOV  147 Beg Gr Fil  6676   0.99  22.5   53  0.8  0.00  0.23
  9 JAN  187 End Gr Fil  9778   0.27  22.5   56  0.6  0.00  0.38
 11 JAN  189 Maturity    9778   0.27  22.5   56  0.6  0.00  0.54
 11 JAN  189 Harvest     9778   0.27  22.5   56  0.6  0.00  0.00


*MAIN GROWTH AND DEVELOPMENT VARIABLES

@     VARIABLE                          SIMULATED     MEASURED
      --------                          ---------     --------
      Anthesis day (dap)                      133          -99
      Physiological maturity day (dap)        189          -99
      Yield at harvest maturity (kg [dm]/    3330          -99
      Number at maturity (no/m2)             1252          -99
      Unit wt at maturity (g [dm]/unit)    0.2660          -99
      Number at maturity (no/unit)          178.9          -99
      Tops weight at maturity (kg [dm]/ha    9778          -99
      By-product produced (stalk) at matu    6515          -99
      Leaf area index, maximum               2.49          -99
      Harvest index at maturity             0.341          -99
      Grain N at maturity (kg/ha)              29          -99
      Tops N at maturity (kg/ha)               56          -99
      Stem N at maturity (kg/ha)               28          -99
      Grain N at maturity (%)                 0.9          -99
      Tops weight at anthesis (kg [dm]/ha    5678          -99
      Tops N at anthesis (kg/ha)               52          -99
      Leaf number per stem at maturity      22.50          -99


*ENVIRONMENTAL AND STRESS FACTORS

 |-----Development Phase------|-------------Environment--------------|---------Stress----------|
                              |--------Average-------|---Cumulative--|  (0=Min, 1=Max Stress)  |
                         Time  Temp  Temp Solar Photop         Evapo |----Water---|--Nitrogen--|
                         Span   Max   Min   Rad  [day]   Rain  Trans  Photo         Photo
                         days    øC    øC MJ/m2     hr     mm     mm  synth Growth  synth Growth
------------------------------------------------------------------------------------------------
 Emergence-End Juvenile    62  17.2   7.0  10.3  10.76  206.0   77.1  0.000  0.000  0.002  0.001
 End Juvenil-Floral Init    4  21.2   7.0  14.6  11.82   10.1   10.0  0.000  0.000  0.001  0.000
 Floral Init-End Lf Grow   58  22.5  12.2  17.1  12.86  201.7  203.3  0.000  0.000  0.386  0.200
 End Lf Grth-Beg Grn Fil   14  25.4  13.7  20.3  13.89   88.5   56.7  0.000  0.000  0.521  0.247
 Grain Filling Phase       40  28.0  15.4  24.4  14.15   75.0  135.8  0.000  0.000  0.648  0.378

                     Maize YIELD :     3330 kg/ha    [Dry weight] 

************************************************************************************************

*DSSAT Cropping System Model Ver. 4.0.2.000               Aug 01, 2016; 15:14:26
                                                                                
*RUN   5        : UYMZ                                                          
 MODEL          : MZCER040 - MAIZE                                              
 EXPERIMENT     : UYMZ0103 SN late to create DSS                                
 TREATMENT  1   : UYMZ                                                          
                                                                                
 CROP           : MAIZE          CULTIVAR : CMEDIO UY        ECOTYPE :IB0001    
 STARTING DATE  : JUL  3 1975                                                   
 PLANTING DATE  : JUL  6 1975    PLANTS/m2 :  7.0     ROW SPACING :  15.cm      
 WEATHER        : UYTT   1975                                                   
 SOIL           : UYSS1N1706     TEXTURE : SL    -  N17-06    SNIA SANDY WES    
 SOIL INITIAL C : DEPTH:100cm EXTR. H2O: 79.2mm  NO3: 63.0kg/ha  NH4: 23.1kg/ha 
 WATER BALANCE  : AUTOMATIC IRRIGATION - REFILL PROFILE                         
 IRRIGATION     : AUTOMATIC - PLANTING -> MATURITY [ SOIL DEPTH:30.00m 50.%]    
 NITROGEN BAL.  : SOIL-N & N-UPTAKE SIMULATION; NO N-FIXATION                   
 N-FERTILIZER   :       55 kg/ha IN     3 APPLICATIONS                          
 RESIDUE/MANURE : INITIAL :     0 kg/ha ;       0 kg/ha IN     0 APPLICATIONS   
 ENVIRONM. OPT. : DAYL=    0.00  SRAD=    0.00  TMAX=    0.00  TMIN=    0.00    
                  RAIN=    0.00  CO2 = R330.00  DEW =    0.00  WIND=    0.00    
 SIMULATION OPT : WATER   :Y  NITROGEN:Y  N-FIX:N  PHOSPH :N  PESTS  :N         
                  PHOTO   :C  ET      :R  INFIL:S  HYDROL :R  SOM    :G         
 MANAGEMENT OPT : PLANTING:R  IRRIG   :A  FERT :D  RESIDUE:N  HARVEST:M  WTH:M  
                                                                                
*SUMMARY OF SOIL AND GENETIC INPUT PARAMETERS                                   
                                                                                
   SOIL LOWER UPPER   SAT  EXTR  INIT   ROOT   BULK     pH    NO3    NH4    ORG 
  DEPTH LIMIT LIMIT    SW    SW    SW   DIST   DENS                          C  
   cm   cm3/cm3    cm3/cm3    cm3/cm3         g/cm3         ugN/g  ugN/g     %  
------------------------------------------------------------------------------- 
  0-  5 0.116 0.202 0.414 0.086 0.176   1.00   1.47   6.00  15.00   1.50   1.10 
  5- 15 0.116 0.202 0.414 0.086 0.176   1.00   1.47   6.00  15.00   1.50   1.10 
 15- 30 0.118 0.205 0.410 0.087 0.178   0.48   1.49   6.00   8.41   1.50   0.84 
 30- 45 0.139 0.224 0.402 0.084 0.206   0.27   1.51   6.00   4.93   1.50   0.67 
 45- 60 0.182 0.261 0.387 0.079 0.261   0.00   1.56   6.00   0.00   1.50   0.40 
 60- 80 0.176 0.248 0.378 0.072 0.248   0.00   1.59   6.00   0.00   1.50   0.20 
 80-100 0.156 0.228 0.374 0.072 0.228   0.00   1.60   6.00   0.00   1.50   0.14 
                                                                                
TOT-100  15.0  22.9  39.2   7.9  21.8  <--cm   -  kg/ha-->   63.0   23.1  78401 
SOIL ALBEDO    : 0.13      EVAPORATION LIMIT : 6.00         MIN. FACTOR  : 1.00 
RUNOFF CURVE # :10.00      DRAINAGE RATE     : 0.60         FERT. FACTOR : 1.00 
                                                                                
 MAIZE      CULTIVAR :UY0370-CMEDIO UY          ECOTYPE :IB0001                 
 P1     : 280.00  P2     : 0.0000  P5     : 750.00                              
 G2     : 800.00  G3     :  7.500  PHINT  : 38.900                              
                                                                                
                                                                                
                                                                                
*SIMULATED CROP AND SOIL STATUS AT MAIN DEVELOPMENT STAGES

 RUN NO.     5     UYMZ                    

        CROP GROWTH   BIOMASS         LEAF   CROP N     STRESS  
   DATE  AGE STAGE      kg/ha    LAI   NUM  kg/ha  %   H2O    N 
 ------  --- ---------- -----  -----  ----  ---  ---  ----  ----
  3 JUL    0 Start Sim      0   0.00   0.0    0  0.0  0.00  0.00
  6 JUL    0 Sowing         0   0.00   0.0    0  0.0  0.00  0.00
  7 JUL    1 Germinate      0   0.00   0.0    0  0.0  0.00  0.00
 27 JUL   21 Emergence     28   0.00   2.0    1  4.4  0.00  0.00
  8 SEP   64 End Juveni   331   0.12   9.6   12  3.7  0.00  0.00
 12 SEP   68 Floral Ini   394   0.21  10.6   14  3.7  0.00  0.01
 17 NOV  134 75% Silkin  4737   1.03  22.2   42  0.9  0.00  0.18
  4 DEC  151 Beg Gr Fil  5785   0.66  22.2   44  0.8  0.00  0.25
 13 JAN  191 End Gr Fil  8317   0.19  22.2   49  0.6  0.00  0.36
 15 JAN  193 Maturity    8317   0.19  22.2   49  0.6  0.00  0.47
 15 JAN  193 Harvest     8317   0.19  22.2   49  0.6  0.00  0.00


*MAIN GROWTH AND DEVELOPMENT VARIABLES

@     VARIABLE                          SIMULATED     MEASURED
      --------                          ---------     --------
      Anthesis day (dap)                      134          -99
      Physiological maturity day (dap)        193          -99
      Yield at harvest maturity (kg [dm]/    2875          -99
      Number at maturity (no/m2)             1111          -99
      Unit wt at maturity (g [dm]/unit)    0.2588          -99
      Number at maturity (no/unit)          158.7          -99
      Tops weight at maturity (kg [dm]/ha    8317          -99
      By-product produced (stalk) at matu    5496          -99
      Leaf area index, maximum               1.69          -99
      Harvest index at maturity             0.346          -99
      Grain N at maturity (kg/ha)              25          -99
      Tops N at maturity (kg/ha)               49          -99
      Stem N at maturity (kg/ha)               23          -99
      Grain N at maturity (%)                 0.9          -99
      Tops weight at anthesis (kg [dm]/ha    4715          -99
      Tops N at anthesis (kg/ha)               42          -99
      Leaf number per stem at maturity      22.23          -99


*ENVIRONMENTAL AND STRESS FACTORS

 |-----Development Phase------|-------------Environment--------------|---------Stress----------|
                              |--------Average-------|---Cumulative--|  (0=Min, 1=Max Stress)  |
                         Time  Temp  Temp Solar Photop         Evapo |----Water---|--Nitrogen--|
                         Span   Max   Min   Rad  [day]   Rain  Trans  Photo         Photo
                         days    øC    øC MJ/m2     hr     mm     mm  synth Growth  synth Growth
------------------------------------------------------------------------------------------------
 Emergence-End Juvenile    43  19.7   8.0  10.7  10.81   95.1   49.8  0.000  0.000  0.004  0.001
 End Juvenil-Floral Init    4  20.8  10.4  11.9  11.57    0.0    6.3  0.000  0.000  0.001  0.000
 Floral Init-End Lf Grow   66  21.6  10.2  16.6  12.76  357.1  186.6  0.000  0.000  0.316  0.172
 End Lf Grth-Beg Grn Fil   17  24.1  11.7  22.1  13.93   18.3   65.1  0.000  0.000  0.536  0.262
 Grain Filling Phase       40  28.4  14.6  23.8  14.15   78.0  111.7  0.000  0.000  0.627  0.352

                     Maize YIELD :     2875 kg/ha    [Dry weight] 

************************************************************************************************

*DSSAT Cropping System Model Ver. 4.0.2.000               Aug 01, 2016; 15:14:26
                                                                                
*RUN   6        : UYMZ                                                          
 MODEL          : MZCER040 - MAIZE                                              
 EXPERIMENT     : UYMZ0103 SN late to create DSS                                
 TREATMENT  1   : UYMZ                                                          
                                                                                
 CROP           : MAIZE          CULTIVAR : CMEDIO UY        ECOTYPE :IB0001    
 STARTING DATE  : JUL  3 1975                                                   
 PLANTING DATE  : JUL  6 1975    PLANTS/m2 :  7.0     ROW SPACING :  15.cm      
 WEATHER        : UYTT   1975                                                   
 SOIL           : UYSS1N1706     TEXTURE : SL    -  N17-06    SNIA SANDY WES    
 SOIL INITIAL C : DEPTH:100cm EXTR. H2O: 79.2mm  NO3: 63.0kg/ha  NH4: 23.1kg/ha 
 WATER BALANCE  : AUTOMATIC IRRIGATION - REFILL PROFILE                         
 IRRIGATION     : AUTOMATIC - PLANTING -> MATURITY [ SOIL DEPTH:30.00m 50.%]    
 NITROGEN BAL.  : SOIL-N & N-UPTAKE SIMULATION; NO N-FIXATION                   
 N-FERTILIZER   :       55 kg/ha IN     3 APPLICATIONS                          
 RESIDUE/MANURE : INITIAL :     0 kg/ha ;       0 kg/ha IN     0 APPLICATIONS   
 ENVIRONM. OPT. : DAYL=    0.00  SRAD=    0.00  TMAX=    0.00  TMIN=    0.00    
                  RAIN=    0.00  CO2 = R330.00  DEW =    0.00  WIND=    0.00    
 SIMULATION OPT : WATER   :Y  NITROGEN:Y  N-FIX:N  PHOSPH :N  PESTS  :N         
                  PHOTO   :C  ET      :R  INFIL:S  HYDROL :R  SOM    :G         
 MANAGEMENT OPT : PLANTING:R  IRRIG   :A  FERT :D  RESIDUE:N  HARVEST:M  WTH:M  
                                                                                
*SUMMARY OF SOIL AND GENETIC INPUT PARAMETERS                                   
                                                                                
   SOIL LOWER UPPER   SAT  EXTR  INIT   ROOT   BULK     pH    NO3    NH4    ORG 
  DEPTH LIMIT LIMIT    SW    SW    SW   DIST   DENS                          C  
   cm   cm3/cm3    cm3/cm3    cm3/cm3         g/cm3         ugN/g  ugN/g     %  
------------------------------------------------------------------------------- 
  0-  5 0.116 0.202 0.414 0.086 0.176   1.00   1.47   6.00  15.00   1.50   1.10 
  5- 15 0.116 0.202 0.414 0.086 0.176   1.00   1.47   6.00  15.00   1.50   1.10 
 15- 30 0.118 0.205 0.410 0.087 0.178   0.48   1.49   6.00   8.41   1.50   0.84 
 30- 45 0.139 0.224 0.402 0.084 0.206   0.27   1.51   6.00   4.93   1.50   0.67 
 45- 60 0.182 0.261 0.387 0.079 0.261   0.00   1.56   6.00   0.00   1.50   0.40 
 60- 80 0.176 0.248 0.378 0.072 0.248   0.00   1.59   6.00   0.00   1.50   0.20 
 80-100 0.156 0.228 0.374 0.072 0.228   0.00   1.60   6.00   0.00   1.50   0.14 
                                                                                
TOT-100  15.0  22.9  39.2   7.9  21.8  <--cm   -  kg/ha-->   63.0   23.1  78401 
SOIL ALBEDO    : 0.13      EVAPORATION LIMIT : 6.00         MIN. FACTOR  : 1.00 
RUNOFF CURVE # :10.00      DRAINAGE RATE     : 0.60         FERT. FACTOR : 1.00 
                                                                                
 MAIZE      CULTIVAR :UY0370-CMEDIO UY          ECOTYPE :IB0001                 
 P1     : 280.00  P2     : 0.0000  P5     : 750.00                              
 G2     : 800.00  G3     :  7.500  PHINT  : 38.900                              
                                                                                
                                                                                
                                                                                
*SIMULATED CROP AND SOIL STATUS AT MAIN DEVELOPMENT STAGES

 RUN NO.     6     UYMZ                    

        CROP GROWTH   BIOMASS         LEAF   CROP N     STRESS  
   DATE  AGE STAGE      kg/ha    LAI   NUM  kg/ha  %   H2O    N 
 ------  --- ---------- -----  -----  ----  ---  ---  ----  ----
  2 JUL    0 Start Sim      0   0.00   0.0    0  0.0  0.00  0.00
  5 JUL    0 Sowing         0   0.00   0.0    0  0.0  0.00  0.00
  6 JUL    1 Germinate      0   0.00   0.0    0  0.0  0.00  0.00
 24 JUL   19 Emergence     28   0.00   1.7    1  4.4  0.00  0.00
 24 SEP   81 End Juveni   397   0.17   9.7   16  4.0  0.00  0.00
 28 SEP   85 Floral Ini   490   0.29  10.3   18  3.7  0.00  0.01
 22 NOV  140 75% Silkin  5358   1.25  21.7   48  0.9  0.00  0.19
  5 DEC  153 Beg Gr Fil  6295   0.87  21.7   50  0.8  0.00  0.26
 12 JAN  191 End Gr Fil  8823   0.28  21.7   53  0.6  0.00  0.34
 15 JAN  194 Maturity    8823   0.28  21.7   53  0.6  0.00  0.44
 15 JAN  194 Harvest     8823   0.28  21.7   53  0.6  0.00  0.00


*MAIN GROWTH AND DEVELOPMENT VARIABLES

@     VARIABLE                          SIMULATED     MEASURED
      --------                          ---------     --------
      Anthesis day (dap)                      140          -99
      Physiological maturity day (dap)        194          -99
      Yield at harvest maturity (kg [dm]/    2700          -99
      Number at maturity (no/m2)             1055          -99
      Unit wt at maturity (g [dm]/unit)    0.2559          -99
      Number at maturity (no/unit)          150.7          -99
      Tops weight at maturity (kg [dm]/ha    8823          -99
      By-product produced (stalk) at matu    6186          -99
      Leaf area index, maximum               1.86          -99
      Harvest index at maturity             0.306          -99
      Grain N at maturity (kg/ha)              24          -99
      Tops N at maturity (kg/ha)               53          -99
      Stem N at maturity (kg/ha)               29          -99
      Grain N at maturity (%)                 0.9          -99
      Tops weight at anthesis (kg [dm]/ha    5333          -99
      Tops N at anthesis (kg/ha)               48          -99
      Leaf number per stem at maturity      21.66          -99


*ENVIRONMENTAL AND STRESS FACTORS

 |-----Development Phase------|-------------Environment--------------|---------Stress----------|
                              |--------Average-------|---Cumulative--|  (0=Min, 1=Max Stress)  |
                         Time  Temp  Temp Solar Photop         Evapo |----Water---|--Nitrogen--|
                         Span   Max   Min   Rad  [day]   Rain  Trans  Photo         Photo
                         days    øC    øC MJ/m2     hr     mm     mm  synth Growth  synth Growth
------------------------------------------------------------------------------------------------
 Emergence-End Juvenile    62  18.5   4.7  12.8  11.06  154.2   57.7  0.000  0.000  0.001  0.001
 End Juvenil-Floral Init    4  19.6   2.5  19.5  12.17    0.0    2.2  0.000  0.000  0.001  0.000
 Floral Init-End Lf Grow   55  23.4  11.3  17.5  13.13  182.3  188.5  0.000  0.000  0.345  0.183
 End Lf Grth-Beg Grn Fil   13  25.9  14.7  18.3  14.00   52.2   52.1  0.000  0.000  0.555  0.279
 Grain Filling Phase       38  28.7  15.3  23.8  14.16  138.4  133.1  0.000  0.000  0.612  0.335

                     Maize YIELD :     2700 kg/ha    [Dry weight] 

************************************************************************************************

*DSSAT Cropping System Model Ver. 4.0.2.000               Aug 01, 2016; 15:14:26
                                                                                
*RUN   7        : UYMZ                                                          
 MODEL          : MZCER040 - MAIZE                                              
 EXPERIMENT     : UYMZ0103 SN late to create DSS                                
 TREATMENT  1   : UYMZ                                                          
                                                                                
 CROP           : MAIZE          CULTIVAR : CMEDIO UY        ECOTYPE :IB0001    
 STARTING DATE  : JUL  3 1975                                                   
 PLANTING DATE  : JUL  6 1975    PLANTS/m2 :  7.0     ROW SPACING :  15.cm      
 WEATHER        : UYTT   1975                                                   
 SOIL           : UYSS1N1706     TEXTURE : SL    -  N17-06    SNIA SANDY WES    
 SOIL INITIAL C : DEPTH:100cm EXTR. H2O: 79.2mm  NO3: 63.0kg/ha  NH4: 23.1kg/ha 
 WATER BALANCE  : AUTOMATIC IRRIGATION - REFILL PROFILE                         
 IRRIGATION     : AUTOMATIC - PLANTING -> MATURITY [ SOIL DEPTH:30.00m 50.%]    
 NITROGEN BAL.  : SOIL-N & N-UPTAKE SIMULATION; NO N-FIXATION                   
 N-FERTILIZER   :       55 kg/ha IN     3 APPLICATIONS                          
 RESIDUE/MANURE : INITIAL :     0 kg/ha ;       0 kg/ha IN     0 APPLICATIONS   
 ENVIRONM. OPT. : DAYL=    0.00  SRAD=    0.00  TMAX=    0.00  TMIN=    0.00    
                  RAIN=    0.00  CO2 = R330.00  DEW =    0.00  WIND=    0.00    
 SIMULATION OPT : WATER   :Y  NITROGEN:Y  N-FIX:N  PHOSPH :N  PESTS  :N         
                  PHOTO   :C  ET      :R  INFIL:S  HYDROL :R  SOM    :G         
 MANAGEMENT OPT : PLANTING:R  IRRIG   :A  FERT :D  RESIDUE:N  HARVEST:M  WTH:M  
                                                                                
*SUMMARY OF SOIL AND GENETIC INPUT PARAMETERS                                   
                                                                                
   SOIL LOWER UPPER   SAT  EXTR  INIT   ROOT   BULK     pH    NO3    NH4    ORG 
  DEPTH LIMIT LIMIT    SW    SW    SW   DIST   DENS                          C  
   cm   cm3/cm3    cm3/cm3    cm3/cm3         g/cm3         ugN/g  ugN/g     %  
------------------------------------------------------------------------------- 
  0-  5 0.116 0.202 0.414 0.086 0.176   1.00   1.47   6.00  15.00   1.50   1.10 
  5- 15 0.116 0.202 0.414 0.086 0.176   1.00   1.47   6.00  15.00   1.50   1.10 
 15- 30 0.118 0.205 0.410 0.087 0.178   0.48   1.49   6.00   8.41   1.50   0.84 
 30- 45 0.139 0.224 0.402 0.084 0.206   0.27   1.51   6.00   4.93   1.50   0.67 
 45- 60 0.182 0.261 0.387 0.079 0.261   0.00   1.56   6.00   0.00   1.50   0.40 
 60- 80 0.176 0.248 0.378 0.072 0.248   0.00   1.59   6.00   0.00   1.50   0.20 
 80-100 0.156 0.228 0.374 0.072 0.228   0.00   1.60   6.00   0.00   1.50   0.14 
                                                                                
TOT-100  15.0  22.9  39.2   7.9  21.8  <--cm   -  kg/ha-->   63.0   23.1  78401 
SOIL ALBEDO    : 0.13      EVAPORATION LIMIT : 6.00         MIN. FACTOR  : 1.00 
RUNOFF CURVE # :10.00      DRAINAGE RATE     : 0.60         FERT. FACTOR : 1.00 
                                                                                
 MAIZE      CULTIVAR :UY0370-CMEDIO UY          ECOTYPE :IB0001                 
 P1     : 280.00  P2     : 0.0000  P5     : 750.00                              
 G2     : 800.00  G3     :  7.500  PHINT  : 38.900                              
                                                                                
                                                                                
                                                                                
*SIMULATED CROP AND SOIL STATUS AT MAIN DEVELOPMENT STAGES

 RUN NO.     7     UYMZ                    

        CROP GROWTH   BIOMASS         LEAF   CROP N     STRESS  
   DATE  AGE STAGE      kg/ha    LAI   NUM  kg/ha  %   H2O    N 
 ------  --- ---------- -----  -----  ----  ---  ---  ----  ----
  3 JUL    0 Start Sim      0   0.00   0.0    0  0.0  0.00  0.00
  6 JUL    0 Sowing         0   0.00   0.0    0  0.0  0.00  0.00
  7 JUL    1 Germinate      0   0.00   0.0    0  0.0  0.00  0.00
 15 JUL    9 Emergence     28   0.00   1.8    1  4.4  0.00  0.00
  4 SEP   60 End Juveni   321   0.42   9.6   13  4.0  0.00  0.05
  8 SEP   64 Floral Ini   484   0.66  10.6   18  3.7  0.00  0.01
 14 NOV  131 75% Silkin  4391   0.78  22.1   38  0.9  0.00  0.20
 29 NOV  146 Beg Gr Fil  5318   0.52  22.1   40  0.8  0.00  0.27
 11 JAN  189 End Gr Fil  7509   0.14  22.1   46  0.6  0.00  0.32
 14 JAN  192 Maturity    7509   0.14  22.1   46  0.6  0.00  0.37
 14 JAN  192 Harvest     7509   0.14  22.1   46  0.6  0.00  0.00


*MAIN GROWTH AND DEVELOPMENT VARIABLES

@     VARIABLE                          SIMULATED     MEASURED
      --------                          ---------     --------
      Anthesis day (dap)                      131          -99
      Physiological maturity day (dap)        192          -99
      Yield at harvest maturity (kg [dm]/    2438          -99
      Number at maturity (no/m2)              924          -99
      Unit wt at maturity (g [dm]/unit)    0.2639          -99
      Number at maturity (no/unit)          131.9          -99
      Tops weight at maturity (kg [dm]/ha    7509          -99
      By-product produced (stalk) at matu    5126          -99
      Leaf area index, maximum               1.05          -99
      Harvest index at maturity             0.325          -99
      Grain N at maturity (kg/ha)              23          -99
      Tops N at maturity (kg/ha)               46          -99
      Stem N at maturity (kg/ha)               24          -99
      Grain N at maturity (%)                 0.9          -99
      Tops weight at anthesis (kg [dm]/ha    4343          -99
      Tops N at anthesis (kg/ha)               38          -99
      Leaf number per stem at maturity      22.15          -99


*ENVIRONMENTAL AND STRESS FACTORS

 |-----Development Phase------|-------------Environment--------------|---------Stress----------|
                              |--------Average-------|---Cumulative--|  (0=Min, 1=Max Stress)  |
                         Time  Temp  Temp Solar Photop         Evapo |----Water---|--Nitrogen--|
                         Span   Max   Min   Rad  [day]   Rain  Trans  Photo         Photo
                         days    øC    øC MJ/m2     hr     mm     mm  synth Growth  synth Growth
------------------------------------------------------------------------------------------------
 Emergence-End Juvenile    51  18.4   8.0  10.5  10.59  296.5   59.3  0.000  0.000  0.109  0.049
 End Juvenil-Floral Init    4  18.5   7.9   8.7  11.43   27.3    9.4  0.000  0.000  0.000  0.000
 Floral Init-End Lf Grow   67  21.5   9.9  16.5  12.65  242.3  173.4  0.000  0.000  0.397  0.197
 End Lf Grth-Beg Grn Fil   15  25.5  12.9  22.9  13.85   27.0   49.4  0.000  0.000  0.558  0.281
 Grain Filling Phase       43  27.2  14.1  24.2  14.14   92.9  110.2  0.000  0.000  0.595  0.314

                     Maize YIELD :     2438 kg/ha    [Dry weight] 

************************************************************************************************

*DSSAT Cropping System Model Ver. 4.0.2.000               Aug 01, 2016; 15:14:26
                                                                                
*RUN   8        : UYMZ                                                          
 MODEL          : MZCER040 - MAIZE                                              
 EXPERIMENT     : UYMZ0103 SN late to create DSS                                
 TREATMENT  1   : UYMZ                                                          
                                                                                
 CROP           : MAIZE          CULTIVAR : CMEDIO UY        ECOTYPE :IB0001    
 STARTING DATE  : JUL  3 1975                                                   
 PLANTING DATE  : JUL  6 1975    PLANTS/m2 :  7.0     ROW SPACING :  15.cm      
 WEATHER        : UYTT   1975                                                   
 SOIL           : UYSS1N1706     TEXTURE : SL    -  N17-06    SNIA SANDY WES    
 SOIL INITIAL C : DEPTH:100cm EXTR. H2O: 79.2mm  NO3: 63.0kg/ha  NH4: 23.1kg/ha 
 WATER BALANCE  : AUTOMATIC IRRIGATION - REFILL PROFILE                         
 IRRIGATION     : AUTOMATIC - PLANTING -> MATURITY [ SOIL DEPTH:30.00m 50.%]    
 NITROGEN BAL.  : SOIL-N & N-UPTAKE SIMULATION; NO N-FIXATION                   
 N-FERTILIZER   :       55 kg/ha IN     3 APPLICATIONS                          
 RESIDUE/MANURE : INITIAL :     0 kg/ha ;       0 kg/ha IN     0 APPLICATIONS   
 ENVIRONM. OPT. : DAYL=    0.00  SRAD=    0.00  TMAX=    0.00  TMIN=    0.00    
                  RAIN=    0.00  CO2 = R330.00  DEW =    0.00  WIND=    0.00    
 SIMULATION OPT : WATER   :Y  NITROGEN:Y  N-FIX:N  PHOSPH :N  PESTS  :N         
                  PHOTO   :C  ET      :R  INFIL:S  HYDROL :R  SOM    :G         
 MANAGEMENT OPT : PLANTING:R  IRRIG   :A  FERT :D  RESIDUE:N  HARVEST:M  WTH:M  
                                                                                
*SUMMARY OF SOIL AND GENETIC INPUT PARAMETERS                                   
                                                                                
   SOIL LOWER UPPER   SAT  EXTR  INIT   ROOT   BULK     pH    NO3    NH4    ORG 
  DEPTH LIMIT LIMIT    SW    SW    SW   DIST   DENS                          C  
   cm   cm3/cm3    cm3/cm3    cm3/cm3         g/cm3         ugN/g  ugN/g     %  
------------------------------------------------------------------------------- 
  0-  5 0.116 0.202 0.414 0.086 0.176   1.00   1.47   6.00  15.00   1.50   1.10 
  5- 15 0.116 0.202 0.414 0.086 0.176   1.00   1.47   6.00  15.00   1.50   1.10 
 15- 30 0.118 0.205 0.410 0.087 0.178   0.48   1.49   6.00   8.41   1.50   0.84 
 30- 45 0.139 0.224 0.402 0.084 0.206   0.27   1.51   6.00   4.93   1.50   0.67 
 45- 60 0.182 0.261 0.387 0.079 0.261   0.00   1.56   6.00   0.00   1.50   0.40 
 60- 80 0.176 0.248 0.378 0.072 0.248   0.00   1.59   6.00   0.00   1.50   0.20 
 80-100 0.156 0.228 0.374 0.072 0.228   0.00   1.60   6.00   0.00   1.50   0.14 
                                                                                
TOT-100  15.0  22.9  39.2   7.9  21.8  <--cm   -  kg/ha-->   63.0   23.1  78401 
SOIL ALBEDO    : 0.13      EVAPORATION LIMIT : 6.00         MIN. FACTOR  : 1.00 
RUNOFF CURVE # :10.00      DRAINAGE RATE     : 0.60         FERT. FACTOR : 1.00 
                                                                                
 MAIZE      CULTIVAR :UY0370-CMEDIO UY          ECOTYPE :IB0001                 
 P1     : 280.00  P2     : 0.0000  P5     : 750.00                              
 G2     : 800.00  G3     :  7.500  PHINT  : 38.900                              
                                                                                
                                                                                
                                                                                
*SIMULATED CROP AND SOIL STATUS AT MAIN DEVELOPMENT STAGES

 RUN NO.     8     UYMZ                    

        CROP GROWTH   BIOMASS         LEAF   CROP N     STRESS  
   DATE  AGE STAGE      kg/ha    LAI   NUM  kg/ha  %   H2O    N 
 ------  --- ---------- -----  -----  ----  ---  ---  ----  ----
  3 JUL    0 Start Sim      0   0.00   0.0    0  0.0  0.00  0.00
  6 JUL    0 Sowing         0   0.00   0.0    0  0.0  0.00  0.00
  7 JUL    1 Germinate      0   0.00   0.0    0  0.0  0.00  0.00
 25 JUL   19 Emergence     28   0.00   1.7    1  4.4  0.00  0.00
 11 SEP   67 End Juveni   319   0.51   9.5   12  3.8  0.00  0.00
 15 SEP   71 Floral Ini   500   0.78  10.6   18  3.7  0.00  0.01
 24 NOV  141 75% Silkin  4414   0.79  22.4   38  0.9  0.00  0.28
  8 DEC  155 Beg Gr Fil  5162   0.52  22.4   39  0.8  0.00  0.29
 11 JAN  189 End Gr Fil  7095   0.18  22.4   42  0.6  0.00  0.35
 14 JAN  192 Maturity    7095   0.18  22.4   42  0.6  0.00  0.42
 14 JAN  192 Harvest     7095   0.18  22.4   42  0.6  0.00  0.00


*MAIN GROWTH AND DEVELOPMENT VARIABLES

@     VARIABLE                          SIMULATED     MEASURED
      --------                          ---------     --------
      Anthesis day (dap)                      141          -99
      Physiological maturity day (dap)        192          -99
      Yield at harvest maturity (kg [dm]/    2154          -99
      Number at maturity (no/m2)              870          -99
      Unit wt at maturity (g [dm]/unit)    0.2476          -99
      Number at maturity (no/unit)          124.3          -99
      Tops weight at maturity (kg [dm]/ha    7095          -99
      By-product produced (stalk) at matu    4998          -99
      Leaf area index, maximum               1.73          -99
      Harvest index at maturity             0.304          -99
      Grain N at maturity (kg/ha)              19          -99
      Tops N at maturity (kg/ha)               42          -99
      Stem N at maturity (kg/ha)               23          -99
      Grain N at maturity (%)                 0.9          -99
      Tops weight at anthesis (kg [dm]/ha    4385          -99
      Tops N at anthesis (kg/ha)               38          -99
      Leaf number per stem at maturity      22.43          -99


*ENVIRONMENTAL AND STRESS FACTORS

 |-----Development Phase------|-------------Environment--------------|---------Stress----------|
                              |--------Average-------|---Cumulative--|  (0=Min, 1=Max Stress)  |
                         Time  Temp  Temp Solar Photop         Evapo |----Water---|--Nitrogen--|
                         Span   Max   Min   Rad  [day]   Rain  Trans  Photo         Photo
                         days    øC    øC MJ/m2     hr     mm     mm  synth Growth  synth Growth
------------------------------------------------------------------------------------------------
 Emergence-End Juvenile    48  18.2   7.8  11.1  10.83  123.6   59.9  0.000  0.000  0.002  0.001
 End Juvenil-Floral Init    4  21.7  13.8  11.4  11.67   17.2    8.6  0.000  0.000  0.000  0.000
 Floral Init-End Lf Grow   70  21.4   9.8  18.3  12.91  261.6  246.7  0.000  0.000  0.479  0.272
 End Lf Grth-Beg Grn Fil   14  28.2  13.1  23.0  14.03    9.0   52.3  0.000  0.000  0.587  0.310
 Grain Filling Phase       34  29.9  16.6  23.3  14.16   80.8   93.4  0.000  0.000  0.622  0.346

                     Maize YIELD :     2154 kg/ha    [Dry weight] 

************************************************************************************************

*DSSAT Cropping System Model Ver. 4.0.2.000               Aug 01, 2016; 15:14:26
                                                                                
*RUN   9        : UYMZ                                                          
 MODEL          : MZCER040 - MAIZE                                              
 EXPERIMENT     : UYMZ0103 SN late to create DSS                                
 TREATMENT  1   : UYMZ                                                          
                                                                                
 CROP           : MAIZE          CULTIVAR : CMEDIO UY        ECOTYPE :IB0001    
 STARTING DATE  : JUL  3 1975                                                   
 PLANTING DATE  : JUL  6 1975    PLANTS/m2 :  7.0     ROW SPACING :  15.cm      
 WEATHER        : UYTT   1975                                                   
 SOIL           : UYSS1N1706     TEXTURE : SL    -  N17-06    SNIA SANDY WES    
 SOIL INITIAL C : DEPTH:100cm EXTR. H2O: 79.2mm  NO3: 63.0kg/ha  NH4: 23.1kg/ha 
 WATER BALANCE  : AUTOMATIC IRRIGATION - REFILL PROFILE                         
 IRRIGATION     : AUTOMATIC - PLANTING -> MATURITY [ SOIL DEPTH:30.00m 50.%]    
 NITROGEN BAL.  : SOIL-N & N-UPTAKE SIMULATION; NO N-FIXATION                   
 N-FERTILIZER   :       55 kg/ha IN     3 APPLICATIONS                          
 RESIDUE/MANURE : INITIAL :     0 kg/ha ;       0 kg/ha IN     0 APPLICATIONS   
 ENVIRONM. OPT. : DAYL=    0.00  SRAD=    0.00  TMAX=    0.00  TMIN=    0.00    
                  RAIN=    0.00  CO2 = R330.00  DEW =    0.00  WIND=    0.00    
 SIMULATION OPT : WATER   :Y  NITROGEN:Y  N-FIX:N  PHOSPH :N  PESTS  :N         
                  PHOTO   :C  ET      :R  INFIL:S  HYDROL :R  SOM    :G         
 MANAGEMENT OPT : PLANTING:R  IRRIG   :A  FERT :D  RESIDUE:N  HARVEST:M  WTH:M  
                                                                                
*SUMMARY OF SOIL AND GENETIC INPUT PARAMETERS                                   
                                                                                
   SOIL LOWER UPPER   SAT  EXTR  INIT   ROOT   BULK     pH    NO3    NH4    ORG 
  DEPTH LIMIT LIMIT    SW    SW    SW   DIST   DENS                          C  
   cm   cm3/cm3    cm3/cm3    cm3/cm3         g/cm3         ugN/g  ugN/g     %  
------------------------------------------------------------------------------- 
  0-  5 0.116 0.202 0.414 0.086 0.176   1.00   1.47   6.00  15.00   1.50   1.10 
  5- 15 0.116 0.202 0.414 0.086 0.176   1.00   1.47   6.00  15.00   1.50   1.10 
 15- 30 0.118 0.205 0.410 0.087 0.178   0.48   1.49   6.00   8.41   1.50   0.84 
 30- 45 0.139 0.224 0.402 0.084 0.206   0.27   1.51   6.00   4.93   1.50   0.67 
 45- 60 0.182 0.261 0.387 0.079 0.261   0.00   1.56   6.00   0.00   1.50   0.40 
 60- 80 0.176 0.248 0.378 0.072 0.248   0.00   1.59   6.00   0.00   1.50   0.20 
 80-100 0.156 0.228 0.374 0.072 0.228   0.00   1.60   6.00   0.00   1.50   0.14 
                                                                                
TOT-100  15.0  22.9  39.2   7.9  21.8  <--cm   -  kg/ha-->   63.0   23.1  78401 
SOIL ALBEDO    : 0.13      EVAPORATION LIMIT : 6.00         MIN. FACTOR  : 1.00 
RUNOFF CURVE # :10.00      DRAINAGE RATE     : 0.60         FERT. FACTOR : 1.00 
                                                                                
 MAIZE      CULTIVAR :UY0370-CMEDIO UY          ECOTYPE :IB0001                 
 P1     : 280.00  P2     : 0.0000  P5     : 750.00                              
 G2     : 800.00  G3     :  7.500  PHINT  : 38.900                              
                                                                                
                                                                                
                                                                                
*SIMULATED CROP AND SOIL STATUS AT MAIN DEVELOPMENT STAGES

 RUN NO.     9     UYMZ                    

        CROP GROWTH   BIOMASS         LEAF   CROP N     STRESS  
   DATE  AGE STAGE      kg/ha    LAI   NUM  kg/ha  %   H2O    N 
 ------  --- ---------- -----  -----  ----  ---  ---  ----  ----
  3 JUL    0 Start Sim      0   0.00   0.0    0  0.0  0.00  0.00
  6 JUL    0 Sowing         0   0.00   0.0    0  0.0  0.00  0.00
  7 JUL    1 Germinate      0   0.00   0.0    0  0.0  0.00  0.00
  7 AUG   32 Emergence     28   0.00   1.7    1  4.4  0.00  0.00
  2 OCT   88 End Juveni   308   0.37   9.7   12  3.8  0.00  0.00
  6 OCT   92 Floral Ini   518   0.68  10.9   14  2.7  0.00  0.01
 28 NOV  145 75% Silkin  3332   0.65  23.0   27  0.8  0.00  0.38
 10 DEC  157 Beg Gr Fil  4070   0.44  23.0   29  0.7  0.00  0.37
 14 JAN  192 End Gr Fil  5403   0.15  23.0   32  0.6  0.00  0.35
 17 JAN  195 Maturity    5403   0.15  23.0   32  0.6  0.00  0.38
 17 JAN  195 Harvest     5403   0.15  23.0   32  0.6  0.00  0.00


*MAIN GROWTH AND DEVELOPMENT VARIABLES

@     VARIABLE                          SIMULATED     MEASURED
      --------                          ---------     --------
      Anthesis day (dap)                      145          -99
      Physiological maturity day (dap)        195          -99
      Yield at harvest maturity (kg [dm]/    1603          -99
      Number at maturity (no/m2)              618          -99
      Unit wt at maturity (g [dm]/unit)    0.2593          -99
      Number at maturity (no/unit)           88.3          -99
      Tops weight at maturity (kg [dm]/ha    5403          -99
      By-product produced (stalk) at matu    3849          -99
      Leaf area index, maximum               1.49          -99
      Harvest index at maturity             0.297          -99
      Grain N at maturity (kg/ha)              14          -99
      Tops N at maturity (kg/ha)               32          -99
      Stem N at maturity (kg/ha)               18          -99
      Grain N at maturity (%)                 0.9          -99
      Tops weight at anthesis (kg [dm]/ha    3319          -99
      Tops N at anthesis (kg/ha)               27          -99
      Leaf number per stem at maturity      23.04          -99


*ENVIRONMENTAL AND STRESS FACTORS

 |-----Development Phase------|-------------Environment--------------|---------Stress----------|
                              |--------Average-------|---Cumulative--|  (0=Min, 1=Max Stress)  |
                         Time  Temp  Temp Solar Photop         Evapo |----Water---|--Nitrogen--|
                         Span   Max   Min   Rad  [day]   Rain  Trans  Photo         Photo
                         days    øC    øC MJ/m2     hr     mm     mm  synth Growth  synth Growth
------------------------------------------------------------------------------------------------
 Emergence-End Juvenile    56  17.7   6.8  12.2  11.38  296.1   59.6  0.000  0.000  0.003  0.001
 End Juvenil-Floral Init    4  23.2   7.5  21.3  12.41    0.0    7.0  0.000  0.000  0.014  0.005
 Floral Init-End Lf Grow   53  23.1  13.8  18.1  13.31  437.0  179.0  0.000  0.000  0.588  0.368
 End Lf Grth-Beg Grn Fil   12  28.1  15.1  26.3  14.07   31.0   45.0  0.000  0.000  0.664  0.397
 Grain Filling Phase       35  28.6  18.2  20.9  14.15  196.6  101.2  0.000  0.000  0.624  0.349

                     Maize YIELD :     1603 kg/ha    [Dry weight] 

************************************************************************************************

*DSSAT Cropping System Model Ver. 4.0.2.000               Aug 01, 2016; 15:14:26
                                                                                
*RUN  10        : UYMZ                                                          
 MODEL          : MZCER040 - MAIZE                                              
 EXPERIMENT     : UYMZ0103 SN late to create DSS                                
 TREATMENT  1   : UYMZ                                                          
                                                                                
 CROP           : MAIZE          CULTIVAR : CMEDIO UY        ECOTYPE :IB0001    
 STARTING DATE  : JUL  3 1975                                                   
 PLANTING DATE  : JUL  6 1975    PLANTS/m2 :  7.0     ROW SPACING :  15.cm      
 WEATHER        : UYTT   1975                                                   
 SOIL           : UYSS1N1706     TEXTURE : SL    -  N17-06    SNIA SANDY WES    
 SOIL INITIAL C : DEPTH:100cm EXTR. H2O: 79.2mm  NO3: 63.0kg/ha  NH4: 23.1kg/ha 
 WATER BALANCE  : AUTOMATIC IRRIGATION - REFILL PROFILE                         
 IRRIGATION     : AUTOMATIC - PLANTING -> MATURITY [ SOIL DEPTH:30.00m 50.%]    
 NITROGEN BAL.  : SOIL-N & N-UPTAKE SIMULATION; NO N-FIXATION                   
 N-FERTILIZER   :       55 kg/ha IN     3 APPLICATIONS                          
 RESIDUE/MANURE : INITIAL :     0 kg/ha ;       0 kg/ha IN     0 APPLICATIONS   
 ENVIRONM. OPT. : DAYL=    0.00  SRAD=    0.00  TMAX=    0.00  TMIN=    0.00    
                  RAIN=    0.00  CO2 = R330.00  DEW =    0.00  WIND=    0.00    
 SIMULATION OPT : WATER   :Y  NITROGEN:Y  N-FIX:N  PHOSPH :N  PESTS  :N         
                  PHOTO   :C  ET      :R  INFIL:S  HYDROL :R  SOM    :G         
 MANAGEMENT OPT : PLANTING:R  IRRIG   :A  FERT :D  RESIDUE:N  HARVEST:M  WTH:M  
                                                                                
*SUMMARY OF SOIL AND GENETIC INPUT PARAMETERS                                   
                                                                                
   SOIL LOWER UPPER   SAT  EXTR  INIT   ROOT   BULK     pH    NO3    NH4    ORG 
  DEPTH LIMIT LIMIT    SW    SW    SW   DIST   DENS                          C  
   cm   cm3/cm3    cm3/cm3    cm3/cm3         g/cm3         ugN/g  ugN/g     %  
------------------------------------------------------------------------------- 
  0-  5 0.116 0.202 0.414 0.086 0.176   1.00   1.47   6.00  15.00   1.50   1.10 
  5- 15 0.116 0.202 0.414 0.086 0.176   1.00   1.47   6.00  15.00   1.50   1.10 
 15- 30 0.118 0.205 0.410 0.087 0.178   0.48   1.49   6.00   8.41   1.50   0.84 
 30- 45 0.139 0.224 0.402 0.084 0.206   0.27   1.51   6.00   4.93   1.50   0.67 
 45- 60 0.182 0.261 0.387 0.079 0.261   0.00   1.56   6.00   0.00   1.50   0.40 
 60- 80 0.176 0.248 0.378 0.072 0.248   0.00   1.59   6.00   0.00   1.50   0.20 
 80-100 0.156 0.228 0.374 0.072 0.228   0.00   1.60   6.00   0.00   1.50   0.14 
                                                                                
TOT-100  15.0  22.9  39.2   7.9  21.8  <--cm   -  kg/ha-->   63.0   23.1  78401 
SOIL ALBEDO    : 0.13      EVAPORATION LIMIT : 6.00         MIN. FACTOR  : 1.00 
RUNOFF CURVE # :10.00      DRAINAGE RATE     : 0.60         FERT. FACTOR : 1.00 
                                                                                
 MAIZE      CULTIVAR :UY0370-CMEDIO UY          ECOTYPE :IB0001                 
 P1     : 280.00  P2     : 0.0000  P5     : 750.00                              
 G2     : 800.00  G3     :  7.500  PHINT  : 38.900                              
                                                                                
                                                                                
                                                                                
*SIMULATED CROP AND SOIL STATUS AT MAIN DEVELOPMENT STAGES

 RUN NO.    10     UYMZ                    

        CROP GROWTH   BIOMASS         LEAF   CROP N     STRESS  
   DATE  AGE STAGE      kg/ha    LAI   NUM  kg/ha  %   H2O    N 
 ------  --- ---------- -----  -----  ----  ---  ---  ----  ----
  2 JUL    0 Start Sim      0   0.00   0.0    0  0.0  0.00  0.00
  5 JUL    0 Sowing         0   0.00   0.0    0  0.0  0.00  0.00
  6 JUL    1 Germinate      0   0.00   0.0    0  0.0  0.00  0.00
 31 JUL   26 Emergence     28   0.00   1.8    1  4.4  0.00  0.00
 30 SEP   87 End Juveni   333   0.49   9.7   13  3.8  0.00  0.00
  4 OCT   91 Floral Ini   501   0.74  10.7   18  3.7  0.00  0.01
 30 NOV  148 75% Silkin  5299   1.41  22.3   47  0.9  0.00  0.20
 15 DEC  163 Beg Gr Fil  6259   0.94  22.3   49  0.8  0.00  0.25
 27 JAN  206 End Gr Fil  9038   0.24  22.3   52  0.6  0.00  0.37
 30 JAN  209 Maturity    9038   0.24  22.3   52  0.6  0.00  0.54
 30 JAN  209 Harvest     9038   0.24  22.3   52  0.6  0.00  0.00


*MAIN GROWTH AND DEVELOPMENT VARIABLES

@     VARIABLE                          SIMULATED     MEASURED
      --------                          ---------     --------
      Anthesis day (dap)                      148          -99
      Physiological maturity day (dap)        209          -99
      Yield at harvest maturity (kg [dm]/    3095          -99
      Number at maturity (no/m2)             1203          -99
      Unit wt at maturity (g [dm]/unit)    0.2573          -99
      Number at maturity (no/unit)          171.8          -99
      Tops weight at maturity (kg [dm]/ha    9038          -99
      By-product produced (stalk) at matu    6007          -99
      Leaf area index, maximum               2.30          -99
      Harvest index at maturity             0.342          -99
      Grain N at maturity (kg/ha)              27          -99
      Tops N at maturity (kg/ha)               52          -99
      Stem N at maturity (kg/ha)               25          -99
      Grain N at maturity (%)                 0.9          -99
      Tops weight at anthesis (kg [dm]/ha    5241          -99
      Tops N at anthesis (kg/ha)               47          -99
      Leaf number per stem at maturity      22.32          -99


*ENVIRONMENTAL AND STRESS FACTORS

 |-----Development Phase------|-------------Environment--------------|---------Stress----------|
                              |--------Average-------|---Cumulative--|  (0=Min, 1=Max Stress)  |
                         Time  Temp  Temp Solar Photop         Evapo |----Water---|--Nitrogen--|
                         Span   Max   Min   Rad  [day]   Rain  Trans  Photo         Photo
                         days    øC    øC MJ/m2     hr     mm     mm  synth Growth  synth Growth
------------------------------------------------------------------------------------------------
 Emergence-End Juvenile    61  17.0   6.6  11.5  11.27  139.6   72.9  0.000  0.000  0.001  0.001
 End Juvenil-Floral Init    4  23.1  11.4  19.1  12.38    1.2    9.7  0.000  0.000  0.001  0.000
 Floral Init-End Lf Grow   57  23.3  11.0  20.1  13.33  134.8  228.3  0.000  0.000  0.368  0.193
 End Lf Grth-Beg Grn Fil   15  27.0  11.8  23.7  14.12   31.1   77.0  0.000  0.000  0.542  0.266
 Grain Filling Phase       43  28.5  12.9  26.2  14.07   52.9  163.4  0.000  0.000  0.638  0.365

                     Maize YIELD :     3095 kg/ha    [Dry weight] 

************************************************************************************************

*DSSAT Cropping System Model Ver. 4.0.2.000               Aug 01, 2016; 15:14:26
                                                                                
*RUN  11        : UYMZ                                                          
 MODEL          : MZCER040 - MAIZE                                              
 EXPERIMENT     : UYMZ0103 SN late to create DSS                                
 TREATMENT  1   : UYMZ                                                          
                                                                                
 CROP           : MAIZE          CULTIVAR : CMEDIO UY        ECOTYPE :IB0001    
 STARTING DATE  : JUL  3 1975                                                   
 PLANTING DATE  : JUL  6 1975    PLANTS/m2 :  7.0     ROW SPACING :  15.cm      
 WEATHER        : UYTT   1975                                                   
 SOIL           : UYSS1N1706     TEXTURE : SL    -  N17-06    SNIA SANDY WES    
 SOIL INITIAL C : DEPTH:100cm EXTR. H2O: 79.2mm  NO3: 63.0kg/ha  NH4: 23.1kg/ha 
 WATER BALANCE  : AUTOMATIC IRRIGATION - REFILL PROFILE                         
 IRRIGATION     : AUTOMATIC - PLANTING -> MATURITY [ SOIL DEPTH:30.00m 50.%]    
 NITROGEN BAL.  : SOIL-N & N-UPTAKE SIMULATION; NO N-FIXATION                   
 N-FERTILIZER   :       55 kg/ha IN     3 APPLICATIONS                          
 RESIDUE/MANURE : INITIAL :     0 kg/ha ;       0 kg/ha IN     0 APPLICATIONS   
 ENVIRONM. OPT. : DAYL=    0.00  SRAD=    0.00  TMAX=    0.00  TMIN=    0.00    
                  RAIN=    0.00  CO2 = R330.00  DEW =    0.00  WIND=    0.00    
 SIMULATION OPT : WATER   :Y  NITROGEN:Y  N-FIX:N  PHOSPH :N  PESTS  :N         
                  PHOTO   :C  ET      :R  INFIL:S  HYDROL :R  SOM    :G         
 MANAGEMENT OPT : PLANTING:R  IRRIG   :A  FERT :D  RESIDUE:N  HARVEST:M  WTH:M  
                                                                                
*SUMMARY OF SOIL AND GENETIC INPUT PARAMETERS                                   
                                                                                
   SOIL LOWER UPPER   SAT  EXTR  INIT   ROOT   BULK     pH    NO3    NH4    ORG 
  DEPTH LIMIT LIMIT    SW    SW    SW   DIST   DENS                          C  
   cm   cm3/cm3    cm3/cm3    cm3/cm3         g/cm3         ugN/g  ugN/g     %  
------------------------------------------------------------------------------- 
  0-  5 0.116 0.202 0.414 0.086 0.176   1.00   1.47   6.00  15.00   1.50   1.10 
  5- 15 0.116 0.202 0.414 0.086 0.176   1.00   1.47   6.00  15.00   1.50   1.10 
 15- 30 0.118 0.205 0.410 0.087 0.178   0.48   1.49   6.00   8.41   1.50   0.84 
 30- 45 0.139 0.224 0.402 0.084 0.206   0.27   1.51   6.00   4.93   1.50   0.67 
 45- 60 0.182 0.261 0.387 0.079 0.261   0.00   1.56   6.00   0.00   1.50   0.40 
 60- 80 0.176 0.248 0.378 0.072 0.248   0.00   1.59   6.00   0.00   1.50   0.20 
 80-100 0.156 0.228 0.374 0.072 0.228   0.00   1.60   6.00   0.00   1.50   0.14 
                                                                                
TOT-100  15.0  22.9  39.2   7.9  21.8  <--cm   -  kg/ha-->   63.0   23.1  78401 
SOIL ALBEDO    : 0.13      EVAPORATION LIMIT : 6.00         MIN. FACTOR  : 1.00 
RUNOFF CURVE # :10.00      DRAINAGE RATE     : 0.60         FERT. FACTOR : 1.00 
                                                                                
 MAIZE      CULTIVAR :UY0370-CMEDIO UY          ECOTYPE :IB0001                 
 P1     : 280.00  P2     : 0.0000  P5     : 750.00                              
 G2     : 800.00  G3     :  7.500  PHINT  : 38.900                              
                                                                                
                                                                                
                                                                                
*SIMULATED CROP AND SOIL STATUS AT MAIN DEVELOPMENT STAGES

 RUN NO.    11     UYMZ                    

        CROP GROWTH   BIOMASS         LEAF   CROP N     STRESS  
   DATE  AGE STAGE      kg/ha    LAI   NUM  kg/ha  %   H2O    N 
 ------  --- ---------- -----  -----  ----  ---  ---  ----  ----
  3 JUL    0 Start Sim      0   0.00   0.0    0  0.0  0.00  0.00
  6 JUL    0 Sowing         0   0.00   0.0    0  0.0  0.00  0.00
  7 JUL    1 Germinate      0   0.00   0.0    0  0.0  0.00  0.00
 21 JUL   15 Emergence     28   0.00   1.7    1  4.4  0.00  0.00
  9 SEP   65 End Juveni   320   0.33   9.6   12  3.7  0.00  0.00
 13 SEP   69 Floral Ini   430   0.50  10.4   16  3.7  0.00  0.01
 12 NOV  129 75% Silkin  4848   1.24  21.9   43  0.9  0.00  0.21
 25 NOV  142 Beg Gr Fil  5861   0.86  21.9   44  0.8  0.00  0.28
  6 JAN  184 End Gr Fil  8278   0.23  21.9   49  0.6  0.00  0.35
  8 JAN  186 Maturity    8278   0.23  21.9   49  0.6  0.00  0.46
  8 JAN  186 Harvest     8278   0.23  21.9   49  0.6  0.00  0.00


*MAIN GROWTH AND DEVELOPMENT VARIABLES

@     VARIABLE                          SIMULATED     MEASURED
      --------                          ---------     --------
      Anthesis day (dap)                      129          -99
      Physiological maturity day (dap)        186          -99
      Yield at harvest maturity (kg [dm]/    2619          -99
      Number at maturity (no/m2)              990          -99
      Unit wt at maturity (g [dm]/unit)    0.2644          -99
      Number at maturity (no/unit)          141.5          -99
      Tops weight at maturity (kg [dm]/ha    8278          -99
      By-product produced (stalk) at matu    5721          -99
      Leaf area index, maximum               1.94          -99
      Harvest index at maturity             0.316          -99
      Grain N at maturity (kg/ha)              23          -99
      Tops N at maturity (kg/ha)               49          -99
      Stem N at maturity (kg/ha)               25          -99
[...]
   cm   cm3/cm3    cm3/cm3    cm3/cm3         g/cm3         ugN/g  ugN/g     %  
------------------------------------------------------------------------------- 
  0-  5 0.116 0.202 0.414 0.086 0.176   1.00   1.47   6.00  15.00   1.50   1.10 
  5- 15 0.116 0.202 0.414 0.086 0.176   1.00   1.47   6.00  15.00   1.50   1.10 
 15- 30 0.118 0.205 0.410 0.087 0.178   0.48   1.49   6.00   8.41   1.50   0.84 
 30- 45 0.139 0.224 0.402 0.084 0.206   0.27   1.51   6.00   4.93   1.50   0.67 
 45- 60 0.182 0.261 0.387 0.079 0.261   0.00   1.56   6.00   0.00   1.50   0.40 
 60- 80 0.176 0.248 0.378 0.072 0.248   0.00   1.59   6.00   0.00   1.50   0.20 
 80-100 0.156 0.228 0.374 0.072 0.228   0.00   1.60   6.00   0.00   1.50   0.14 
                                                                                
TOT-100  15.0  22.9  39.2   7.9  21.8  <--cm   -  kg/ha-->   63.0   23.1  78401 
SOIL ALBEDO    : 0.13      EVAPORATION LIMIT : 6.00         MIN. FACTOR  : 1.00 
RUNOFF CURVE # :10.00      DRAINAGE RATE     : 0.60         FERT. FACTOR : 1.00 
                                                                                
 MAIZE      CULTIVAR :UY0370-CMEDIO UY          ECOTYPE :IB0001                 
 P1     : 280.00  P2     : 0.0000  P5     : 750.00                              
 G2     : 800.00  G3     :  7.500  PHINT  : 38.900                              
                                                                                
                                                                                
                                                                                
*SIMULATED CROP AND SOIL STATUS AT MAIN DEVELOPMENT STAGES

 RUN NO.    19     UYMZ                    

        CROP GROWTH   BIOMASS         LEAF   CROP N     STRESS  
   DATE  AGE STAGE      kg/ha    LAI   NUM  kg/ha  %   H2O    N 
 ------  --- ---------- -----  -----  ----  ---  ---  ----  ----
  3 JUL    0 Start Sim      0   0.00   0.0    0  0.0  0.00  0.00
  6 JUL    0 Sowing         0   0.00   0.0    0  0.0  0.00  0.00
  7 JUL    1 Germinate      0   0.00   0.0    0  0.0  0.00  0.00
  5 AUG   30 Emergence     28   0.00   1.8    1  4.4  0.00  0.00
 26 SEP   82 End Juveni   307   0.33   9.5   12  4.0  0.00  0.00
 30 SEP   86 Floral Ini   398   0.46  10.1   15  3.7  0.00  0.01
 21 NOV  138 75% Silkin  4981   1.47  21.3   44  0.9  0.00  0.20
  6 DEC  153 Beg Gr Fil  5927   0.97  21.3   45  0.8  0.00  0.26
 17 JAN  195 End Gr Fil  8654   0.25  21.3   49  0.6  0.00  0.40
 19 JAN  197 Maturity    8654   0.25  21.3   49  0.6  0.00  0.56
 19 JAN  197 Harvest     8654   0.25  21.3   49  0.6  0.00  0.00


*MAIN GROWTH AND DEVELOPMENT VARIABLES

@     VARIABLE                          SIMULATED     MEASURED
      --------                          ---------     --------
      Anthesis day (dap)                      138          -99
      Physiological maturity day (dap)        197          -99
      Yield at harvest maturity (kg [dm]/    2920          -99
      Number at maturity (no/m2)             1091          -99
      Unit wt at maturity (g [dm]/unit)    0.2676          -99
      Number at maturity (no/unit)          155.9          -99
      Tops weight at maturity (kg [dm]/ha    8654          -99
      By-product produced (stalk) at matu    5794          -99
      Leaf area index, maximum               2.26          -99
      Harvest index at maturity             0.337          -99
      Grain N at maturity (kg/ha)              25          -99
      Tops N at maturity (kg/ha)               49          -99
      Stem N at maturity (kg/ha)               24          -99
      Grain N at maturity (%)                 0.8          -99
      Tops weight at anthesis (kg [dm]/ha    4947          -99
      Tops N at anthesis (kg/ha)               44          -99
      Leaf number per stem at maturity      21.28          -99


*ENVIRONMENTAL AND STRESS FACTORS

 |-----Development Phase------|-------------Environment--------------|---------Stress----------|
                              |--------Average-------|---Cumulative--|  (0=Min, 1=Max Stress)  |
                         Time  Temp  Temp Solar Photop         Evapo |----Water---|--Nitrogen--|
                         Span   Max   Min   Rad  [day]   Rain  Trans  Photo         Photo
                         days    øC    øC MJ/m2     hr     mm     mm  synth Growth  synth Growth
------------------------------------------------------------------------------------------------
 Emergence-End Juvenile    52  18.9   5.8  13.1  11.24  124.8   43.3  0.000  0.000  0.002  0.001
 End Juvenil-Floral Init    4  17.9   9.1  13.1  12.20   18.9    4.4  0.000  0.000  0.000  0.000
 Floral Init-End Lf Grow   52  23.4  12.2  16.5  13.12  139.6  177.7  0.000  0.002  0.357  0.191
 End Lf Grth-Beg Grn Fil   15  25.1  13.9  20.2  13.99  114.5   59.8  0.000  0.000  0.556  0.278
 Grain Filling Phase       42  26.9  14.9  25.7  14.14  186.5  140.4  0.000  0.000  0.659  0.390

                     Maize YIELD :     2920 kg/ha    [Dry weight] 

************************************************************************************************

*DSSAT Cropping System Model Ver. 4.0.2.000               Aug 01, 2016; 15:14:26
                                                                                
*RUN  20        : UYMZ                                                          
 MODEL          : MZCER040 - MAIZE                                              
 EXPERIMENT     : UYMZ0103 SN late to create DSS                                
 TREATMENT  1   : UYMZ                                                          
                                                                                
 CROP           : MAIZE          CULTIVAR : CMEDIO UY        ECOTYPE :IB0001    
 STARTING DATE  : JUL  3 1975                                                   
 PLANTING DATE  : JUL  6 1975    PLANTS/m2 :  7.0     ROW SPACING :  15.cm      
 WEATHER        : UYTT   1975                                                   
 SOIL           : UYSS1N1706     TEXTURE : SL    -  N17-06    SNIA SANDY WES    
 SOIL INITIAL C : DEPTH:100cm EXTR. H2O: 79.2mm  NO3: 63.0kg/ha  NH4: 23.1kg/ha 
 WATER BALANCE  : AUTOMATIC IRRIGATION - REFILL PROFILE                         
 IRRIGATION     : AUTOMATIC - PLANTING -> MATURITY [ SOIL DEPTH:30.00m 50.%]    
 NITROGEN BAL.  : SOIL-N & N-UPTAKE SIMULATION; NO N-FIXATION                   
 N-FERTILIZER   :       55 kg/ha IN     3 APPLICATIONS                          
 RESIDUE/MANURE : INITIAL :     0 kg/ha ;       0 kg/ha IN     0 APPLICATIONS   
 ENVIRONM. OPT. : DAYL=    0.00  SRAD=    0.00  TMAX=    0.00  TMIN=    0.00    
                  RAIN=    0.00  CO2 = R330.00  DEW =    0.00  WIND=    0.00    
 SIMULATION OPT : WATER   :Y  NITROGEN:Y  N-FIX:N  PHOSPH :N  PESTS  :N         
                  PHOTO   :C  ET      :R  INFIL:S  HYDROL :R  SOM    :G         
 MANAGEMENT OPT : PLANTING:R  IRRIG   :A  FERT :D  RESIDUE:N  HARVEST:M  WTH:M  
                                                                                
*SUMMARY OF SOIL AND GENETIC INPUT PARAMETERS                                   
                                                                                
   SOIL LOWER UPPER   SAT  EXTR  INIT   ROOT   BULK     pH    NO3    NH4    ORG 
  DEPTH LIMIT LIMIT    SW    SW    SW   DIST   DENS                          C  
   cm   cm3/cm3    cm3/cm3    cm3/cm3         g/cm3         ugN/g  ugN/g     %  
------------------------------------------------------------------------------- 
  0-  5 0.116 0.202 0.414 0.086 0.176   1.00   1.47   6.00  15.00   1.50   1.10 
  5- 15 0.116 0.202 0.414 0.086 0.176   1.00   1.47   6.00  15.00   1.50   1.10 
 15- 30 0.118 0.205 0.410 0.087 0.178   0.48   1.49   6.00   8.41   1.50   0.84 
 30- 45 0.139 0.224 0.402 0.084 0.206   0.27   1.51   6.00   4.93   1.50   0.67 
 45- 60 0.182 0.261 0.387 0.079 0.261   0.00   1.56   6.00   0.00   1.50   0.40 
 60- 80 0.176 0.248 0.378 0.072 0.248   0.00   1.59   6.00   0.00   1.50   0.20 
 80-100 0.156 0.228 0.374 0.072 0.228   0.00   1.60   6.00   0.00   1.50   0.14 
                                                                                
TOT-100  15.0  22.9  39.2   7.9  21.8  <--cm   -  kg/ha-->   63.0   23.1  78401 
SOIL ALBEDO    : 0.13      EVAPORATION LIMIT : 6.00         MIN. FACTOR  : 1.00 
RUNOFF CURVE # :10.00      DRAINAGE RATE     : 0.60         FERT. FACTOR : 1.00 
                                                                                
 MAIZE      CULTIVAR :UY0370-CMEDIO UY          ECOTYPE :IB0001                 
 P1     : 280.00  P2     : 0.0000  P5     : 750.00                              
 G2     : 800.00  G3     :  7.500  PHINT  : 38.900                              
                                                                                
                                                                                
                                                                                
*SIMULATED CROP AND SOIL STATUS AT MAIN DEVELOPMENT STAGES

 RUN NO.    20     UYMZ                    

        CROP GROWTH   BIOMASS         LEAF   CROP N     STRESS  
   DATE  AGE STAGE      kg/ha    LAI   NUM  kg/ha  %   H2O    N 
 ------  --- ---------- -----  -----  ----  ---  ---  ----  ----
  3 JUL    0 Start Sim      0   0.00   0.0    0  0.0  0.00  0.00
  6 JUL    0 Sowing         0   0.00   0.0    0  0.0  0.00  0.00
  7 JUL    1 Germinate      0   0.00   0.0    0  0.0  0.00  0.00
 19 JUL   13 Emergence     28   0.00   1.9    1  4.4  0.00  0.00
 18 SEP   74 End Juveni   374   0.43   9.9   13  3.5  0.00  0.00
 22 SEP   78 Floral Ini   531   0.66  11.1   19  3.6  0.00  0.01
 21 NOV  138 75% Silkin  4506   0.91  23.0   39  0.9  0.00  0.28
  6 DEC  153 Beg Gr Fil  5346   0.58  23.0   40  0.7  0.00  0.30
  8 JAN  186 End Gr Fil  7398   0.21  23.0   43  0.6  0.00  0.37
 12 JAN  190 Maturity    7398   0.21  23.0   43  0.6  0.00  0.45
 12 JAN  190 Harvest     7398   0.21  23.0   43  0.6  0.00  0.00


*MAIN GROWTH AND DEVELOPMENT VARIABLES

@     VARIABLE                          SIMULATED     MEASURED
      --------                          ---------     --------
      Anthesis day (dap)                      138          -99
      Physiological maturity day (dap)        190          -99
      Yield at harvest maturity (kg [dm]/    2248          -99
      Number at maturity (no/m2)              923          -99
      Unit wt at maturity (g [dm]/unit)    0.2437          -99
      Number at maturity (no/unit)          131.8          -99
      Tops weight at maturity (kg [dm]/ha    7398          -99
      By-product produced (stalk) at matu    5209          -99
      Leaf area index, maximum               1.78          -99
      Harvest index at maturity             0.304          -99
      Grain N at maturity (kg/ha)              20          -99
      Tops N at maturity (kg/ha)               43          -99
      Stem N at maturity (kg/ha)               23          -99
      Grain N at maturity (%)                 0.9          -99
      Tops weight at anthesis (kg [dm]/ha    4493          -99
      Tops N at anthesis (kg/ha)               39          -99
      Leaf number per stem at maturity      22.95          -99


*ENVIRONMENTAL AND STRESS FACTORS

 |-----Development Phase------|-------------Environment--------------|---------Stress----------|
                              |--------Average-------|---Cumulative--|  (0=Min, 1=Max Stress)  |
                         Time  Temp  Temp Solar Photop         Evapo |----Water---|--Nitrogen--|
                         Span   Max   Min   Rad  [day]   Rain  Trans  Photo         Photo
                         days    øC    øC MJ/m2     hr     mm     mm  synth Growth  synth Growth
------------------------------------------------------------------------------------------------
 Emergence-End Juvenile    61  17.0   6.4  10.7  10.86  382.5   65.7  0.000  0.000  0.003  0.001
 End Juvenil-Floral Init    4  27.2  16.0  12.0  11.92   13.1    3.9  0.000  0.000  0.002  0.001
 Floral Init-End Lf Grow   60  22.7  11.6  19.2  12.99  209.9  228.1  0.000  0.000  0.483  0.271
 End Lf Grth-Beg Grn Fil   15  26.2  12.2  24.0  13.99   73.5   65.5  0.000  0.000  0.597  0.321
 Grain Filling Phase       33  31.1  17.0  24.9  14.17   23.3   94.1  0.000  0.000  0.637  0.365

                     Maize YIELD :     2248 kg/ha    [Dry weight] 

************************************************************************************************

*DSSAT Cropping System Model Ver. 4.0.2.000               Aug 01, 2016; 15:14:26
                                                                                
*RUN  21        : UYMZ                                                          
 MODEL          : MZCER040 - MAIZE                                              
 EXPERIMENT     : UYMZ0103 SN late to create DSS                                
 TREATMENT  1   : UYMZ                                                          
                                                                                
 CROP           : MAIZE          CULTIVAR : CMEDIO UY        ECOTYPE :IB0001    
 STARTING DATE  : JUL  3 1975                                                   
 PLANTING DATE  : JUL  6 1975    PLANTS/m2 :  7.0     ROW SPACING :  15.cm      
 WEATHER        : UYTT   1975                                                   
 SOIL           : UYSS1N1706     TEXTURE : SL    -  N17-06    SNIA SANDY WES    
 SOIL INITIAL C : DEPTH:100cm EXTR. H2O: 79.2mm  NO3: 63.0kg/ha  NH4: 23.1kg/ha 
 WATER BALANCE  : AUTOMATIC IRRIGATION - REFILL PROFILE                         
 IRRIGATION     : AUTOMATIC - PLANTING -> MATURITY [ SOIL DEPTH:30.00m 50.%]    
 NITROGEN BAL.  : SOIL-N & N-UPTAKE SIMULATION; NO N-FIXATION                   
 N-FERTILIZER   :       55 kg/ha IN     3 APPLICATIONS                          
 RESIDUE/MANURE : INITIAL :     0 kg/ha ;       0 kg/ha IN     0 APPLICATIONS   
 ENVIRONM. OPT. : DAYL=    0.00  SRAD=    0.00  TMAX=    0.00  TMIN=    0.00    
                  RAIN=    0.00  CO2 = R330.00  DEW =    0.00  WIND=    0.00    
 SIMULATION OPT : WATER   :Y  NITROGEN:Y  N-FIX:N  PHOSPH :N  PESTS  :N         
                  PHOTO   :C  ET      :R  INFIL:S  HYDROL :R  SOM    :G         
 MANAGEMENT OPT : PLANTING:R  IRRIG   :A  FERT :D  RESIDUE:N  HARVEST:M  WTH:M  
                                                                                
*SUMMARY OF SOIL AND GENETIC INPUT PARAMETERS                                   
                                                                                
   SOIL LOWER UPPER   SAT  EXTR  INIT   ROOT   BULK     pH    NO3    NH4    ORG 
  DEPTH LIMIT LIMIT    SW    SW    SW   DIST   DENS                          C  
   cm   cm3/cm3    cm3/cm3    cm3/cm3         g/cm3         ugN/g  ugN/g     %  
------------------------------------------------------------------------------- 
  0-  5 0.116 0.202 0.414 0.086 0.176   1.00   1.47   6.00  15.00   1.50   1.10 
  5- 15 0.116 0.202 0.414 0.086 0.176   1.00   1.47   6.00  15.00   1.50   1.10 
 15- 30 0.118 0.205 0.410 0.087 0.178   0.48   1.49   6.00   8.41   1.50   0.84 
 30- 45 0.139 0.224 0.402 0.084 0.206   0.27   1.51   6.00   4.93   1.50   0.67 
 45- 60 0.182 0.261 0.387 0.079 0.261   0.00   1.56   6.00   0.00   1.50   0.40 
 60- 80 0.176 0.248 0.378 0.072 0.248   0.00   1.59   6.00   0.00   1.50   0.20 
 80-100 0.156 0.228 0.374 0.072 0.228   0.00   1.60   6.00   0.00   1.50   0.14 
                                                                                
TOT-100  15.0  22.9  39.2   7.9  21.8  <--cm   -  kg/ha-->   63.0   23.1  78401 
SOIL ALBEDO    : 0.13      EVAPORATION LIMIT : 6.00         MIN. FACTOR  : 1.00 
RUNOFF CURVE # :10.00      DRAINAGE RATE     : 0.60         FERT. FACTOR : 1.00 
                                                                                
 MAIZE      CULTIVAR :UY0370-CMEDIO UY          ECOTYPE :IB0001                 
 P1     : 280.00  P2     : 0.0000  P5     : 750.00                              
 G2     : 800.00  G3     :  7.500  PHINT  : 38.900                              
                                                                                
                                                                                
                                                                                
*SIMULATED CROP AND SOIL STATUS AT MAIN DEVELOPMENT STAGES

 RUN NO.    21     UYMZ                    

        CROP GROWTH   BIOMASS         LEAF   CROP N     STRESS  
   DATE  AGE STAGE      kg/ha    LAI   NUM  kg/ha  %   H2O    N 
 ------  --- ---------- -----  -----  ----  ---  ---  ----  ----
  3 JUL    0 Start Sim      0   0.00   0.0    0  0.0  0.00  0.00
  6 JUL    0 Sowing         0   0.00   0.0    0  0.0  0.00  0.00
  7 JUL    1 Germinate      0   0.00   0.0    0  0.0  0.00  0.00
 24 JUL   18 Emergence     28   0.00   1.8    1  4.4  0.00  0.00
 16 SEP   72 End Juveni   313   0.46   9.5   12  3.8  0.00  0.00
 20 SEP   76 Floral Ini   364   0.38   9.9   13  3.7  0.00  0.01
 17 NOV  134 75% Silkin  4970   1.35  20.9   44  0.9  0.00  0.17
  2 DEC  149 Beg Gr Fil  6067   0.89  20.9   45  0.7  0.00  0.27
  9 JAN  187 End Gr Fil  8713   0.26  20.9   49  0.6  0.00  0.39
 11 JAN  189 Maturity    8713   0.26  20.9   49  0.6  0.00  0.54
 11 JAN  189 Harvest     8713   0.26  20.9   49  0.6  0.00  0.00


*MAIN GROWTH AND DEVELOPMENT VARIABLES

@     VARIABLE                          SIMULATED     MEASURED
      --------                          ---------     --------
      Anthesis day (dap)                      134          -99
      Physiological maturity day (dap)        189          -99
      Yield at harvest maturity (kg [dm]/    2863          -99
      Number at maturity (no/m2)             1104          -99
      Unit wt at maturity (g [dm]/unit)    0.2592          -99
      Number at maturity (no/unit)          157.8          -99
      Tops weight at maturity (kg [dm]/ha    8713          -99
      By-product produced (stalk) at matu    5910          -99
      Leaf area index, maximum               1.97          -99
      Harvest index at maturity             0.329          -99
      Grain N at maturity (kg/ha)              25          -99
      Tops N at maturity (kg/ha)               49          -99
      Stem N at maturity (kg/ha)               24          -99
      Grain N at maturity (%)                 0.9          -99
      Tops weight at anthesis (kg [dm]/ha    4947          -99
      Tops N at anthesis (kg/ha)               44          -99
      Leaf number per stem at maturity      20.87          -99


*ENVIRONMENTAL AND STRESS FACTORS

 |-----Development Phase------|-------------Environment--------------|---------Stress----------|
                              |--------Average-------|---Cumulative--|  (0=Min, 1=Max Stress)  |
                         Time  Temp  Temp Solar Photop         Evapo |----Water---|--Nitrogen--|
                         Span   Max   Min   Rad  [day]   Rain  Trans  Photo         Photo
                         days    øC    øC MJ/m2     hr     mm     mm  synth Growth  synth Growth
------------------------------------------------------------------------------------------------
 Emergence-End Juvenile    54  17.7   6.6  11.4  10.90  158.2   50.6  0.000  0.000  0.002  0.001
 End Juvenil-Floral Init    4  19.5   4.9  20.0  11.85    0.0    4.5  0.000  0.000  0.000  0.000
 Floral Init-End Lf Grow   58  22.3  10.6  18.2  12.90  229.7  204.1  0.000  0.000  0.311  0.160
 End Lf Grth-Beg Grn Fil   15  25.8  13.0  24.8  13.91    2.8   72.5  0.000  0.000  0.558  0.281
 Grain Filling Phase       38  29.5  14.9  26.5  14.16   52.4  147.8  0.000  0.000  0.650  0.380

                     Maize YIELD :     2863 kg/ha    [Dry weight] 

************************************************************************************************
