*GROWTH ASPECTS OUTPUT FILE

*DSSAT Cropping System Model Ver. 4.0.2.000               Aug 01, 2016; 15:14:26

*RUN   1        : UYMZ                    
 MODEL          : MZCER040 - Maize           
 EXPERIMENT     : UYMZ0103 MZ    late to create DSS                             
 TREATMENT  1   : UYMZ                    

@YEAR DOY   DAS   DAP   L#SD   GSTD   LAID   LWAD   SWAD   GWAD   RWAD   CWAD   G#AD   GWGD   HIAD   PWAD   P#AD   WSPD   WSGD   NSTD   EWSD   LN%D   SH%D   HIPD   PWDD   PWTD     SLAD   CHTD   CWID   RDPD   RL1D   RL2D   RL3D   RL4D   RL5D   RL6D   RL7D   RL8D   RL9D   RL10   CDAD   LDAD   SDAD   SNW0C   SNW1C
 1975 187     3     0    0.0      0   0.00      0      0      0      0      0      0    0.0  0.000      0      0  0.000  0.000  0.000  0.000   0.00   0.00   0.00      0      0      0.0   0.00   0.00   0.03   0.00   0.00   0.00   0.00   0.00   0.00   0.00   0.00   0.00   0.00      0      0      0       0       0
 1975 188     4     1    0.0      0   0.00      0      0      0      0      0      0    0.0  0.000      0      0  0.000  0.000  0.000  0.000   0.00   0.00   0.00      0      0      0.0   0.00   0.00   0.03   0.00   0.00   0.00   0.00   0.00   0.00   0.00   0.00   0.00   0.00      0      0      0       0       0
 1975 189     5     2    0.0      0   0.00      0      0      0      0      0      0    0.0  0.000      0      0  0.000  0.000  0.000  0.000   0.00   0.00   0.00      0      0      0.0   0.00   0.00   0.04   0.00   0.00   0.00   0.00   0.00   0.00   0.00   0.00   0.00   0.00      0      0      0       0       0
 1975 190     6     3    0.0      0   0.00      0      0      0      0      0      0    0.0  0.000      0      0  0.000  0.000  0.000  0.000   0.00   0.00   0.00      0      0      0.0   0.00   0.00   0.05   0.00   0.00   0.00   0.00   0.00   0.00   0.00   0.00   0.00   0.00      0      0      0       0       0
 1975 191     7     4    0.0      0   0.00      0      0      0      0      0      0    0.0  0.000      0      0  0.000  0.000  0.000  0.000   0.00   0.00   0.00      0      0      0.0   0.00   0.00   0.07   0.00   0.00   0.00   0.00   0.00   0.00   0.00   0.00   0.00   0.00      0      0      0       0       0
 1975 192     8     5    0.0      0   0.00      0      0      0      0      0      0    0.0  0.000      0      0  0.000  0.000  0.000  0.000   0.00   0.00   0.00      0      0      0.0   0.00   0.00   0.08   0.00   0.00   0.00   0.00   0.00   0.00   0.00   0.00   0.00   0.00      0      0      0       0       0
 1975 193     9     6    0.0      0   0.00      0      0      0      0      0      0    0.0  0.000      0      0  0.000  0.000  0.000  0.000   0.00   0.00   0.00      0      0      0.0   0.00   0.00   0.08   0.00   0.00   0.00   0.00   0.00   0.00   0.00   0.00   0.00   0.00      0      0      0       0       0
 1975 194    10     7    0.0      0   0.00      0      0      0      0      0      0    0.0  0.000      0      0  0.000  0.000  0.000  0.000   0.00   0.00   0.00      0      0      0.0   0.00   0.00   0.09   0.00   0.00   0.00   0.00   0.00   0.00   0.00   0.00   0.00   0.00      0      0      0       0       0
 1975 195    11     8    0.0      0   0.00      0      0      0      0      0      0    0.0  0.000      0      0  0.000  0.000  0.000  0.000   0.00   0.00   0.00      0      0      0.0   0.00   0.00   0.10   0.00   0.00   0.00   0.00   0.00   0.00   0.00   0.00   0.00   0.00      0      0      0       0       0
 1975 196    12     9    0.0      0   0.00      0      0      0      0      0      0    0.0  0.000      0      0  0.000  0.000  0.000  0.000   0.00   0.00   0.00      0      0      0.0   0.00   0.00   0.10   0.00   0.00   0.00   0.00   0.00   0.00   0.00   0.00   0.00   0.00      0      0      0       0       0
 1975 197    13    10    0.0      0   0.00      0      0      0      0      0      0    0.0  0.000      0      0  0.000  0.000  0.000  0.000   0.00   0.00   0.00      0      0      0.0   0.00   0.00   0.10   0.00   0.00   0.00   0.00   0.00   0.00   0.00   0.00   0.00   0.00      0      0      0       0       0
 1975 198    14    11    0.0      0   0.00      0      0      0      0      0      0    0.0  0.000      0      0  0.000  0.000  0.000  0.000   0.00   0.00   0.00      0      0      0.0   0.00   0.00   0.10   0.00   0.00   0.00   0.00   0.00   0.00   0.00   0.00   0.00   0.00      0      0      0       0       0
 1975 199    15    12    0.0      0   0.00      0      0      0      0      0      0    0.0  0.000      0      0  0.000  0.000  0.000  0.000   0.00   0.00   0.00      0      0      0.0   0.00   0.00   0.10   0.00   0.00   0.00   0.00   0.00   0.00   0.00   0.00   0.00   0.00      0      0      0       0       0
 1975 200    16    13    0.0      0   0.00      0      0      0      0      0      0    0.0  0.000      0      0  0.000  0.000  0.000  0.000   0.00   0.00   0.00      0      0      0.0   0.00   0.00   0.10   0.00   0.00   0.00   0.00   0.00   0.00   0.00   0.00   0.00   0.00      0      0      0       0       0
 1975 201    17    14    0.0      0   0.00      0      0      0      0      0      0    0.0  0.000      0      0  0.000  0.000  0.000  0.000   0.00   0.00   0.00      0      0      0.0   0.00   0.00   0.10   0.00   0.00   0.00   0.00   0.00   0.00   0.00   0.00   0.00   0.00      0      0      0       0       0
 1975 202    18    15    0.0      0   0.00      0      0      0      0      0      0    0.0  0.000      0      0  0.000  0.000  0.000  0.000   0.00   0.00   0.00      0      0      0.0   0.00   0.00   0.10   0.00   0.00   0.00   0.00   0.00   0.00   0.00   0.00   0.00   0.00      0      0      0       0       0
 1975 203    19    16    0.0      0   0.00      0      0      0      0      0      0    0.0  0.000      0      0  0.000  0.000  0.000  0.000   0.00   0.00   0.00      0      0      0.0   0.00   0.00   0.10   0.00   0.00   0.00   0.00   0.00   0.00   0.00   0.00   0.00   0.00      0      0      0       0       0
 1975 204    20    17    0.0      0   0.00      0      0      0      0      0      0    0.0  0.000      0      0  0.000  0.000  0.000  0.000   0.00   0.00   0.00      0      0      0.0   0.00   0.00   0.11   0.00   0.00   0.00   0.00   0.00   0.00   0.00   0.00   0.00   0.00      0      0      0       0       0
 1975 205    21    18    0.0      0   0.00      0      0      0      0      0      0    0.0  0.000      0      0  0.000  0.000  0.000  0.000   0.00   0.00   0.00      0      0      0.0   0.00   0.00   0.11   0.00   0.00   0.00   0.00   0.00   0.00   0.00   0.00   0.00   0.00      0      0      0       0       0
 1975 206    22    19    0.0      0   0.00      0      0      0      0      0      0    0.0  0.000      0      0  0.000  0.000  0.000  0.000   0.00   0.00   0.00      0      0      0.0   0.00   0.00   0.11   0.00   0.00   0.00   0.00   0.00   0.00   0.00   0.00   0.00   0.00      0      0      0       0       0
 1975 207    23    20    0.0      0   0.00      0      0      0      0      0      0    0.0  0.000      0      0  0.000  0.000  0.000  0.000   0.00   0.00   0.00      0      0      0.0   0.00   0.00   0.11   0.00   0.00   0.00   0.00   0.00   0.00   0.00   0.00   0.00   0.00      0      0      0       0       0
 1975 208    24    21    0.0      0   0.00      0      0      0      0      0      0    0.0  0.000      0      0  0.000  0.000  0.000  0.000   0.00   0.00   0.00      0      0      0.0   0.00   0.00   0.12   0.00   0.00   0.00   0.00   0.00   0.00   0.00   0.00   0.00   0.00      0      0      0       0       0
 1975 209    25    22    0.0      0   0.00      0      0      0      0      0      0    0.0  0.000      0      0  0.000  0.000  0.000  0.000   0.00   0.00   0.00      0      0      0.0   0.00   0.00   0.12   0.00   0.00   0.00   0.00   0.00   0.00   0.00   0.00   0.00   0.00      0      0      0       0       0
 1975 210    26    23    1.0      1   0.00     14     14      0     14     28      0    0.0  0.000      0      0  0.000  0.000  0.012  0.000   4.40   0.00   0.00      0      0      9.4   0.00   0.00   0.12   0.28   0.10   0.00   0.00   0.00   0.00   0.00   0.00   0.00   0.00      0      0      0       0       0
 1975 211    27    24    1.0      1   0.00     14     14      0     14     28      0    0.0  0.000      0      0  0.000  0.000  0.019  0.000   4.56   0.00   0.00      0      0     11.9   0.00   0.00   0.13   0.28   0.10   0.00   0.00   0.00   0.00   0.00   0.00   0.00   0.00      0      0      0       0       0
 1975 212    28    25    1.0      1   0.00     14     14      0     14     28      0    0.0  0.000      0      0  0.000  0.000  0.000  0.000   4.56   0.00   0.00      0      0     20.6   0.00   0.00   0.13   0.27   0.10   0.00   0.00   0.00   0.00   0.00   0.00   0.00   0.00      0      0      0       0       0
 1975 213    29    26    2.0      1   0.00     14     14      0     14     28      0    0.0  0.000      0      0  0.000  0.000  0.000  0.000   4.56   0.00   0.00      0      0     35.2   0.00   0.00   0.14   0.27   0.10   0.00   0.00   0.00   0.00   0.00   0.00   0.00   0.00      0      0      0       0       0
 1975 214    30    27    2.0      1   0.01     14     14      0     14     28      0    0.0  0.000      0      0  0.000  0.000  0.000  0.000   4.56   0.00   0.00      0      0     45.7   0.00   0.00   0.15   0.27   0.11   0.00   0.00   0.00   0.00   0.00   0.00   0.00   0.00      0      0      0       0       0
 1975 215    31    28    2.0      1   0.01     14     14      0     15     28      0    0.0  0.000      0      0  0.000  0.000  0.000  0.000   4.56   0.00   0.00      0      0     50.1   0.00   0.00   0.15   0.27   0.11   0.00   0.00   0.00   0.00   0.00   0.00   0.00   0.00      0      0      0       0       0
 1975 216    32    29    2.0      1   0.01     14     14      0     15     28      0    0.0  0.000      0      0  0.000  0.000  0.000  0.000   4.49   0.00   0.00      0      0     46.0   0.00   0.00   0.15   0.27   0.12   0.00   0.00   0.00   0.00   0.00   0.00   0.00   0.00      0      0      0       0       0
 1975 217    33    30    2.0      1   0.01     14     14      0     15     28      0    0.0  0.000      0      0  0.000  0.000  0.000  0.000   4.49   0.00   0.00      0      0     46.1   0.00   0.00   0.15   0.26   0.12   0.00   0.00   0.00   0.00   0.00   0.00   0.00   0.00      0      0      0       0       0
 1975 218    34    31    2.0      1   0.00     14     14      0     15     28      0    0.0  0.000      0      0  0.000  0.000  0.000  0.000   4.49   0.00   0.00      0      0     32.8   0.00   0.00   0.15   0.26   0.13   0.00   0.00   0.00   0.00   0.00   0.00   0.00   0.00      0      0      0       0       0
 1975 219    35    32    2.0      1   0.00     14     14      0     15     28      0    0.0  0.000      0      0  0.000  0.000  0.000  0.000   4.49   0.00   0.00      0      0     31.5   0.00   0.00   0.15   0.26   0.13   0.00   0.00   0.00   0.00   0.00   0.00   0.00   0.00      0      0      0       0       0
 1975 220    36    33    2.0      1   0.01     14     14      0     15     28      0    0.0  0.000      0      0  0.000  0.000  0.000  0.000   4.49   0.00   0.00      0      0     38.2   0.00   0.00   0.16   0.26   0.13   0.00   0.00   0.00   0.00   0.00   0.00   0.00   0.00      0      0      0       0       0
 1975 221    37    34    3.0      1   0.01     14     14      0     15     28      0    0.0  0.000      0      0  0.000  0.000  0.000  0.000   4.49   0.00   0.00      0      0     47.2   0.00   0.00   0.16   0.26   0.13   0.00   0.00   0.00   0.00   0.00   0.00   0.00   0.00      0      0      0       0       0
 1975 222    38    35    3.0      1   0.01     14     14      0     16     28      0    0.0  0.000      0      0  0.000  0.000  0.000  0.000   4.49   0.00   0.00      0      0     59.3   0.00   0.00   0.16   0.25   0.13   0.00   0.00   0.00   0.00   0.00   0.00   0.00   0.00      0      0      0       0       0
 1975 223    39    36    3.0      1   0.01     14     14      0     16     28      0    0.0  0.000      0      0  0.000  0.000  0.000  0.000   4.49   0.00   0.00      0      0     65.4   0.00   0.00   0.17   0.25   0.14   0.00   0.00   0.00   0.00   0.00   0.00   0.00   0.00      0      0      0       0       0
 1975 224    40    37    3.0      1   0.01     14     14      0     17     28      0    0.0  0.000      0      0  0.000  0.000  0.000  0.000   4.49   0.00   0.00      0      0     79.2   0.00   0.00   0.17   0.25   0.15   0.00   0.00   0.00   0.00   0.00   0.00   0.00   0.00      0      0      0       0       0
 1975 225    41    38    3.0      1   0.01     14     14      0     18     28      0    0.0  0.000      0      0  0.000  0.000  0.000  0.000   4.42   0.00   0.00      0      0     84.6   0.00   0.00   0.17   0.25   0.16   0.01   0.00   0.00   0.00   0.00   0.00   0.00   0.00      0      0      0       0       0
 1975 226    42    39    3.0      1   0.01     14     14      0     18     28      0    0.0  0.000      0      0  0.000  0.000  0.000  0.000   4.42   0.00   0.00      0      0     79.2   0.00   0.00   0.17   0.25   0.16   0.01   0.00   0.00   0.00   0.00   0.00   0.00   0.00      0      0      0       0       0
 1975 227    43    40    3.0      1   0.01     14     14      0     18     28      0    0.0  0.000      0      0  0.000  0.000  0.000  0.000   4.42   0.00   0.00      0      0     92.4   0.00   0.00   0.18   0.25   0.17   0.01   0.00   0.00   0.00   0.00   0.00   0.00   0.00      0      0      0       0       0
 1975 228    44    41    3.0      1   0.01     14     14      0     19     28      0    0.0  0.000      0      0  0.000  0.000  0.000  0.000   4.42   0.00   0.00      0      0    103.4   0.00   0.00   0.18   0.25   0.18   0.01   0.00   0.00   0.00   0.00   0.00   0.00   0.00      0      0      0       0       0
 1975 229    45    42    4.0      1   0.02     14     14      0     20     28      0    0.0  0.000      0      0  0.000  0.000  0.000  0.000   4.38   0.00   0.00      0      0    124.5   0.00   0.00   0.18   0.25   0.19   0.02   0.00   0.00   0.00   0.00   0.00   0.00   0.00      0      0      0       0       0
 1975 230    46    43    4.0      1   0.02     14     14      0     22     28      0    0.0  0.000      0      0  0.000  0.000  0.000  0.000   4.36   0.00   0.00      0      0    173.5   0.00   0.00   0.19   0.25   0.22   0.03   0.00   0.00   0.00   0.00   0.00   0.00   0.00      0      0      0       0       1
 1975 231    47    44    4.0      1   0.03     14     14      0     25     28      0    0.0  0.000      0      0  0.000  0.000  0.000  0.000   4.34   0.00   0.00      0      0    241.8   0.00   0.00   0.19   0.24   0.24   0.05   0.00   0.00   0.00   0.00   0.00   0.00   0.00      0      0      0       0       1
 1975 232    48    45    4.0      1   0.04     14     14      0     27     28      0    0.0  0.000      0      0  0.000  0.000  0.000  0.000   4.26   0.00   0.00      0      0    301.4   0.00   0.00   0.20   0.24   0.26   0.06   0.00   0.00   0.00   0.00   0.00   0.00   0.00      0      0      0       0       1
 1975 233    49    46    4.0      1   0.06     19     14      0     29     33      0    0.0  0.000      0      0  0.000  0.000  0.000  0.000   3.69   0.00   0.00      0      0    293.1   0.00   0.00   0.20   0.30   0.26   0.06   0.00   0.00   0.00   0.00   0.00   0.00   0.00      0      0      0       0       1
 1975 234    50    47    5.0      1   0.07     24     14      0     29     38      0    0.0  0.000      0      0  0.000  0.000  0.000  0.000   3.72   0.00   0.00      0      0    285.1   0.00   0.00   0.21   0.30   0.27   0.06   0.00   0.00   0.00   0.00   0.00   0.00   0.00      0      0      0       0       1
 1975 235    51    48    5.0      1   0.08     29     14      0     30     43      0    0.0  0.000      0      0  0.000  0.000  0.000  0.000   3.79   0.00   0.00      0      0    278.4   0.00   0.00   0.21   0.31   0.28   0.06   0.00   0.00   0.00   0.00   0.00   0.00   0.00      0      0      0       0       1
 1975 236    52    49    5.0      1   0.09     34     14      0     34     48      0    0.0  0.000      0      0  0.000  0.000  0.000  0.000   3.76   0.00   0.00      0      0    271.5   0.00   0.00   0.22   0.37   0.31   0.07   0.00   0.00   0.00   0.00   0.00   0.00   0.00      0      0      0       0       1
 1975 237    53    50    5.0      1   0.09     35     14      0     35     49      0    0.0  0.000      0      0  0.000  0.000  0.000  0.000   4.16   0.00   0.00      0      0    258.5   0.00   0.00   0.22   0.39   0.33   0.07   0.00   0.00   0.00   0.00   0.00   0.00   0.00      0      0      0       0       1
 1975 238    54    51    5.0      1   0.08     36     14      0     39     50      0    0.0  0.000      0      0  0.000  0.000  0.000  0.000   4.18   0.00   0.00      0      0    210.2   0.00   0.00   0.22   0.44   0.37   0.08   0.00   0.00   0.00   0.00   0.00   0.00   0.00      0      0      0       0       2
 1975 239    55    52    5.0      1   0.07     37     14      0     42     51      0    0.0  0.000      0      0  0.000  0.000  0.000  0.000   4.07   0.00   0.00      0      0    175.4   0.00   0.00   0.22   0.47   0.40   0.08   0.00   0.00   0.00   0.00   0.00   0.00   0.00      0      0      0       0       2
 1975 240    56    53    5.0      1   0.08     42     14      0     47     56      0    0.0  0.000      0      0  0.000  0.000  0.006  0.000   3.73   0.00   0.00      0      0    180.8   0.00   0.00   0.23   0.53   0.44   0.09   0.00   0.00   0.00   0.00   0.00   0.00   0.00      0      0      0       0       2
 1975 241    57    54    5.0      1   0.08     45     14      0     52     59      0    0.0  0.000      0      0  0.000  0.000  0.019  0.000   4.01   0.00   0.00      0      0    181.6   0.00   0.00   0.23   0.52   0.52   0.11   0.00   0.00   0.00   0.00   0.00   0.00   0.00      0      0      0       0       2
 1975 242    58    55    5.0      1   0.08     48     14      0     58     62      0    0.0  0.000      0      0  0.000  0.000  0.000  0.000   4.01   0.00   0.00      0      0    171.4   0.00   0.00   0.23   0.52   0.60   0.13   0.00   0.00   0.00   0.00   0.00   0.00   0.00      0      0      0       0       2
 1975 243    59    56    6.0      1   0.09     52     14      0     64     66      0    0.0  0.000      0      0  0.000  0.000  0.000  0.000   3.92   0.00   0.00      0      0    172.5   0.00   0.00   0.23   0.52   0.69   0.16   0.00   0.00   0.00   0.00   0.00   0.00   0.00      0      0      0       0       2
 1975 244    60    57    6.0      1   0.11     61     14      0     71     75      0    0.0  0.000      0      0  0.000  0.000  0.000  0.000   3.71   0.00   0.00      0      0    177.7   0.00   0.00   0.24   0.51   0.79   0.19   0.00   0.00   0.00   0.00   0.00   0.00   0.00      0      0      0       0       3
 1975 245    61    58    6.0      1   0.12     69     14      0     84     83      0    0.0  0.000      0      0  0.000  0.000  0.000  0.000   3.75   0.00   0.00      0      0    178.2   0.00   0.00   0.25   0.51   0.96   0.24   0.00   0.00   0.00   0.00   0.00   0.00   0.00      0      0      0       0       3
 1975 246    62    59    6.0      1   0.13     77     14      0     98     91      0    0.0  0.000      0      0  0.000  0.000  0.000  0.000   3.78   0.00   0.00      0      0    175.8   0.00   0.00   0.25   0.51   1.14   0.30   0.00   0.00   0.00   0.00   0.00   0.00   0.00      0      0      0       0       4
 1975 247    63    60    6.0      1   0.15     87     14      0    107    101      0    0.0  0.000      0      0  0.000  0.000  0.000  0.000   3.71   0.00   0.00      0      0    178.1   0.00   0.00   0.26   0.50   1.25   0.34   0.00   0.00   0.00   0.00   0.00   0.00   0.00      0      0      0       0       4
 1975 248    64    61    7.0      1   0.18    100     14      0    108    114      0    0.0  0.000      0      0  0.000  0.000  0.000  0.000   3.63   0.00   0.00      0      0    179.7   0.00   0.00   0.26   0.50   1.27   0.35   0.00   0.00   0.00   0.00   0.00   0.00   0.00      0      0      0       0       5
 1975 249    65    62    7.0      1   0.18    102     14      0    113    116      0    0.0  0.000      0      0  0.000  0.000  0.000  0.000   4.03   0.00   0.00      0      0    175.8   0.00   0.00   0.26   0.52   1.32   0.36   0.00   0.00   0.00   0.00   0.00   0.00   0.00      0      0      0       0       5
 1975 250    66    63    7.0      1   0.16    106     14      0    128    120      0    0.0  0.000      0      0  0.000  0.000  0.000  0.000   3.95   0.00   0.00      0      0    148.0   0.00   0.00   0.26   0.59   1.49   0.43   0.00   0.00   0.00   0.00   0.00   0.00   0.00      0      0      0       0       6
 1975 251    67    64    7.0      1   0.17    113     14      0    131    127      0    0.0  0.000      0      0  0.000  0.000  0.000  0.000   3.75   0.00   0.00      0      0    149.7   0.00   0.00   0.27   0.60   1.52   0.44   0.00   0.00   0.00   0.00   0.00   0.00   0.00      0      0      0       0       6
 1975 252    68    65    7.0      1   0.19    122     14      0    135    136      0    0.0  0.000      0      0  0.000  0.000  0.016  0.000   3.78   0.00   0.00      0      0    151.9   0.00   0.00   0.27   0.62   1.57   0.46   0.00   0.00   0.00   0.00   0.00   0.00   0.00      0      0      0       0       6
 1975 253    69    66    7.0      1   0.20    132     14      0    147    146      0    0.0  0.000      0      0  0.000  0.000  0.000  0.000   3.80   0.00   0.00      0      0    153.8   0.00   0.00   0.27   0.61   1.70   0.52   0.00   0.00   0.00   0.00   0.00   0.00   0.00      0      0      0       0       7
 1975 254    70    67    7.0      1   0.20    139     14      0    167    153      0    0.0  0.000      0      0  0.000  0.000  0.000  0.000   3.85   0.00   0.00      0      0    145.3   0.00   0.00   0.28   0.61   1.94   0.63   0.00   0.00   0.00   0.00   0.00   0.00   0.00      0      0      0       0       8
 1975 255    71    68    7.0      1   0.23    154     14      0    169    168      0    0.0  0.000      0      0  0.000  0.000  0.000  0.000   3.52   0.00   0.00      0      0    148.0   0.00   0.00   0.29   0.60   1.96   0.65   0.00   0.00   0.00   0.00   0.00   0.00   0.00      0      0      0       0       8
 1975 256    72    69    8.0      1   0.25    170     14      0    188    184      0    0.0  0.000      0      0  0.000  0.000  0.022  0.000   3.67   0.00   0.00      0      0    149.7   0.00   0.00   0.30   0.68   2.14   0.75   0.00   0.00   0.00   0.00   0.00   0.00   0.00      0      0      0       0       9
 1975 257    73    70    8.0      1   0.28    183     14      0    199    197      0    0.0  0.000      0      0  0.000  0.000  0.000  0.000   3.72   0.00   0.00      0      0    151.1   0.00   0.00   0.31   0.73   2.23   0.81   0.00   0.00   0.00   0.00   0.00   0.00   0.00      0      0      0       0      10
 1975 258    74    71    8.0      1   0.30    196     14      0    231    210      0    0.0  0.000      0      0  0.000  0.000  0.000  0.000   3.75   0.00   0.00      0      0    151.2   0.00   0.00   0.31   0.73   2.56   1.00   0.01   0.00   0.00   0.00   0.00   0.00   0.00      0      0      0       0      11
 1975 259    75    72    8.0      1   0.32    211     14      0    258    225      0    0.0  0.000      0      0  0.000  0.000  0.000  0.000   3.70   0.00   0.00      0      0    152.1   0.00   0.00   0.32   0.72   2.82   1.16   0.02   0.00   0.00   0.00   0.00   0.00   0.00      0      0      0       0      12
 1975 260    76    73    8.0      1   0.36    233     14      0    293    247      0    0.0  0.000      0      0  0.000  0.000  0.000  0.000   3.61   0.00   0.00      0      0    152.8   0.00   0.00   0.33   0.72   3.15   1.37   0.05   0.00   0.00   0.00   0.00   0.00   0.00      0      0      0       0      13
 1975 261    77    74    8.0      1   0.39    255     14      0    297    269      0    0.0  0.000      0      0  0.000  0.000  0.000  0.000   3.62   0.00   0.00      0      0    153.2   0.00   0.00   0.34   0.71   3.18   1.40   0.05   0.00   0.00   0.00   0.00   0.00   0.00      0      0      0       0      14
 1975 262    78    75    9.0      1   0.43    282     14      0    300    296      0    0.0  0.000      0      0  0.000  0.000  0.000  0.000   3.56   0.00   0.00      0      0    153.3   0.00   0.00   0.35   0.71   3.21   1.42   0.06   0.00   0.00   0.00   0.00   0.00   0.00      0      0      0       0      16
 1975 263    79    76    9.0      2   0.50    299     14      0    348    313      0    0.0  0.000      0      0  0.000  0.000  0.000  0.000   3.68   0.00   0.00      0      0    166.1   0.00   0.00   0.36   0.74   3.64   1.68   0.13   0.00   0.00   0.00   0.00   0.00   0.00      0      0      0       0      17
 1975 264    80    77    9.0      2   0.55    330     14      0    386    344      0    0.0  0.000      0      0  0.000  0.000  0.001  0.000   3.54   0.00   0.00      0      0    165.5   0.00   0.00   0.37   0.74   3.93   1.91   0.20   0.00   0.00   0.00   0.00   0.00   0.00      0      0      0       0      19
 1975 265    81    78    9.0      2   0.58    354     14      0    447    368      0    0.0  0.000      0      0  0.000  0.000  0.000  0.000   3.58   0.00   0.00      0      0    164.9   0.00   0.00   0.37   0.75   4.00   2.28   0.33   0.00   0.00   0.00   0.00   0.00   0.00      0      0      0       0      21
 1975 266    82    79   10.0      2   0.64    388     14      0    513    402      0    0.0  0.000      0      0  0.000  0.000  0.000  0.000   3.78   0.00   0.00      0      0    164.0   0.00   0.00   0.38   0.75   4.00   2.68   0.49   0.00   0.00   0.00   0.00   0.00   0.00      0      0      0       0      23
 1975 267    83    80   10.0      3   0.65    402     14      0    541    416      0    0.0  0.000      0      0  0.000  0.000  0.022  0.000   3.73   0.00   0.00      0      0    161.7   0.00   0.00   0.38   0.75   4.00   2.86   0.57   0.00   0.00   0.00   0.00   0.00   0.00      0      0      0       0      26
 1975 268    84    81   10.0      3   0.58    412     14      0    587    426      0    0.0  0.000      0      0  0.000  0.000  0.022  0.000   3.65   0.00   0.00      0      0    140.5   0.00   0.00   0.39   0.74   4.00   3.15   0.71   0.00   0.00   0.00   0.00   0.00   0.00      0      0      0       0      29
 1975 269    85    82   10.0      3   0.45    426     14      0    637    440      0    0.0  0.000      0      0  0.000  0.000  0.022  0.000   3.62   0.00   0.00      0      0    105.6   0.00   0.00   0.39   0.74   4.00   3.48   0.88   0.00   0.00   0.00   0.00   0.00   0.00      0      0      0       0      32
 1975 270    86    83   10.0      3   0.50    462     14      0    649    476      0    0.0  0.000      0      0  0.000  0.000  0.022  0.000   3.56   0.00   0.00      0      0    108.6   0.00   0.00   0.40   0.73   4.00   3.56   0.92   0.00   0.00   0.00   0.00   0.00   0.00      0      0      0       0      35
 1975 271    87    84   10.0      3   0.58    514     15      0    669    529      0    0.0  0.000      0      0  0.000  0.000  0.022  0.000   3.52   0.00   0.00      0      0    112.0   0.00   0.00   0.41   0.74   4.00   3.67   1.00   0.00   0.00   0.00   0.00   0.00   0.00      0      0      0       0      38
 1975 272    88    85   11.0      3   0.63    553     15      0    672    568      0    0.0  0.000      0      0  0.000  0.000  0.022  0.000   3.49   0.00   0.00      0      0    113.8   0.00   0.00   0.42   0.74   3.99   3.70   1.03   0.00   0.00   0.00   0.00   0.00   0.00      0      0      0       0      41
 1975 273    89    86   11.0      3   0.69    594     16      0    743    611      0    0.0  0.000      0      0  0.000  0.000  0.022  0.000   3.44   0.00   0.00      0      0    115.3   0.00   0.00   0.43   0.78   4.00   4.00   1.53   0.00   0.00   0.00   0.00   0.00   0.00      0      0      0       0      45
 1975 274    90    87   11.0      3   0.74    632     17      0    820    649      0    0.0  0.000      0      0  0.000  0.000  0.022  0.000   3.36   0.00   0.00      0      0    116.4   0.00   0.00   0.43   0.87   4.00   4.00   2.16   0.00   0.00   0.00   0.00   0.00   0.00      0      0      0       0      48
 1975 275    91    88   11.0      3   0.76    654     18      0    839    673      0    0.0  0.000      0      0  0.000  0.000  0.022  0.000   3.38   0.00   0.00      0      0    116.8   0.00   0.00   0.44   0.90   4.00   4.00   2.37   0.00   0.00   0.00   0.00   0.00   0.00      0      0      0       0      52
 1975 276    92    89   11.0      3   0.74    681     19      0    924    700      0    0.0  0.000      0      0  0.000  0.000  0.022  0.000   3.30   0.00   0.00      0      0    109.0   0.00   0.00   0.44   0.89   4.00   4.00   3.28   0.00   0.00   0.00   0.00   0.00   0.00      0      0      0       0      57
 1975 277    93    90   11.0      3   0.78    712     21      0   1002    732      0    0.0  0.000      0      0  0.000  0.000  0.022  0.000   3.21   0.00   0.00      0      0    109.8   0.00   0.00   0.45   0.89   4.00   4.00   4.00   0.00   0.00   0.00   0.00   0.00   0.00      0      0      0       0      61
 1975 278    94    91   11.0      3   0.73    740     22      0   1079    762      0    0.0  0.000      0      0  0.000  0.000  0.023  0.000   3.13   0.00   0.00      0      0     98.6   0.00   0.00   0.45   0.88   4.00   4.00   4.00   0.00   0.00   0.00   0.00   0.00   0.00      0      0      0       0      66
 1975 279    95    92   12.0      3   0.80    792     26      0   1104    818      0    0.0  0.000      0      0  0.000  0.000  0.025  0.000   2.96   0.00   0.00      0      0    100.6   0.00   0.00   0.45   0.88   4.00   4.00   4.00   0.00   0.00   0.00   0.00   0.00   0.00      0      0      0       0      72
 1975 280    96    93   12.0      3   0.91    882     34      0   1137    916      0    0.0  0.000      0      0  0.000  0.000  0.027  0.000   2.68   0.00   0.00      0      0    103.2   0.00   0.00   0.45   0.88   4.00   4.00   4.00   0.00   0.00   0.00   0.00   0.00   0.00      0      0      0       0      77
 1975 281    97    94   12.0      3   0.95    914     38      0   1227    952      0    0.0  0.000      0      0  0.000  0.000  0.034  0.000   2.61   0.00   0.00      0      0    103.7   0.00   0.00   0.45   0.87   4.00   4.00   4.00   0.00   0.00   0.00   0.00   0.00   0.00      0      0      0       0      83
 1975 282    98    95   12.0      3   0.83    940     41      0   1312    981      0    0.0  0.000      0      0  0.000  0.000  0.051  0.000   2.56   0.00   0.00      0      0     88.5   0.00   0.00   0.45   0.87   4.00   4.00   4.00   0.00   0.00   0.00   0.00   0.00   0.00      0      0      0       0      89
 1975 283    99    96   12.0      3   0.69    971     44      0   1397   1016      0    0.0  0.000      0      0  0.000  0.000  0.056  0.000   2.49   0.00   0.00      0      0     70.7   0.00   0.00   0.45   1.36   4.00   4.00   4.00   0.00   0.00   0.00   0.00   0.00   0.00      0      0      0       0      96
 1975 284   100    97   12.0      3   0.72   1008     49      0   1466   1058      0    0.0  0.000      0      0  0.000  0.000  0.059  0.000   2.42   0.00   0.00      0      0     71.7   0.00   0.00   0.45   1.83   4.00   4.00   4.00   0.00   0.00   0.00   0.00   0.00   0.00      0      0      0       0     103
 1975 285   101    98   12.0      3   0.77   1048     55      0   1518   1103      0    0.0  0.000      0      0  0.000  0.000  0.063  0.000   2.33   0.00   0.00      0      0     73.1   0.00   0.00   0.45   2.27   4.00   4.00   4.00   0.00   0.00   0.00   0.00   0.00   0.00      0      0      0       0     110
 1975 286   102    99   13.0      3   0.84   1113     66      0   1557   1179      0    0.0  0.000      0      0  0.000  0.000  0.069  0.000   2.20   0.00   0.00      0      0     75.4   0.00   0.00   0.45   2.25   4.00   4.00   4.00   0.00   0.00   0.00   0.00   0.00   0.00      0      0      0       0     117
 1975 287   103   100   13.0      3   0.90   1171     78      0   1624   1249      0    0.0  0.000      0      0  0.000  0.000  0.076  0.000   2.09   0.00   0.00      0      0     77.0   0.00   0.00   0.45   2.24   4.00   4.00   4.00   0.00   0.00   0.00   0.00   0.00   0.00      0      0      0       0     125
 1975 288   104   101   13.0      3   0.97   1233     92      0   1697   1326      0    0.0  0.000      0      0  0.000  0.000  0.090  0.000   1.98   0.00   0.00      0      0     78.3   0.00   0.00   0.45   2.23   4.00   4.00   4.00   0.00   0.00   0.00   0.00   0.00   0.00      0      0      0       0     133
 1975 289   105   102   13.0      3   1.04   1303    110      0   1765   1414      0    0.0  0.000      0      0  0.000  0.000  0.103  0.000   2.11   0.00   0.00      0      0     79.5   0.00   0.00   0.45   3.85   4.00   3.99   3.99   0.00   0.00   0.00   0.00   0.00   0.00      0      0      0       0     142
 1975 290   106   103   14.0      3   1.11   1375    132      0   1854   1507      0    0.0  0.000      0      0  0.000  0.000  0.079  0.000   2.10   0.00   0.00      0      0     80.7   0.00   0.00   0.45   4.00   4.00   4.00   3.98   0.00   0.00   0.00   0.00   0.00   0.00      0      0      0       0     151
 1975 291   107   104   14.0      3   1.18   1445    156      0   1945   1601      0    0.0  0.000      0      0  0.000  0.000  0.079  0.000   2.01   0.00   0.00      0      0     81.7   0.00   0.00   0.45   3.98   4.00   4.00   4.00   0.00   0.00   0.00   0.00   0.00   0.00      0      0      0       0     160
 1975 292   108   105   14.0      3   1.25   1514    182      0   2005   1696      0    0.0  0.000      0      0  0.000  0.000  0.088  0.000   1.96   0.00   0.00      0      0     82.3   0.00   0.00   0.45   4.00   4.00   4.00   4.00   0.00   0.00   0.00   0.00   0.00   0.00      0      0      0       0     170
 1975 293   109   106   14.0      3   1.31   1579    209      0   2071   1788      0    0.0  0.000      0      0  0.000  0.000  0.095  0.000   1.89   0.00   0.00      0      0     82.7   0.00   0.00   0.45   4.00   4.00   4.00   4.00   0.00   0.00   0.00   0.00   0.00   0.00      0      0      0       0     180
 1975 294   110   107   15.0      3   1.34   1626    230      0   2176   1857      0    0.0  0.000      0      0  0.000  0.000  0.106  0.000   1.83   0.00   0.00      0      0     82.5   0.00   0.00   0.45   4.00   4.00   4.00   4.00   0.00   0.00   0.00   0.00   0.00   0.00      0      0      0       0     190
 1975 295   111   108   15.0      3   1.36   1664    248      0   2301   1912      0    0.0  0.000      0      0  0.000  0.000  0.119  0.000   1.78   0.00   0.00      0      0     81.9   0.00   0.00   0.45   4.00   4.00   4.00   4.00   0.00   0.00   0.00   0.00   0.00   0.00      0      0      0       0     201
 1975 296   112   109   15.0      3   1.37   1702    268      0   2425   1971      0    0.0  0.000      0      0  0.000  0.000  0.129  0.000   1.74   0.00   0.00      0      0     80.3   0.00   0.00   0.45   4.00   4.00   4.00   4.00   0.00   0.00   0.00   0.00   0.00   0.00      0      0      0       0     212
 1975 297   113   110   15.0      3   1.39   1748    293      0   2499   2041      0    0.0  0.000      0      0  0.000  0.000  0.135  0.000   1.68   0.00   0.00      0      0     79.7   0.00   0.00   0.45   4.00   4.00   4.00   4.00   0.00   0.00   0.00   0.00   0.00   0.00      0      0      0       0     225
 1975 298   114   111   15.0      3   1.44   1816    334      0   2558   2149      0    0.0  0.000      0      0  0.000  0.000  0.141  0.000   1.60   0.00   0.00      0      0     79.5   0.00   0.00   0.45   4.00   4.00   4.00   4.00   0.00   0.00   0.00   0.00   0.00   0.00      0      0      0       0     237
 1975 299   115   112   16.0      3   1.49   1881    377      0   2554   2257      0    0.0  0.000      0      0  0.000  0.000  0.148  0.000   1.53   0.00   0.00      0      0     79.1   0.00   0.00   0.45   4.00   4.00   4.00   4.00   0.00   0.00   0.00   0.00   0.00   0.00      0      0      0       0     250
 1975 300   116   113   16.0      3   1.51   1931    413      0   2612   2344      0    0.0  0.000      0      0  0.000  0.000  0.164  0.000   1.48   0.00   0.00      0      0     78.3   0.00   0.00   0.45   4.00   4.00   4.00   4.00   0.00   0.00   0.00   0.00   0.00   0.00      0      0      0       0     263
 1975 301   117   114   16.0      3   1.52   1969    442      0   2699   2411      0    0.0  0.000      0      0  0.000  0.000  0.180  0.000   1.45   0.00   0.00      0      0     77.1   0.00   0.00   0.45   4.00   4.00   4.00   4.00   0.00   0.00   0.00   0.00   0.00   0.00      0      0      0       0     276
 1975 302   118   115   16.0      3   1.54   2020    483      0   2796   2503      0    0.0  0.000      0      0  0.000  0.000  0.190  0.000   1.40   0.00   0.00      0      0     76.1   0.00   0.00   0.45   4.00   4.00   4.00   4.00   0.00   0.00   0.00   0.00   0.00   0.00      0      0      0       0     289
 1975 303   119   116   17.0      3   1.55   2065    523      0   2908   2589      0    0.0  0.000      0      0  0.000  0.000  0.196  0.000   1.36   0.00   0.00      0      0     74.9   0.00   0.00   0.45   3.98   4.00   4.00   4.00   0.00   0.00   0.00   0.00   0.00   0.00      0      0      0       0     303
 1975 304   120   117   17.0      3   1.54   2099    555      0   3019   2654      0    0.0  0.000      0      0  0.000  0.000  0.224  0.000   1.33   0.00   0.00      0      0     73.5   0.00   0.00   0.45   3.96   4.00   4.00   4.00   0.00   0.00   0.00   0.00   0.00   0.00      0      0      0       0     318
 1975 305   121   118   17.0      3   1.53   2131    586      0   3129   2717      0    0.0  0.000      0      0  0.000  0.000  0.256  0.000   1.30   0.00   0.00      0      0     72.0   0.00   0.00   0.45   4.00   4.00   4.00   4.00   0.00   0.00   0.00   0.00   0.00   0.00      0      0      0       0     333
 1975 306   122   119   17.0      3   1.53   2166    623      0   3230   2789      0    0.0  0.000      0      0  0.000  0.000  0.271  0.000   1.27   0.00   0.00      0      0     70.5   0.00   0.00   0.45   4.00   4.00   4.00   4.00   0.00   0.00   0.00   0.00   0.00   0.00      0      0      0       0     348
 1975 307   123   120   17.0      3   1.52   2201    661      0   3319   2862      0    0.0  0.000      0      0  0.000  0.000  0.286  0.000   1.24   0.00   0.00      0      0     69.1   0.00   0.00   0.45   4.00   4.00   4.00   4.00   0.00   0.00   0.00   0.00   0.00   0.00      0      0      0       0     365
 1975 308   124   121   18.0      3   1.57   2292    720      0   3330   3013      0    0.0  0.000      0      0  0.000  0.000  0.305  0.000   1.19   0.00   0.00      0      0     68.5   0.00   0.00   0.45   4.00   4.00   4.00   4.00   0.00   0.00   0.00   0.00   0.00   0.00      0      0      0       0     381
 1975 309   125   122   18.0      3   1.58   2343    775      0   3319   3117      0    0.0  0.000      0      0  0.000  0.000  0.317  0.000   1.15   0.00   0.00      0      0     67.2   0.00   0.00   0.45   4.00   4.00   4.00   3.99   0.00   0.00   0.00   0.00   0.00   0.00      0      0      0       0     398
 1975 310   126   123   18.0      3   1.56   2381    829      0   3308   3211      0    0.0  0.000      0      0  0.000  0.000  0.368  0.000   1.12   0.00   0.00      0      0     65.7   0.00   0.00   0.45   4.00   4.00   4.00   3.98   0.00   0.00   0.00   0.00   0.00   0.00      0      0      0       0     414
 1975 311   127   124   18.0      3   1.54   2408    872      0   3295   3280      0    0.0  0.000      0      0  0.000  0.000  0.399  0.000   1.10   0.00   0.00      0      0     63.9   0.00   0.00   0.45   4.00   4.00   3.99   3.97   0.00   0.00   0.00   0.00   0.00   0.00      0      0      0       0     431
 1975 312   128   125   19.0      3   1.52   2440    932      0   3305   3371      0    0.0  0.000      0      0  0.000  0.000  0.418  0.000   1.07   0.00   0.00      0      0     62.3   0.00   0.00   0.45   4.00   4.00   4.00   4.00   0.00   0.00   0.00   0.00   0.00   0.00      0      0      0       0     447
 1975 313   129   126   19.0      3   1.49   2464    980      0   3375   3443      0    0.0  0.000      0      0  0.000  0.000  0.427  0.000   1.05   0.00   0.00      0      0     60.5   0.00   0.00   0.45   4.00   4.00   4.00   4.00   0.00   0.00   0.00   0.00   0.00   0.00      0      0      0       0     464
 1975 314   130   127   19.0      3   1.46   2481   1018      0   3447   3499      0    0.0  0.000      0      0  0.000  0.000  0.449  0.000   1.04   0.00   0.00      0      0     58.7   0.00   0.00   0.45   4.00   4.00   4.00   4.00   0.00   0.00   0.00   0.00   0.00   0.00      0      0      0       0     481
 1975 315   131   128   19.0      3   1.42   2499   1060      0   3506   3559      0    0.0  0.000      0      0  0.000  0.000  0.456  0.000   1.03   0.00   0.00      0      0     56.9   0.00   0.00   0.45   4.00   4.00   4.00   4.00   0.00   0.00   0.00   0.00   0.00   0.00      0      0      0       0     498
 1975 316   132   129   19.0      3   1.39   2517   1104      0   3572   3621      0    0.0  0.000      0      0  0.000  0.000  0.457  0.000   1.01   0.00   0.00      0      0     55.2   0.00   0.00   0.45   3.98   4.00   4.00   4.00   0.00   0.00   0.00   0.00   0.00   0.00      0      0      0       0     516
 1975 317   133   130   20.0      3   1.36   2541   1165      0   3616   3706      0    0.0  0.000      0      0  0.000  0.000  0.452  0.000   0.99   0.00   0.00      0      0     53.7   0.00   0.00   0.45   4.00   4.00   4.00   4.00   0.00   0.00   0.00   0.00   0.00   0.00      0      0      0       0     533
 1975 318   134   131   20.0      3   1.34   2568   1241      0   3662   3808      0    0.0  0.000      0      0  0.000  0.000  0.440  0.000   0.97   0.00   0.00      0      0     52.3   0.00   0.00   0.45   4.00   4.00   4.00   4.00   0.00   0.00   0.00   0.00   0.00   0.00      0      0      0       0     552
 1975 319   135   132   21.0      3   1.31   2583   1287      0   3647   3870      0    0.0  0.000      0      0  0.000  0.000  0.440  0.000   0.96   0.00   0.00      0      0     50.8   0.00   0.00   0.45   4.00   4.00   3.99   3.99   0.00   0.00   0.00   0.00   0.00   0.00      0      0      0       0     570
 1975 320   136   133   21.0      3   1.28   2595   1325      0   3658   3921      0    0.0  0.000      0      0  0.000  0.000  0.458  0.000   0.95   0.00   0.00      0      0     49.2   0.00   0.00   0.45   4.00   4.00   4.00   4.00   0.00   0.00   0.00   0.00   0.00   0.00      0      0      0       0     588
 1975 321   137   134   21.0      3   1.24   2606   1359      0   3722   3965      0    0.0  0.000      0      0  0.000  0.000  0.473  0.000   0.94   0.00   0.00      0      0     47.6   0.00   0.00   0.45   4.00   4.00   4.00   4.00   0.00   0.00   0.00   0.00   0.00   0.00      0      0      0       0     588
 1975 322   138   135   21.0      3   1.20   2614   1385      0   3786   3999      0    0.0  0.000      0      0  0.000  0.000  0.487  0.000   0.93   0.00   0.00      0      0     46.0   0.00   0.00   0.45   4.00   4.00   4.00   4.00   0.00   0.00   0.00   0.00   0.00   0.00      0      0      0       0     588
 1975 323   139   136   21.0      3   1.17   2628   1430      0   3835   4057      0    0.0  0.000      0      0  0.000  0.000  0.495  0.000   0.91   0.00   0.00      0      0     44.6   0.00   0.00   0.45   3.98   4.00   4.00   4.00   0.00   0.00   0.00   0.00   0.00   0.00      0      0      0       0     588
 1975 324   140   137   21.0      3   1.15   2646   1486      0   3849   4132      0    0.0  0.000      0      0  0.000  0.000  0.496  0.000   0.90   0.00   0.00      0      0     43.3   0.00   0.00   0.45   3.96   4.00   4.00   4.00   0.00   0.00   0.00   0.00   0.00   0.00      0      0      0       0     607
 1975 325   141   138   21.0      3   1.12   2661   1534      0   3884   4195      0    0.0  0.000      0      0  0.000  0.000  0.508  0.000   0.89   0.00   0.00      0      0     42.0   0.00   0.00   0.45   3.94   4.00   4.00   4.00   0.00   0.00   0.00   0.00   0.00   0.00      0      0      0       0     627
 1975 326   142   139   21.0      3   1.09   2675   1580      0   3916   4255      0    0.0  0.000      0      0  0.000  0.000  0.523  0.000   0.88   0.00   0.00      0      0     40.7   0.00   0.00   0.45   3.92   4.00   4.00   4.00   0.00   0.00   0.00   0.00   0.00   0.00      0      0      0       0     646
 1975 327   143   140   21.0      3   1.06   2688   1619      0   3939   4307      0    0.0  0.000      0      0  0.000  0.000  0.533  0.000   0.87   0.00   0.00      0      0     39.4   0.00   0.00   0.45   4.00   4.00   4.00   4.00   0.00   0.00   0.00   0.00   0.00   0.00      0      0      0       0     666
 1975 328   144   141   21.0      3   1.03   2697   1650      0   3982   4347      0    0.0  0.000      0      0  0.000  0.000  0.541  0.000   0.86   0.00   0.00      0      0     38.1   0.00   0.00   0.45   4.00   4.00   4.00   4.00   0.00   0.00   0.00   0.00   0.00   0.00      0      0      0       0     685
 1975 329   145   142   21.0      3   1.00   2709   1689      0   4017   4398      0    0.0  0.000      0      0  0.000  0.000  0.545  0.000   0.86   0.00   0.00      0      0     36.9   0.00   0.00   0.45   3.98   4.00   4.00   4.00   0.00   0.00   0.00   0.00   0.00   0.00      0      0      0       0     705
 1975 330   146   143   21.0      4   0.96   2678   1424      0   4041   4427      0    0.0  0.000    325      0  0.000  0.000  0.544  0.000   0.92   0.00   0.07      0    325     35.8   0.00   0.00   0.45   3.96   4.00   4.00   4.00   0.00   0.00   0.00   0.00   0.00   0.00      0      0      0       0     725
 1975 331   147   144   21.0      4   0.92   2646   1441      0   4062   4456      0    0.0  0.000    369      0  0.000  0.000  0.538  0.000   0.93   0.00   0.08      0    369     34.8   0.00   0.00   0.45   4.00   4.00   4.00   4.00   0.00   0.00   0.00   0.00   0.00   0.00      0      0      0       0     745
 1975 332   148   145   21.0      4   0.89   2611   1465      0   4046   4504      0    0.0  0.000    428      0  0.000  0.000  0.403  0.000   0.93   0.00   0.10      0    428     34.1   0.00   0.00   0.45   4.00   4.00   3.99   3.99   0.00   0.00   0.00   0.00   0.00   0.00      0      0      0       0     766
 1975 333   149   146   21.0      4   0.86   2575   1477      0   4071   4510      0    0.0  0.000    457      0  0.000  0.000  0.385  0.000   0.94   0.00   0.10      0    457     33.5   0.00   0.00   0.45   4.00   4.00   4.00   4.00   0.00   0.00   0.00   0.00   0.00   0.00      0      0      0       0     786
 1975 334   150   147   21.0      4   0.83   2539   1490      0   4130   4518      0    0.0  0.000    489      0  0.000  0.000  0.369  0.000   0.95   0.00   0.11      0    489     32.9   0.00   0.00   0.45   3.98   4.00   4.00   4.00   0.00   0.00   0.00   0.00   0.00   0.00      0      0      0       0     806
 1975 335   151   148   21.0      4   0.81   2501   1510      0   4177   4550      0    0.0  0.000    539      0  0.000  0.000  0.346  0.000   0.96   0.00   0.12      0    539     32.3   0.00   0.00   0.45   3.96   4.00   4.00   4.00   0.00   0.00   0.00   0.00   0.00   0.00      0      0      0       0     827
 1975 336   152   149   21.0      4   0.78   2462   1542      0   4204   4623      0    0.0  0.000    619      0  0.000  0.000  0.317  0.000   0.96   0.00   0.13      0    619     31.9   0.00   0.00   0.45   4.00   4.00   4.00   4.00   0.00   0.00   0.00   0.00   0.00   0.00      0      0      0       0     848
 1975 337   153   150   21.0      4   0.76   2421   1575      0   4216   4699      0    0.0  0.000    703      0  0.000  0.000  0.289  0.000   0.97   0.00   0.15      0    703     31.5   0.00   0.00   0.45   4.00   4.00   4.00   4.00   0.00   0.00   0.00   0.00   0.00   0.00      0      0      0       0     869
 1975 338   154   151   21.0      4   0.74   2378   1609      0   4241   4775      0    0.0  0.000    788      0  0.000  0.000  0.267  0.000   0.97   0.00   0.17      0    788     31.1   0.00   0.00   0.45   3.98   4.00   4.00   4.00   0.00   0.00   0.00   0.00   0.00   0.00      0      0      0       0     890
 1975 339   155   152   21.0      4   0.72   2333   1635      0   4223   4821      0    0.0  0.000    853      0  0.000  0.000  0.246  0.000   0.98   0.00   0.18      0    853     30.9   0.00   0.00   0.45   3.99   4.00   3.99   3.99   0.00   0.00   0.00   0.00   0.00   0.00      0      0      0       0     911
 1975 340   156   153   21.0      4   0.70   2286   1686      0   4210   4953      0    0.0  0.000    981      0  0.000  0.000  0.216  0.000   0.98   0.00   0.20      0    981     30.7   0.00   0.00   0.45   4.00   4.00   4.00   3.98   0.00   0.00   0.00   0.00   0.00   0.00      0      0      0       0     932
 1975 341   157   154   21.0      4   0.68   2236   1735      0   4196   5072      0    0.0  0.000   1102      0  0.000  0.000  0.195  0.000   0.98   0.00   0.22      0   1102     30.6   0.00   0.00   0.45   4.00   4.00   4.00   3.98   0.00   0.00   0.00   0.00   0.00   0.00      0      0      0       0     953
 1975 342   158   155   21.0      4   0.67   2185   1774      0   4181   5159      0    0.0  0.000   1200      0  0.000  0.000  0.189  0.000   0.99   0.00   0.23      0   1200     30.6   0.00   0.00   0.45   4.00   4.00   4.00   3.97   0.00   0.00   0.00   0.00   0.00   0.00      0      0      0       0     974
 1975 343   159   156   21.0      4   0.65   2131   1811      0   4205   5237      0    0.0  0.000   1294      0  0.000  0.000  0.183  0.000   1.00   0.00   0.25      0   1294     30.7   0.00   0.00   0.45   4.00   4.00   4.00   4.00   0.00   0.00   0.00   0.00   0.00   0.00      0      0      0       0     995
 1975 344   160   157   21.0      5   0.63   2131   1811    119   4200   5355    911   13.0  0.022   1413      7  0.000  0.000  0.314  0.000   0.97   8.41   0.26      0   1413     29.7   0.00   0.00   0.45   3.98   4.00   4.00   4.00   0.00   0.00   0.00   0.00   0.00   0.00      0      0      0       0    1016
 1975 345   161   158   21.0      5   0.61   2131   1811    176   4209   5412    911   19.3  0.032   1469      7  0.000  0.000  0.332  0.000   0.96  11.96   0.27      0   1469     28.8   0.00   0.00   0.45   3.96   4.00   4.00   4.00   0.00   0.00   0.00   0.00   0.00   0.00      0      0      0       0    1037
 1975 346   162   159   21.0      5   0.60   2131   1811    244   4210   5481    911   26.8  0.045   1538      7  0.000  0.000  0.330  0.000   0.95  15.87   0.28      0   1538     28.0   0.00   0.00   0.45   3.94   4.00   4.00   4.00   0.00   0.00   0.00   0.00   0.00   0.00      0      0      0       0    1058
 1975 347   163   160   21.0      5   0.58   2131   1811    287   4220   5523    911   31.5  0.052   1581      7  0.000  0.000  0.335  0.000   0.94  18.14   0.29      0   1581     27.1   0.00   0.00   0.45   3.92   4.00   4.00   4.00   0.00   0.00   0.00   0.00   0.00   0.00      0      0      0       0    1079
 1975 348   164   161   21.0      5   0.56   2131   1811    330   4228   5566    911   36.2  0.059   1623      7  0.000  0.000  0.334  0.000   0.93  20.30   0.29      0   1623     26.3   0.00   0.00   0.45   3.90   4.00   4.00   4.00   0.00   0.00   0.00   0.00   0.00   0.00      0      0      0       0    1100
 1975 349   165   162   21.0      5   0.54   2131   1811    398   4225   5634    911   43.7  0.071   1692      7  0.000  0.000  0.331  0.000   0.92  23.52   0.30      0   1692     25.5   0.00   0.00   0.45   3.88   4.00   4.00   4.00   0.00   0.00   0.00   0.00   0.00   0.00      0      0      0       0    1122
 1975 350   166   163   21.0      5   0.53   2131   1811    466   4218   5703    911   51.2  0.082   1760      7  0.000  0.000  0.332  0.000   0.91  26.48   0.31      0   1760     24.7   0.00   0.00   0.45   3.96   4.00   4.00   4.00   0.00   0.00   0.00   0.00   0.00   0.00      0      0      0       0    1143
 1975 351   167   164   21.0      5   0.51   2131   1811    534   4215   5771    911   58.7  0.093   1828      7  0.000  0.000  0.331  0.000   0.89  29.23   0.32      0   1828     24.0   0.00   0.00   0.45   4.00   4.00   4.00   4.00   0.00   0.00   0.00   0.00   0.00   0.00      0      0      0       0    1164
 1975 352   168   165   21.0      5   0.49   2131   1811    603   4213   5839    911   66.2  0.103   1896      7  0.000  0.000  0.330  0.000   0.88  31.78   0.32      0   1896     23.2   0.00   0.00   0.45   3.98   4.00   4.00   4.00   0.00   0.00   0.00   0.00   0.00   0.00      0      0      0       0    1185
 1975 353   169   166   21.0      5   0.48   2131   1811    643   4205   5879    911   70.6  0.109   1936      7  0.000  0.000  0.338  0.000   0.87  33.19   0.33      0   1936     22.5   0.00   0.00   0.45   3.96   4.00   4.00   4.00   0.00   0.00   0.00   0.00   0.00   0.00      0      0      0       0    1206
 1975 354   170   167   21.0      5   0.46   2131   1811    681   4209   5918    911   74.8  0.115   1975      7  0.000  0.000  0.338  0.000   0.87  34.49   0.33      0   1975     21.8   0.00   0.00   0.45   4.00   4.00   4.00   4.00   0.00   0.00   0.00   0.00   0.00   0.00      0      0      0       0    1227
 1975 355   171   168   21.0      5   0.45   2131   1811    741   4207   5978    911   81.4  0.124   2035      7  0.000  0.000  0.334  0.000   0.86  36.41   0.34      0   2035     21.1   0.00   0.00   0.45   3.98   4.00   4.00   4.00   0.00   0.00   0.00   0.00   0.00   0.00      0      0      0       0    1248
 1975 356   172   169   21.0      5   0.44   2131   1811    809   4197   6046    911   88.9  0.134   2103      7  0.000  0.000  0.334  0.000   0.84  38.48   0.35      0   2103     20.5   0.00   0.00   0.45   4.00   4.00   4.00   4.00   0.00   0.00   0.00   0.00   0.00   0.00      0      0      0       0    1269
 1975 357   173   170   21.0      5   0.42   2131   1811    877   4186   6114    911   96.3  0.143   2171      7  0.000  0.000  0.337  0.000   0.83  40.40   0.36      0   2171     19.9   0.00   0.00   0.45   4.00   4.00   4.00   4.00   0.00   0.00   0.00   0.00   0.00   0.00      0      0      0       0    1290
 1975 358   174   171   21.0      5   0.41   2131   1811    940   4179   6176    911  103.2  0.152   2234      7  0.000  0.000  0.342  0.000   0.82  42.07   0.36      0   2234     19.3   0.00   0.00   0.45   3.98   4.00   4.00   4.00   0.00   0.00   0.00   0.00   0.00   0.00      0      0      0       0    1311
 1975 359   175   172   21.0      5   0.40   2131   1811   1008   4165   6245    911  110.7  0.161   2302      7  0.000  0.000  0.342  0.000   0.81  43.79   0.37      0   2302     18.7   0.00   0.00   0.45   3.96   4.00   4.00   4.00   0.00   0.00   0.00   0.00   0.00   0.00      0      0      0       0    1332
 1975 360   176   173   21.0      5   0.39   2131   1807   1076   4144   6308    911  118.2  0.171   2370      7  0.000  0.000  0.346  0.000   0.79  45.41   0.38      0   2370     18.1   0.00   0.00   0.45   3.96   4.00   4.00   4.00   0.00   0.00   0.00   0.00   0.00   0.00      0      0      0       0    1353
 1975 361   177   174   21.0      5   0.37   2131   1811   1135   4125   6370    911  124.6  0.178   2428      7  0.000  0.000  0.351  0.000   0.78  46.72   0.38      0   2428     17.5   0.00   0.00   0.45   3.95   3.99   3.99   3.98   0.00   0.00   0.00   0.00   0.00   0.00      0      0      0       0    1373
 1975 362   178   175   21.0      5   0.36   2131   1811   1181   4121   6417    911  129.7  0.184   2474      7  0.000  0.000  0.355  0.000   0.78  47.71   0.39      0   2474     17.0   0.00   0.00   0.45   3.93   4.00   4.00   4.00   0.00   0.00   0.00   0.00   0.00   0.00      0      0      0       0    1394
 1975 363   179   176   21.0      5   0.35   2131   1811   1243   4112   6480    911  136.5  0.192   2537      7  0.000  0.000  0.356  0.000   0.76  49.00   0.39      0   2537     16.4   0.00   0.00   0.45   3.91   4.00   4.00   4.00   0.00   0.00   0.00   0.00   0.00   0.00      0      0      0       0    1415
 1975 364   180   177   21.0      5   0.34   2131   1811   1311   4100   6548    911  144.0  0.200   2605      7  0.000  0.000  0.360  0.000   0.75  50.34   0.40      0   2605     15.9   0.00   0.00   0.45   3.89   4.00   4.00   4.00   0.00   0.00   0.00   0.00   0.00   0.00      0      0      0       0    1435
 1975 365   181   178   21.0      5   0.33   2131   1811   1380   4088   6616    911  151.5  0.209   2674      7  0.000  0.000  0.365  0.000   0.74  51.61   0.40      0   2674     15.4   0.00   0.00   0.45   3.87   4.00   4.00   4.00   0.00   0.00   0.00   0.00   0.00   0.00      0      0      0       0    1456
 1976 001   182   179   21.0      5   0.32   2131   1811   1448   4072   6685    911  159.0  0.217   2742      7  0.000  0.000  0.370  0.000   0.73  52.81   0.41      0   2742     14.9   0.00   0.00   0.45   3.85   4.00   4.00   3.99   0.00   0.00   0.00   0.00   0.00   0.00      0      0      0       0    1476
 1976 002   183   180   21.0      5   0.31   2131   1811   1516   4053   6753    911  166.5  0.225   2810      7  0.000  0.000  0.374  0.000   0.71  53.96   0.42      0   2810     14.4   0.00   0.00   0.45   3.83   3.99   3.98   3.97   0.00   0.00   0.00   0.00   0.00   0.00      0      0      0       0    1496
 1976 003   184   181   21.0      5   0.30   2131   1804   1585   4033   6814    911  174.0  0.233   2878      7  0.000  0.000  0.378  0.000   0.70  55.05   0.42      0   2878     14.0   0.00   0.00   0.45   3.83   3.99   3.98   3.97   0.00   0.00   0.00   0.00   0.00   0.00      0      0      0       0    1517
 1976 004   185   182   21.0      5   0.29   2131   1806   1653   4013   6884    911  181.5  0.240   2947      7  0.000  0.000  0.381  0.000   0.69  56.09   0.43      0   2947     13.5   0.00   0.00   0.45   3.82   3.98   3.97   3.95   0.00   0.00   0.00   0.00   0.00   0.00      0      0      0       0    1537
 1976 005   186   183   21.0      5   0.28   2131   1765   1721   3993   6911    911  189.0  0.249   3015      7  0.000  0.000  0.387  0.000   0.69  57.09   0.44      0   3015     13.1   0.00   0.00   0.45   3.82   3.98   3.97   3.95   0.00   0.00   0.00   0.00   0.00   0.00      0      0      0       0    1557
 1976 006   187   184   21.0      5   0.27   2131   1774   1780   3978   6978    911  195.4  0.255   3073      7  0.000  0.000  0.398  0.000   0.68  57.90   0.44      0   3073     12.6   0.00   0.00   0.45   3.83   3.99   3.96   3.94   0.00   0.00   0.00   0.00   0.00   0.00      0      0      0       0    1577
 1976 007   188   185   21.0      5   0.26   2131   1783   1837   3962   7045    911  201.8  0.261   3131      7  0.000  0.000  0.393  0.000   0.66  58.68   0.44      0   3131     12.2   0.00   0.00   0.45   3.85   4.00   3.96   3.93   0.00   0.00   0.00   0.00   0.00   0.00      0      0      0       0    1597
 1976 008   189   186   21.0      5   0.25   2131   1757   1901   3943   7083    911  208.7  0.268   3195      7  0.000  0.000  0.405  0.000   0.66  59.50   0.45      0   3195     11.8   0.00   0.00   0.45   3.85   4.00   3.96   3.93   0.00   0.00   0.00   0.00   0.00   0.00      0      0      0       0    1617
 1976 009   190   187   21.0      5   0.24   2131   1713   1967   3923   7106    911  216.1  0.277   3261      7  0.000  0.000  0.419  0.000   0.65  60.33   0.46      0   3261     11.4   0.00   0.00   0.45   3.85   4.00   3.96   3.93   0.00   0.00   0.00   0.00   0.00   0.00      0      0      0       0    1636
 1976 010   191   188   21.0      5   0.23   2131   1691   2036   3903   7152    911  223.6  0.285   3330      7  0.000  0.000  0.420  0.000   0.64  61.14   0.47      0   3330     11.0   0.00   0.00   0.45   3.85   4.00   3.96   3.93   0.00   0.00   0.00   0.00   0.00   0.00      0      0      0       0    1656
 1976 011   192   189   21.0      5   0.23   2131   1688   2104   3884   7217    911  231.1  0.292   3398      7  0.000  0.000  0.416  0.000   0.63  61.92   0.47      0   3398     10.6   0.00   0.00   0.45   3.85   4.00   3.96   3.93   0.00   0.00   0.00   0.00   0.00   0.00      0      0      0       0    1675
 1976 012   193   190   21.0      5   0.22   2131   1671   2172   3864   7268    911  238.6  0.299   3466      7  0.000  0.000  0.422  0.000   0.62  62.67   0.48      0   3466     10.3   0.00   0.00   0.45   3.85   4.00   3.96   3.93   0.00   0.00   0.00   0.00   0.00   0.00      0      0      0       0    1695
 1976 013   194   191   21.0      5   0.21   2131   1622   2241   3845   7288    911  246.1  0.307   3534      7  0.000  0.000  0.435  0.000   0.62  63.40   0.48      0   3534      9.9   0.00   0.00   0.45   3.85   4.00   3.96   3.93   0.00   0.00   0.00   0.00   0.00   0.00      0      0      0       0    1714
 1976 014   195   192   21.0      5   0.20   2131   1581   2305   3826   7311    911  253.1  0.315   3599      7  0.000  0.000  0.445  0.000   0.61  64.05   0.49      0   3599      9.6   0.00   0.00   0.45   3.85   4.00   3.96   3.93   0.00   0.00   0.00   0.00   0.00   0.00      0      0      0       0    1733
 1976 015   196   193   21.0      5   0.20   2131   1581   2305   3826   7311    911  253.1  0.315   3599      7  0.000  0.000  0.445  0.000   0.61  64.05   0.49      0   3599      9.6   0.00   0.00   0.45   3.85   4.00   3.96   3.93   0.00   0.00   0.00   0.00   0.00   0.00      0      0      0       0    1733
 1976 016   197   194   21.0      5   0.20   2131   1581   2305   3826   7311    911  253.1  0.315   3599      7  0.000  0.000  0.445  0.000   0.61  64.05   0.49      0   3599      9.6   0.00   0.00   0.45   3.85   4.00   3.96   3.93   0.00   0.00   0.00   0.00   0.00   0.00      0      0      0       0    1733
 1976 017   198   195   21.0      5   0.20   2131   1581   2305   3826   7311    911  253.1  0.315   3599      7  0.000  0.000  0.445  0.000   0.61  64.05   0.49      0   3599      9.6   0.00   0.00   0.45   3.85   4.00   3.96   3.93   0.00   0.00   0.00   0.00   0.00   0.00      0      0      0       0    1733
 1976 018   199   196   21.0      5   0.20   2131   1581   2305   3826   7311    911  253.1  0.315   3599      7  0.000  0.000  0.445  0.000   0.61  64.05   0.49      0   3599      9.6   0.00   0.00   0.45   3.85   4.00   3.96   3.93   0.00   0.00   0.00   0.00   0.00   0.00      0      0      0       0    1733

*DSSAT Cropping System Model Ver. 4.0.2.000               Aug 01, 2016; 15:14:26

*RUN   2        : UYMZ                    
 MODEL          : MZCER040 - Maize           
 EXPERIMENT     : UYMZ0103 MZ    late to create DSS                             
 TREATMENT  1   : UYMZ                    

@YEAR DOY   DAS   DAP   L#SD   GSTD   LAID   LWAD   SWAD   GWAD   RWAD   CWAD   G#AD   GWGD   HIAD   PWAD   P#AD   WSPD   WSGD   NSTD   EWSD   LN%D   SH%D   HIPD   PWDD   PWTD     SLAD   CHTD   CWID   RDPD   RL1D   RL2D   RL3D   RL4D   RL5D   RL6D   RL7D   RL8D   RL9D   RL10   CDAD   LDAD   SDAD   SNW0C   SNW1C
 1976 187     3     0    0.0      0   0.00      0      0      0      0      0      0    0.0  0.000      0      0  0.000  0.000  0.000  0.000   0.00   0.00   0.00      0      0      0.0   0.00   0.00   0.03   0.00   0.00   0.00   0.00   0.00   0.00   0.00   0.00   0.00   0.00      0      0      0       0       0
 1976 188     4     1    0.0      0   0.00      0      0      0      0      0      0    0.0  0.000      0      0  0.000  0.000  0.000  0.000   0.00   0.00   0.00      0      0      0.0   0.00   0.00   0.03   0.00   0.00   0.00   0.00   0.00   0.00   0.00   0.00   0.00   0.00      0      0      0       0       0
 1976 189     5     2    0.0      0   0.00      0      0      0      0      0      0    0.0  0.000      0      0  0.000  0.000  0.000  0.000   0.00   0.00   0.00      0      0      0.0   0.00   0.00   0.03   0.00   0.00   0.00   0.00   0.00   0.00   0.00   0.00   0.00   0.00      0      0      0       0       0
 1976 190     6     3    0.0      0   0.00      0      0      0      0      0      0    0.0  0.000      0      0  0.000  0.000  0.000  0.000   0.00   0.00   0.00      0      0      0.0   0.00   0.00   0.03   0.00   0.00   0.00   0.00   0.00   0.00   0.00   0.00   0.00   0.00      0      0      0       0       0
 1976 191     7     4    0.0      0   0.00      0      0      0      0      0      0    0.0  0.000      0      0  0.000  0.000  0.000  0.000   0.00   0.00   0.00      0      0      0.0   0.00   0.00   0.03   0.00   0.00   0.00   0.00   0.00   0.00   0.00   0.00   0.00   0.00      0      0      0       0       0
 1976 192     8     5    0.0      0   0.00      0      0      0      0      0      0    0.0  0.000      0      0  0.000  0.000  0.000  0.000   0.00   0.00   0.00      0      0      0.0   0.00   0.00   0.03   0.00   0.00   0.00   0.00   0.00   0.00   0.00   0.00   0.00   0.00      0      0      0       0       0
 1976 193     9     6    0.0      0   0.00      0      0      0      0      0      0    0.0  0.000      0      0  0.000  0.000  0.000  0.000   0.00   0.00   0.00      0      0      0.0   0.00   0.00   0.03   0.00   0.00   0.00   0.00   0.00   0.00   0.00   0.00   0.00   0.00      0      0      0       0       0
 1976 194    10     7    0.0      0   0.00      0      0      0      0      0      0    0.0  0.000      0      0  0.000  0.000  0.000  0.000   0.00   0.00   0.00      0      0      0.0   0.00   0.00   0.03   0.00   0.00   0.00   0.00   0.00   0.00   0.00   0.00   0.00   0.00      0      0      0       0       0
 1976 195    11     8    0.0      0   0.00      0      0      0      0      0      0    0.0  0.000      0      0  0.000  0.000  0.000  0.000   0.00   0.00   0.00      0      0      0.0   0.00   0.00   0.03   0.00   0.00   0.00   0.00   0.00   0.00   0.00   0.00   0.00   0.00      0      0      0       0       0
 1976 196    12     9    0.0      0   0.00      0      0      0      0      0      0    0.0  0.000      0      0  0.000  0.000  0.000  0.000   0.00   0.00   0.00      0      0      0.0   0.00   0.00   0.03   0.00   0.00   0.00   0.00   0.00   0.00   0.00   0.00   0.00   0.00      0      0      0       0       0
 1976 197    13    10    0.0      0   0.00      0      0      0      0      0      0    0.0  0.000      0      0  0.000  0.000  0.000  0.000   0.00   0.00   0.00      0      0      0.0   0.00   0.00   0.04   0.00   0.00   0.00   0.00   0.00   0.00   0.00   0.00   0.00   0.00      0      0      0       0       0
 1976 198    14    11    0.0      0   0.00      0      0      0      0      0      0    0.0  0.000      0      0  0.000  0.000  0.000  0.000   0.00   0.00   0.00      0      0      0.0   0.00   0.00   0.04   0.00   0.00   0.00   0.00   0.00   0.00   0.00   0.00   0.00   0.00      0      0      0       0       0
 1976 199    15    12    0.0      0   0.00      0      0      0      0      0      0    0.0  0.000      0      0  0.000  0.000  0.000  0.000   0.00   0.00   0.00      0      0      0.0   0.00   0.00   0.04   0.00   0.00   0.00   0.00   0.00   0.00   0.00   0.00   0.00   0.00      0      0      0       0       0
 1976 200    16    13    0.0      0   0.00      0      0      0      0      0      0    0.0  0.000      0      0  0.000  0.000  0.000  0.000   0.00   0.00   0.00      0      0      0.0   0.00   0.00   0.05   0.00   0.00   0.00   0.00   0.00   0.00   0.00   0.00   0.00   0.00      0      0      0       0       0
 1976 201    17    14    0.0      0   0.00      0      0      0      0      0      0    0.0  0.000      0      0  0.000  0.000  0.000  0.000   0.00   0.00   0.00      0      0      0.0   0.00   0.00   0.06   0.00   0.00   0.00   0.00   0.00   0.00   0.00   0.00   0.00   0.00      0      0      0       0       0
 1976 202    18    15    0.0      0   0.00      0      0      0      0      0      0    0.0  0.000      0      0  0.000  0.000  0.000  0.000   0.00   0.00   0.00      0      0      0.0   0.00   0.00   0.07   0.00   0.00   0.00   0.00   0.00   0.00   0.00   0.00   0.00   0.00      0      0      0       0       0
 1976 203    19    16    0.0      0   0.00      0      0      0      0      0      0    0.0  0.000      0      0  0.000  0.000  0.000  0.000   0.00   0.00   0.00      0      0      0.0   0.00   0.00   0.09   0.00   0.00   0.00   0.00   0.00   0.00   0.00   0.00   0.00   0.00      0      0      0       0       0
 1976 204    20    17    0.0      0   0.00      0      0      0      0      0      0    0.0  0.000      0      0  0.000  0.000  0.000  0.000   0.00   0.00   0.00      0      0      0.0   0.00   0.00   0.11   0.00   0.00   0.00   0.00   0.00   0.00   0.00   0.00   0.00   0.00      0      0      0       0       0
 1976 205    21    18    1.0      1   0.00     14     14      0     14     28      0    0.0  0.000      0      0  0.000  0.000  0.012  0.000   4.40   0.00   0.00      0      0     18.8   0.00   0.00   0.12   0.28   0.08   0.00   0.00   0.00   0.00   0.00   0.00   0.00   0.00      0      0      0       0       0
 1976 206    22    19    2.0      1   0.00     14     14      0     14     28      0    0.0  0.000      0      0  0.000  0.000  0.017  0.000   4.54   0.00   0.00      0      0     31.5   0.00   0.00   0.13   0.28   0.08   0.00   0.00   0.00   0.00   0.00   0.00   0.00   0.00      0      0      0       0       0
 1976 207    23    20    2.0      1   0.01     14     14      0     14     28      0    0.0  0.000      0      0  0.000  0.000  0.000  0.000   4.54   0.00   0.00      0      0     39.6   0.00   0.00   0.13   0.28   0.09   0.00   0.00   0.00   0.00   0.00   0.00   0.00   0.00      0      0      0       0       0
 1976 208    24    21    2.0      1   0.01     14     14      0     14     28      0    0.0  0.000      0      0  0.000  0.000  0.000  0.000   4.51   0.00   0.00      0      0     46.7   0.00   0.00   0.14   0.28   0.09   0.00   0.00   0.00   0.00   0.00   0.00   0.00   0.00      0      0      0       0       0
 1976 209    25    22    2.0      1   0.01     14     14      0     15     28      0    0.0  0.000      0      0  0.000  0.000  0.000  0.000   4.50   0.00   0.00      0      0     55.3   0.00   0.00   0.14   0.27   0.10   0.00   0.00   0.00   0.00   0.00   0.00   0.00   0.00      0      0      0       0       0
 1976 210    26    23    2.0      1   0.01     14     14      0     15     28      0    0.0  0.000      0      0  0.000  0.000  0.000  0.000   4.50   0.00   0.00      0      0     59.2   0.00   0.00   0.14   0.27   0.11   0.00   0.00   0.00   0.00   0.00   0.00   0.00   0.00      0      0      0       0       0
 1976 211    27    24    3.0      1   0.01     14     14      0     16     28      0    0.0  0.000      0      0  0.000  0.000  0.000  0.000   4.50   0.00   0.00      0      0     76.4   0.00   0.00   0.15   0.27   0.12   0.00   0.00   0.00   0.00   0.00   0.00   0.00   0.00      0      0      0       0       0
 1976 212    28    25    3.0      1   0.01     14     14      0     16     28      0    0.0  0.000      0      0  0.000  0.000  0.000  0.000   4.47   0.00   0.00      0      0     81.8   0.00   0.00   0.15   0.27   0.12   0.00   0.00   0.00   0.00   0.00   0.00   0.00   0.00      0      0      0       0       0
 1976 213    29    26    3.0      1   0.01     14     14      0     17     28      0    0.0  0.000      0      0  0.000  0.000  0.000  0.000   4.46   0.00   0.00      0      0     80.6   0.00   0.00   0.16   0.27   0.14   0.00   0.00   0.00   0.00   0.00   0.00   0.00   0.00      0      0      0       0       0
 1976 214    30    27    3.0      1   0.01     14     14      0     17     28      0    0.0  0.000      0      0  0.000  0.000  0.000  0.000   4.46   0.00   0.00      0      0     85.7   0.00   0.00   0.16   0.26   0.14   0.00   0.00   0.00   0.00   0.00   0.00   0.00   0.00      0      0      0       0       0
 1976 215    31    28    3.0      1   0.01     14     14      0     17     28      0    0.0  0.000      0      0  0.000  0.000  0.000  0.000   4.46   0.00   0.00      0      0     92.7   0.00   0.00   0.16   0.26   0.15   0.00   0.00   0.00   0.00   0.00   0.00   0.00   0.00      0      0      0       0       0
 1976 216    32    29    3.0      1   0.01     14     14      0     17     28      0    0.0  0.000      0      0  0.000  0.000  0.000  0.000   4.46   0.00   0.00      0      0    102.4   0.00   0.00   0.16   0.26   0.15   0.00   0.00   0.00   0.00   0.00   0.00   0.00   0.00      0      0      0       0       0
 1976 217    33    30    3.0      1   0.02     14     14      0     18     28      0    0.0  0.000      0      0  0.000  0.000  0.000  0.000   4.46   0.00   0.00      0      0    112.6   0.00   0.00   0.17   0.26   0.16   0.00   0.00   0.00   0.00   0.00   0.00   0.00   0.00      0      0      0       0       0
 1976 218    34    31    3.0      1   0.02     14     14      0     18     28      0    0.0  0.000      0      0  0.000  0.000  0.000  0.000   4.46   0.00   0.00      0      0    127.1   0.00   0.00   0.17   0.26   0.16   0.00   0.00   0.00   0.00   0.00   0.00   0.00   0.00      0      0      0       0       0
 1976 219    35    32    4.0      1   0.02     14     14      0     20     28      0    0.0  0.000      0      0  0.000  0.000  0.000  0.000   4.39   0.00   0.00      0      0    176.7   0.00   0.00   0.17   0.26   0.19   0.01   0.00   0.00   0.00   0.00   0.00   0.00   0.00      0      0      0       0       0
 1976 220    36    33    4.0      1   0.03     14     14      0     23     28      0    0.0  0.000      0      0  0.000  0.000  0.000  0.000   4.38   0.00   0.00      0      0    215.3   0.00   0.00   0.18   0.26   0.22   0.02   0.00   0.00   0.00   0.00   0.00   0.00   0.00      0      0      0       0       0
 1976 221    37    34    4.0      1   0.03     14     14      0     23     28      0    0.0  0.000      0      0  0.000  0.000  0.000  0.000   4.38   0.00   0.00      0      0    246.4   0.00   0.00   0.18   0.26   0.23   0.02   0.00   0.00   0.00   0.00   0.00   0.00   0.00      0      0      0       0       0
 1976 222    38    35    4.0      1   0.04     14     14      0     24     28      0    0.0  0.000      0      0  0.000  0.000  0.000  0.000   4.36   0.00   0.00      0      0    263.9   0.00   0.00   0.18   0.25   0.24   0.02   0.00   0.00   0.00   0.00   0.00   0.00   0.00      0      0      0       0       1
 1976 223    39    36    4.0      1   0.04     14     14      0     27     28      0    0.0  0.000      0      0  0.000  0.000  0.000  0.000   4.36   0.00   0.00      0      0    269.8   0.00   0.00   0.18   0.26   0.27   0.04   0.00   0.00   0.00   0.00   0.00   0.00   0.00      0      0      0       0       1
 1976 224    40    37    4.0      1   0.04     14     14      0     29     28      0    0.0  0.000      0      0  0.000  0.000  0.000  0.000   4.35   0.00   0.00      0      0    284.6   0.00   0.00   0.19   0.26   0.30   0.05   0.00   0.00   0.00   0.00   0.00   0.00   0.00      0      0      0       0       1
 1976 225    41    38    4.0      1   0.04     14     14      0     32     28      0    0.0  0.000      0      0  0.000  0.000  0.000  0.000   4.34   0.00   0.00      0      0    315.8   0.00   0.00   0.19   0.26   0.34   0.06   0.00   0.00   0.00   0.00   0.00   0.00   0.00      0      0      0       0       1
 1976 226    42    39    4.0      1   0.05     14     14      0     34     28      0    0.0  0.000      0      0  0.000  0.000  0.000  0.000   4.28   0.00   0.00      0      0    318.0   0.00   0.00   0.19   0.26   0.36   0.07   0.00   0.00   0.00   0.00   0.00   0.00   0.00      0      0      0       0       1
 1976 227    43    40    4.0      1   0.04     15     14      0     36     29      0    0.0  0.000      0      0  0.000  0.000  0.000  0.000   4.25   0.00   0.00      0      0    291.5   0.00   0.00   0.19   0.25   0.38   0.08   0.00   0.00   0.00   0.00   0.00   0.00   0.00      0      0      0       0       1
 1976 228    44    41    4.0      1   0.03     16     14      0     39     30      0    0.0  0.000      0      0  0.000  0.000  0.000  0.000   4.20   0.00   0.00      0      0    192.7   0.00   0.00   0.19   0.25   0.41   0.10   0.00   0.00   0.00   0.00   0.00   0.00   0.00      0      0      0       0       2
 1976 229    45    42    4.0      1   0.03     17     14      0     39     31      0    0.0  0.000      0      0  0.000  0.000  0.000  0.000   4.05   0.00   0.00      0      0    179.7   0.00   0.00   0.19   0.25   0.42   0.10   0.00   0.00   0.00   0.00   0.00   0.00   0.00      0      0      0       0       2
 1976 230    46    43    4.0      1   0.04     19     14      0     41     33      0    0.0  0.000      0      0  0.000  0.000  0.015  0.000   4.06   0.00   0.00      0      0    188.3   0.00   0.00   0.19   0.25   0.44   0.11   0.00   0.00   0.00   0.00   0.00   0.00   0.00      0      0      0       0       2
 1976 231    47    44    4.0      1   0.04     21     14      0     43     35      0    0.0  0.000      0      0  0.000  0.000  0.000  0.000   4.09   0.00   0.00      0      0    173.2   0.00   0.00   0.20   0.25   0.46   0.12   0.00   0.00   0.00   0.00   0.00   0.00   0.00      0      0      0       0       2
 1976 232    48    45    5.0      1   0.04     22     14      0     45     36      0    0.0  0.000      0      0  0.000  0.000  0.000  0.000   4.15   0.00   0.00      0      0    163.0   0.00   0.00   0.20   0.25   0.48   0.14   0.00   0.00   0.00   0.00   0.00   0.00   0.00      0      0      0       0       2
 1976 233    49    46    5.0      1   0.02     23     14      0     48     37      0    0.0  0.000      0      0  0.000  0.000  0.000  0.000   4.13   0.00   0.00      0      0    105.8   0.00   0.00   0.20   0.24   0.51   0.15   0.00   0.00   0.00   0.00   0.00   0.00   0.00      0      0      0       0       2
 1976 234    50    47    5.0      1   0.03     25     14      0     49     39      0    0.0  0.000      0      0  0.000  0.000  0.000  0.000   4.09   0.00   0.00      0      0    101.1   0.00   0.00   0.20   0.24   0.52   0.16   0.00   0.00   0.00   0.00   0.00   0.00   0.00      0      0      0       0       3
 1976 235    51    48    5.0      1   0.02     28     14      0     51     42      0    0.0  0.000      0      0  0.000  0.000  0.000  0.000   4.03   0.00   0.00      0      0     87.5   0.00   0.00   0.21   0.24   0.54   0.17   0.00   0.00   0.00   0.00   0.00   0.00   0.00      0      0      0       0       3
 1976 236    52    49    5.0      1   0.03     31     14      0     52     45      0    0.0  0.000      0      0  0.000  0.000  0.000  0.000   3.92   0.00   0.00      0      0     84.0   0.00   0.00   0.21   0.24   0.55   0.18   0.00   0.00   0.00   0.00   0.00   0.00   0.00      0      0      0       0       3
 1976 237    53    50    5.0      1   0.04     36     14      0     52     50      0    0.0  0.000      0      0  0.000  0.000  0.000  0.000   3.91   0.00   0.00      0      0    101.0   0.00   0.00   0.21   0.23   0.55   0.18   0.00   0.00   0.00   0.00   0.00   0.00   0.00      0      0      0       0       3
 1976 238    54    51    5.0      1   0.05     40     14      0     52     54      0    0.0  0.000      0      0  0.000  0.000  0.000  0.000   3.92   0.00   0.00      0      0    114.2   0.00   0.00   0.22   0.24   0.55   0.18   0.00   0.00   0.00   0.00   0.00   0.00   0.00      0      0      0       0       4
 1976 239    55    52    5.0      1   0.06     46     14      0     52     60      0    0.0  0.000      0      0  0.000  0.000  0.000  0.000   3.80   0.00   0.00      0      0    128.5   0.00   0.00   0.22   0.24   0.55   0.18   0.00   0.00   0.00   0.00   0.00   0.00   0.00      0      0      0       0       4
 1976 240    56    53    6.0      1   0.08     50     14      0     53     64      0    0.0  0.000      0      0  0.000  0.000  0.000  0.000   3.90   0.00   0.00      0      0    155.0   0.00   0.00   0.23   0.25   0.56   0.18   0.00   0.00   0.00   0.00   0.00   0.00   0.00      0      0      0       0       4
[...]
 1995 314   130   127   20.0      3   1.64   2779   1758      0   3517   4537      0    0.0  0.000      0      0  0.000  0.000  0.431  0.000   0.96   0.00   0.00      0      0     58.9   0.00   0.00   0.46   4.00   4.00   4.00   4.00   0.00   0.00   0.00   0.00   0.00   0.00      0      0      0       0     492
 1995 315   131   128   20.0      3   1.59   2795   1809      0   3572   4604      0    0.0  0.000      0      0  0.000  0.000  0.445  0.000   0.94   0.00   0.00      0      0     57.1   0.00   0.00   0.46   3.98   4.00   4.00   4.00   0.00   0.00   0.00   0.00   0.00   0.00      0      0      0       0     509
 1995 316   132   129   20.0      3   1.56   2813   1867      0   3586   4680      0    0.0  0.000      0      0  0.000  0.000  0.451  0.000   0.93   0.00   0.00      0      0     55.3   0.00   0.00   0.46   3.96   4.00   4.00   4.00   0.00   0.00   0.00   0.00   0.00   0.00      0      0      0       0     527
 1995 317   133   130   20.0      3   1.52   2831   1923      0   3616   4754      0    0.0  0.000      0      0  0.000  0.000  0.461  0.000   0.91   0.00   0.00      0      0     53.6   0.00   0.00   0.46   3.94   4.00   4.00   4.00   0.00   0.00   0.00   0.00   0.00   0.00      0      0      0       0     545
 1995 318   134   131   20.0      3   1.48   2848   1978      0   3657   4826      0    0.0  0.000      0      0  0.000  0.000  0.472  0.000   0.90   0.00   0.00      0      0     51.9   0.00   0.00   0.46   3.92   4.00   4.00   4.00   0.00   0.00   0.00   0.00   0.00   0.00      0      0      0       0     563
 1995 319   135   132   20.0      3   1.44   2863   2026      0   3677   4889      0    0.0  0.000      0      0  0.000  0.000  0.483  0.000   0.90   0.00   0.00      0      0     50.3   0.00   0.00   0.46   4.00   4.00   4.00   4.00   0.00   0.00   0.00   0.00   0.00   0.00      0      0      0       0     581
 1995 320   136   133   20.0      3   1.40   2877   2070      0   3718   4947      0    0.0  0.000      0      0  0.000  0.000  0.490  0.000   0.89   0.00   0.00      0      0     48.7   0.00   0.00   0.46   4.00   4.00   4.00   4.00   0.00   0.00   0.00   0.00   0.00   0.00      0      0      0       0     600
 1995 321   137   134   20.0      4   1.35   2846   1739      0   3770   4970      0    0.0  0.000    384      0  0.000  0.000  0.499  0.000   0.96   0.00   0.08      0    384     47.3   0.00   0.00   0.46   4.00   4.00   4.00   4.00   0.00   0.00   0.00   0.00   0.00   0.00      0      0      0       0     618
 1995 322   138   135   20.0      4   1.30   2813   1757      0   3826   4997      0    0.0  0.000    427      0  0.000  0.000  0.500  0.000   0.96   0.00   0.09      0    427     46.1   0.00   0.00   0.46   3.98   4.00   4.00   4.00   0.00   0.00   0.00   0.00   0.00   0.00      0      0      0       0     637
 1995 323   139   136   20.0      4   1.26   2778   1785      0   3828   5060      0    0.0  0.000    497      0  0.000  0.000  0.362  0.000   0.97   0.00   0.10      0    497     45.2   0.00   0.00   0.46   3.96   4.00   4.00   4.00   0.00   0.00   0.00   0.00   0.00   0.00      0      0      0       0     656
 1995 324   140   137   20.0      4   1.22   2742   1820      0   3833   5146      0    0.0  0.000    585      0  0.000  0.000  0.335  0.000   0.97   0.00   0.11      0    585     44.4   0.00   0.00   0.46   3.94   4.00   4.00   4.00   0.00   0.00   0.00   0.00   0.00   0.00      0      0      0       0     675
 1995 325   141   138   20.0      4   1.18   2703   1845      0   3892   5195      0    0.0  0.000    647      0  0.000  0.000  0.317  0.000   0.98   0.00   0.12      0    647     43.7   0.00   0.00   0.46   4.00   4.00   4.00   4.00   0.00   0.00   0.00   0.00   0.00   0.00      0      0      0       0     695
 1995 326   142   139   20.0      4   1.15   2663   1867      0   3973   5234      0    0.0  0.000    704      0  0.000  0.000  0.302  0.000   0.98   0.00   0.13      0    704     43.0   0.00   0.00   0.46   3.98   4.00   4.00   4.00   0.00   0.00   0.00   0.00   0.00   0.00      0      0      0       0     714
 1995 327   143   140   20.0      4   1.11   2622   1893      0   4034   5281      0    0.0  0.000    767      0  0.000  0.000  0.282  0.000   0.99   0.00   0.15      0    767     42.5   0.00   0.00   0.46   4.00   4.00   4.00   4.00   0.00   0.00   0.00   0.00   0.00   0.00      0      0      0       0     734
 1995 328   144   141   20.0      4   1.08   2579   1932      0   4078   5375      0    0.0  0.000    865      0  0.000  0.000  0.254  0.000   0.99   0.00   0.16      0    865     42.0   0.00   0.00   0.46   4.00   4.00   4.00   4.00   0.00   0.00   0.00   0.00   0.00   0.00      0      0      0       0     754
 1995 329   145   142   20.0      4   1.05   2534   1955      0   4152   5412      0    0.0  0.000    923      0  0.000  0.000  0.236  0.000   1.00   0.00   0.17      0    923     41.6   0.00   0.00   0.46   3.98   4.00   4.00   4.00   0.00   0.00   0.00   0.00   0.00   0.00      0      0      0       0     775
 1995 330   146   143   20.0      4   1.03   2488   1978      0   4238   5448      0    0.0  0.000    981      0  0.000  0.000  0.222  0.000   1.01   0.00   0.18      0    981     41.3   0.00   0.00   0.46   4.00   4.00   4.00   4.00   0.00   0.00   0.00   0.00   0.00   0.00      0      0      0       0     795
 1995 331   147   144   20.0      4   1.00   2440   2016      0   4297   5533      0    0.0  0.000   1076      0  0.000  0.000  0.199  0.000   1.01   0.00   0.19      0   1076     41.1   0.00   0.00   0.46   4.00   4.00   4.00   4.00   0.00   0.00   0.00   0.00   0.00   0.00      0      0      0       0     816
 1995 332   148   145   20.0      4   0.98   2391   2059      0   4347   5632      0    0.0  0.000   1182      0  0.000  0.000  0.190  0.000   1.01   0.00   0.21      0   1182     40.9   0.00   0.00   0.46   3.98   4.00   4.00   4.00   0.00   0.00   0.00   0.00   0.00   0.00      0      0      0       0     838
 1995 333   149   146   20.0      4   0.96   2339   2086      0   4330   5677      0    0.0  0.000   1252      0  0.000  0.000  0.182  0.000   1.02   0.00   0.22      0   1252     40.9   0.00   0.00   0.46   3.99   4.00   3.99   3.99   0.00   0.00   0.00   0.00   0.00   0.00      0      0      0       0     860
 1995 334   150   147   20.0      4   0.94   2285   2138      0   4318   5804      0    0.0  0.000   1381      0  0.000  0.000  0.174  0.000   1.02   0.00   0.24      0   1381     40.9   0.00   0.00   0.46   4.00   4.00   4.00   3.99   0.00   0.00   0.00   0.00   0.00   0.00      0      0      0       0     881
 1995 335   151   148   20.0      4   0.92   2229   2189      0   4338   5926      0    0.0  0.000   1508      0  0.000  0.000  0.165  0.000   1.03   0.00   0.25      0   1508     41.1   0.00   0.00   0.46   3.98   4.00   4.00   4.00   0.00   0.00   0.00   0.00   0.00   0.00      0      0      0       0     903
 1995 336   152   149   20.0      5   0.89   2229   2189    141   4341   6067   1104   12.8  0.023   1650      7  0.000  0.000  0.282  0.000   1.00   8.58   0.27      0   1650     39.9   0.00   0.00   0.46   3.96   4.00   4.00   4.00   0.00   0.00   0.00   0.00   0.00   0.00      0      0      0       0     925
 1995 337   153   150   20.0      5   0.86   2229   2189    224   4357   6150   1104   20.3  0.036   1732      7  0.000  0.000  0.302  0.000   0.98  12.95   0.28      0   1732     38.8   0.00   0.00   0.46   4.00   4.00   4.00   4.00   0.00   0.00   0.00   0.00   0.00   0.00      0      0      0       0     946
 1995 338   154   151   20.0      5   0.84   2229   2189    307   4371   6233   1104   27.8  0.049   1815      7  0.000  0.000  0.301  0.000   0.97  16.92   0.29      0   1815     37.6   0.00   0.00   0.46   4.00   4.00   4.00   4.00   0.00   0.00   0.00   0.00   0.00   0.00      0      0      0       0     968
 1995 339   155   152   20.0      5   0.81   2229   2189    390   4371   6316   1104   35.3  0.062   1898      7  0.000  0.000  0.303  0.000   0.95  20.55   0.30      0   1898     36.5   0.00   0.00   0.46   3.98   4.00   4.00   4.00   0.00   0.00   0.00   0.00   0.00   0.00      0      0      0       0     990
 1995 340   156   153   20.0      5   0.79   2229   2189    431   4393   6357   1104   39.0  0.068   1939      7  0.000  0.000  0.311  0.000   0.95  22.22   0.31      0   1939     35.4   0.00   0.00   0.46   4.00   4.00   4.00   4.00   0.00   0.00   0.00   0.00   0.00   0.00      0      0      0       0    1012
 1995 341   157   154   20.0      5   0.77   2229   2189    459   4418   6385   1104   41.6  0.072   1967      7  0.000  0.000  0.311  0.000   0.94  23.33   0.31      0   1967     34.4   0.00   0.00   0.46   4.00   4.00   4.00   4.00   0.00   0.00   0.00   0.00   0.00   0.00      0      0      0       0    1034
 1995 342   158   155   20.0      5   0.74   2229   2189    508   4437   6434   1104   46.0  0.079   2016      7  0.000  0.000  0.307  0.000   0.94  25.19   0.31      0   2016     33.4   0.00   0.00   0.46   3.98   4.00   4.00   4.00   0.00   0.00   0.00   0.00   0.00   0.00      0      0      0       0    1056
 1995 343   159   156   20.0      5   0.72   2229   2189    571   4447   6497   1104   51.7  0.088   2079      7  0.000  0.000  0.307  0.000   0.92  27.47   0.32      0   2079     32.4   0.00   0.00   0.46   4.00   4.00   4.00   4.00   0.00   0.00   0.00   0.00   0.00   0.00      0      0      0       0    1078
 1995 344   160   157   20.0      5   0.70   2229   2189    614   4465   6540   1104   55.6  0.094   2122      7  0.000  0.000  0.310  0.000   0.92  28.94   0.32      0   2122     31.4   0.00   0.00   0.46   4.00   4.00   4.00   4.00   0.00   0.00   0.00   0.00   0.00   0.00      0      0      0       0    1100
 1995 345   161   158   20.0      5   0.68   2229   2189    695   4473   6621   1104   62.9  0.105   2203      7  0.000  0.000  0.307  0.000   0.90  31.55   0.33      0   2203     30.5   0.00   0.00   0.46   3.98   4.00   4.00   4.00   0.00   0.00   0.00   0.00   0.00   0.00      0      0      0       0    1123
 1995 346   162   159   20.0      5   0.66   2229   2189    750   4480   6676   1104   67.9  0.112   2258      7  0.000  0.000  0.315  0.000   0.89  33.21   0.34      0   2258     29.6   0.00   0.00   0.46   4.00   4.00   4.00   4.00   0.00   0.00   0.00   0.00   0.00   0.00      0      0      0       0    1145
 1995 347   163   160   20.0      5   0.64   2229   2189    827   4484   6753   1104   74.9  0.123   2336      7  0.000  0.000  0.314  0.000   0.88  35.43   0.35      0   2336     28.7   0.00   0.00   0.46   4.00   4.00   4.00   4.00   0.00   0.00   0.00   0.00   0.00   0.00      0      0      0       0    1167
 1995 348   164   161   20.0      5   0.62   2229   2189    910   4485   6836   1104   82.4  0.133   2418      7  0.000  0.000  0.317  0.000   0.86  37.64   0.35      0   2418     27.9   0.00   0.00   0.46   3.98   4.00   4.00   4.00   0.00   0.00   0.00   0.00   0.00   0.00      0      0      0       0    1190
 1995 349   165   162   20.0      5   0.60   2229   2189    993   4480   6919   1104   89.9  0.144   2501      7  0.000  0.000  0.323  0.000   0.85  39.70   0.36      0   2501     27.0   0.00   0.00   0.46   4.00   4.00   4.00   4.00   0.00   0.00   0.00   0.00   0.00   0.00      0      0      0       0    1212
 1995 350   166   163   20.0      5   0.58   2229   2189   1076   4481   7002   1104   97.4  0.154   2584      7  0.000  0.000  0.325  0.000   0.83  41.64   0.37      0   2584     26.2   0.00   0.00   0.46   3.98   4.00   4.00   4.00   0.00   0.00   0.00   0.00   0.00   0.00      0      0      0       0    1235
 1995 351   167   164   20.0      5   0.57   2229   2189   1154   4480   7079   1104  104.5  0.163   2662      7  0.000  0.000  0.333  0.000   0.82  43.34   0.38      0   2662     25.4   0.00   0.00   0.46   3.96   4.00   4.00   4.00   0.00   0.00   0.00   0.00   0.00   0.00      0      0      0       0    1257
 1995 352   168   165   20.0      5   0.55   2229   2189   1227   4477   7153   1104  111.1  0.172   2735      7  0.000  0.000  0.340  0.000   0.81  44.86   0.38      0   2735     24.6   0.00   0.00   0.46   4.00   4.00   4.00   4.00   0.00   0.00   0.00   0.00   0.00   0.00      0      0      0       0    1279
 1995 353   169   166   20.0      5   0.53   2229   2189   1310   4461   7235   1104  118.6  0.181   2818      7  0.000  0.000  0.342  0.000   0.79  46.48   0.39      0   2818     23.9   0.00   0.00   0.46   4.00   4.00   4.00   3.99   0.00   0.00   0.00   0.00   0.00   0.00      0      0      0       0    1302
 1995 354   170   167   20.0      5   0.52   2229   2164   1392   4439   7293   1104  126.1  0.191   2901      7  0.000  0.000  0.347  0.000   0.78  48.01   0.40      0   2901     23.1   0.00   0.00   0.46   4.00   4.00   4.00   3.99   0.00   0.00   0.00   0.00   0.00   0.00      0      0      0       0    1324
 1995 355   171   168   20.0      5   0.50   2229   2125   1475   4417   7337   1104  133.6  0.201   2983      7  0.000  0.000  0.355  0.000   0.77  49.45   0.41      0   2983     22.4   0.00   0.00   0.46   4.00   4.00   4.00   3.99   0.00   0.00   0.00   0.00   0.00   0.00      0      0      0       0    1346
 1995 356   172   169   20.0      5   0.48   2229   2091   1558   4394   7386   1104  141.1  0.211   3066      7  0.000  0.000  0.356  0.000   0.76  50.82   0.42      0   3066     21.7   0.00   0.00   0.46   4.00   4.00   4.00   3.99   0.00   0.00   0.00   0.00   0.00   0.00      0      0      0       0    1368
 1995 357   173   170   20.0      5   0.47   2229   2111   1641   4383   7489   1104  148.6  0.219   3149      7  0.000  0.000  0.355  0.000   0.75  52.11   0.42      0   3149     21.0   0.00   0.00   0.46   4.00   4.00   4.00   3.99   0.00   0.00   0.00   0.00   0.00   0.00      0      0      0       0    1390
 1995 358   174   171   20.0      5   0.45   2229   2136   1718   4373   7591   1104  155.5  0.226   3226      7  0.000  0.000  0.358  0.000   0.73  53.25   0.42      0   3226     20.3   0.00   0.00   0.46   3.98   4.00   4.00   4.00   0.00   0.00   0.00   0.00   0.00   0.00      0      0      0       0    1412
 1995 359   175   172   20.0      5   0.44   2229   2165   1786   4366   7687   1104  161.7  0.232   3294      7  0.000  0.000  0.375  0.000   0.71  54.22   0.43      0   3294     19.7   0.00   0.00   0.46   3.96   4.00   4.00   4.00   0.00   0.00   0.00   0.00   0.00   0.00      0      0      0       0    1434
 1995 360   176   173   20.0      5   0.42   2229   2188   1865   4355   7789   1104  168.8  0.239   3373      7  0.000  0.000  0.389  0.000   0.69  55.28   0.43      0   3373     19.0   0.00   0.00   0.46   3.94   4.00   4.00   4.00   0.00   0.00   0.00   0.00   0.00   0.00      0      0      0       0    1456
 1995 361   177   174   20.0      5   0.41   2229   2189   1944   4341   7870   1104  176.0  0.247   3452      7  0.000  0.000  0.407  0.000   0.68  56.31   0.44      0   3452     18.4   0.00   0.00   0.46   3.92   4.00   4.00   4.00   0.00   0.00   0.00   0.00   0.00   0.00      0      0      0       0    1478
 1995 362   178   175   20.0      5   0.40   2229   2189   2026   4320   7952   1104  183.4  0.255   3534      7  0.000  0.000  0.424  0.000   0.67  57.33   0.44      0   3534     17.8   0.00   0.00   0.46   3.90   3.98   3.98   3.98   0.00   0.00   0.00   0.00   0.00   0.00      0      0      0       0    1499
 1995 363   179   176   20.0      5   0.38   2229   2189   2101   4299   8027   1104  190.2  0.262   3609      7  0.000  0.000  0.438  0.000   0.66  58.22   0.45      0   3609     17.1   0.00   0.00   0.46   3.88   3.97   3.96   3.96   0.00   0.00   0.00   0.00   0.00   0.00      0      0      0       0    1521
 1995 364   180   177   20.0      5   0.37   2229   2189   2182   4279   8108   1104  197.6  0.269   3691      7  0.000  0.000  0.448  0.000   0.64  59.14   0.46      0   3691     16.5   0.00   0.00   0.46   3.86   3.96   3.95   3.94   0.00   0.00   0.00   0.00   0.00   0.00      0      0      0       0    1543
 1995 365   181   178   20.0      5   0.36   2229   2189   2265   4260   8191   1104  205.1  0.277   3773      7  0.000  0.000  0.459  0.000   0.63  60.03   0.46      0   3773     15.9   0.00   0.00   0.46   3.86   3.96   3.94   3.93   0.00   0.00   0.00   0.00   0.00   0.00      0      0      0       0    1564
 1996 001   182   179   20.0      5   0.34   2229   2186   2346   4239   8269   1104  212.4  0.284   3855      7  0.000  0.000  0.471  0.000   0.62  60.87   0.47      0   3855     15.4   0.00   0.00   0.46   3.86   3.96   3.94   3.93   0.00   0.00   0.00   0.00   0.00   0.00      0      0      0       0    1585
 1996 002   183   180   20.0      5   0.33   2229   2187   2429   4218   8353   1104  219.9  0.291   3937      7  0.000  0.000  0.483  0.000   0.61  61.70   0.47      0   3937     14.8   0.00   0.00   0.46   3.84   3.95   3.92   3.91   0.00   0.00   0.00   0.00   0.00   0.00      0      0      0       0    1606
 1996 003   184   181   20.0      5   0.32   2229   2175   2512   4197   8424   1104  227.4  0.298   4020      7  0.000  0.000  0.494  0.000   0.60  62.49   0.48      0   4020     14.2   0.00   0.00   0.46   3.84   3.95   3.92   3.91   0.00   0.00   0.00   0.00   0.00   0.00      0      0      0       0    1628
 1996 004   185   182   20.0      5   0.31   2229   2141   2595   4176   8473   1104  234.9  0.306   4103      7  0.000  0.000  0.508  0.000   0.59  63.24   0.48      0   4103     13.7   0.00   0.00   0.46   3.84   3.95   3.92   3.91   0.00   0.00   0.00   0.00   0.00   0.00      0      0      0       0    1649
 1996 005   186   183   20.0      5   0.29   2229   2119   2678   4155   8533   1104  242.4  0.314   4186      7  0.000  0.000  0.520  0.000   0.58  63.97   0.49      0   4186     13.2   0.00   0.00   0.46   3.84   3.95   3.92   3.91   0.00   0.00   0.00   0.00   0.00   0.00      0      0      0       0    1669
 1996 006   187   184   20.0      5   0.28   2229   2126   2730   4138   8593   1104  247.1  0.318   4238      7  0.000  0.000  0.527  0.000   0.57  64.41   0.49      0   4238     12.7   0.00   0.00   0.46   3.85   3.96   3.92   3.90   0.00   0.00   0.00   0.00   0.00   0.00      0      0      0       0    1690
 1996 007   188   185   20.0      5   0.27   2229   2127   2792   4118   8656   1104  252.8  0.323   4300      7  0.000  0.000  0.529  0.000   0.57  64.93   0.50      0   4300     12.2   0.00   0.00   0.46   3.83   3.94   3.90   3.88   0.00   0.00   0.00   0.00   0.00   0.00      0      0      0       0    1711
 1996 008   189   186   20.0      5   0.26   2229   2113   2863   4097   8713   1104  259.2  0.329   4371      7  0.000  0.000  0.541  0.000   0.56  65.50   0.50      0   4371     11.7   0.00   0.00   0.46   3.83   3.94   3.90   3.88   0.00   0.00   0.00   0.00   0.00   0.00      0      0      0       0    1731
 1996 009   190   187   20.0      5   0.26   2229   2113   2863   4097   8713   1104  259.2  0.329   4371      7  0.000  0.000  0.541  0.000   0.56  65.50   0.50      0   4371     11.7   0.00   0.00   0.46   3.83   3.94   3.90   3.88   0.00   0.00   0.00   0.00   0.00   0.00      0      0      0       0    1731
 1996 010   191   188   20.0      5   0.26   2229   2113   2863   4097   8713   1104  259.2  0.329   4371      7  0.000  0.000  0.541  0.000   0.56  65.50   0.50      0   4371     11.7   0.00   0.00   0.46   3.83   3.94   3.90   3.88   0.00   0.00   0.00   0.00   0.00   0.00      0      0      0       0    1731
 1996 011   192   189   20.0      5   0.26   2229   2113   2863   4097   8713   1104  259.2  0.329   4371      7  0.000  0.000  0.541  0.000   0.56  65.50   0.50      0   4371     11.7   0.00   0.00   0.46   3.83   3.94   3.90   3.88   0.00   0.00   0.00   0.00   0.00   0.00      0      0      0       0    1731
