*SOIL NITROGEN DAILY OUTPUT FILE

*DSSAT Cropping System Model Ver. 4.0.2.000               Aug 01, 2016; 15:14:26

*RUN   1        : UYMZ                    
 MODEL          : MZCER040 - Maize           
 EXPERIMENT     : UYMZ0103 MZ    late to create DSS                             
 TREATMENT  1   : UYMZ                    

@YEAR DOY   DAS  NAPC  NI#M    NLCC   NIAD    NOAD   NITD   NHTD  NI1D  NI2D  NI3D  NI4D  NI5D  NI6D  NI7D  NI8D  NI9D  NI10  NH1D  NH2D  NH3D  NH4D  NH5D  NH6D  NH7D  NH8D  NH9D  NH10    NMNC    NITC    NDNC    NIMC    AMLC
 1975 184     0     0     0     0.0   86.4    7840   64.1   22.3  12.5  16.6   8.5   4.9   0.1   0.0   0.0   0.0   0.0   0.0   1.1   1.4   1.5   1.5   1.5  1.48  1.48  0.00  0.00  0.00    0.23    1.04    0.00    0.00    0.00
 1975 185     1     0     0     0.0   86.6    7840   65.0   21.7  12.8  16.7   8.5   5.0   0.1   0.1   0.1   0.0   0.0   0.0   0.8   1.3   1.4   1.4   1.4  1.46  1.46  0.00  0.00  0.00    0.46    1.94    0.00    0.00    0.00
 1975 186     2     0     0     0.0   86.9    7840   65.8   21.1   7.5  16.7  10.5   5.0   0.2   0.1   0.1   0.0   0.0   0.0   0.6   1.3   1.4   1.4   1.4  1.44  1.43  0.00  0.00  0.00    0.69    2.75    0.00    0.00    0.00
 1975 187     3     0     1     0.0   87.1    7840   66.5   20.6   6.9  15.3  11.0   5.9   0.2   0.1   0.1   0.0   0.0   0.0   0.4   1.2   1.4   1.4   1.4  1.42  1.41  0.00  0.00  0.00    0.91    3.49    0.00    0.00    0.00
 1975 188     4     0     1     0.0   87.3    7839   67.2   20.1   7.0  15.0  11.1   6.1   0.3   0.1   0.1   0.0   0.0   0.0   0.3   1.1   1.4   1.4   1.3  1.40  1.39  0.00  0.00  0.00    1.13    4.16    0.00    0.00    0.00
 1975 189     5     0     1     0.0   87.5    7839   67.8   19.7   7.1  15.1  11.1   6.1   0.3   0.2   0.2   0.0   0.0   0.0   0.3   1.1   1.4   1.3   1.3  1.38  1.37  0.00  0.00  0.00    1.34    4.78    0.00    0.00    0.00
 1975 190     6     0     1     0.0   87.7    7839   68.4   19.3   7.2  15.2  11.2   6.1   0.3   0.2   0.2   0.0   0.0   0.0   0.3   1.0   1.3   1.3   1.3  1.36  1.35  0.00  0.00  0.00    1.56    5.38    0.00    0.00    0.00
 1975 191     7     0     1     0.0   88.0    7839   69.0   18.9   7.2  15.3  11.2   6.2   0.4   0.2   0.2   0.0   0.0   0.0   0.3   1.0   1.3   1.3   1.2  1.35  1.33  0.00  0.00  0.00    1.78    5.98    0.00    0.00    0.00
 1975 192     8     0     1     0.0   88.2    7838   69.6   18.6   4.3  15.1  11.9   6.6   0.6   0.2   0.2   0.0   0.0   0.0   0.2   0.9   1.3   1.3   1.2  1.33  1.31  0.00  0.00  0.00    2.02    6.61    0.00    0.00    0.00
 1975 193     9     0     1     0.0   88.4    7838   70.2   18.2   2.0  11.2  12.7   8.2   1.5   0.3   0.3   0.0   0.0   0.0   0.2   0.9   1.3   1.2   1.2  1.31  1.29  0.00  0.00  0.00    2.27    7.22    0.00    0.00    0.00
 1975 194    10     0     1     0.3   88.4    7838   70.5   17.9   1.9   9.5  11.4   8.5   2.9   0.7   0.4   0.0   0.0   0.0   0.2   0.9   1.3   1.2   1.2  1.30  1.28  0.00  0.00  0.00    2.51    7.77    0.01    0.00    0.00
 1975 195    11     0     1     0.3   88.6    7838   71.0   17.6   1.8   8.9  11.2   8.8   3.3   0.8   0.4   0.0   0.0   0.0   0.1   0.8   1.2   1.2   1.2  1.28  1.26  0.00  0.00  0.00    2.74    8.31    0.02    0.00    0.00
 1975 196    12     0     1     0.4   88.7    7837   71.4   17.3   0.4   4.1   9.5  10.6   5.7   1.5   0.5   0.0   0.0   0.0   0.1   0.8   1.2   1.2   1.1  1.27  1.24  0.00  0.00  0.00    2.96    8.81    0.02    0.00    0.00
 1975 197    13     0     1     2.1   87.0    7837   69.9   17.1   0.4   3.4   7.6   9.0   6.5   2.7   1.2   0.0   0.0   0.0   0.1   0.8   1.2   1.2   1.1  1.26  1.22  0.00  0.00  0.00    3.16    9.20    0.15    0.00    0.00
 1975 198    14     0     1     2.4   86.9    7837   70.1   16.9   0.4   3.2   7.0   8.8   6.8   3.0   1.3   0.0   0.0   0.0   0.1   0.8   1.2   1.1   1.1  1.25  1.21  0.00  0.00  0.00    3.34    9.62    0.20    0.00    0.00
 1975 199    15     0     1     3.2   86.3    7837   69.6   16.6   0.5   3.1   6.6   8.3   6.8   3.2   1.5   0.0   0.0   0.0   0.1   0.7   1.2   1.1   1.1  1.23  1.19  0.00  0.00  0.00    3.51   10.01    0.23    0.00    0.00
 1975 200    16     0     1     3.5   86.1    7837   69.7   16.4   0.5   3.1   6.5   8.1   6.8   3.3   1.6   0.0   0.0   0.0   0.1   0.7   1.2   1.1   1.1  1.22  1.18  0.00  0.00  0.00    3.67   10.38    0.24    0.00    0.00
 1975 201    17     0     1     3.6   86.2    7837   70.0   16.2   0.5   3.2   6.5   8.1   6.9   3.4   1.6   0.0   0.0   0.0   0.1   0.7   1.2   1.1   1.1  1.21  1.16  0.00  0.00  0.00    3.81   10.74    0.25    0.00    0.00
 1975 202    18     0     1     3.6   86.3    7836   70.3   16.0   0.5   3.2   6.5   8.1   6.9   3.4   1.7   0.0   0.0   0.0   0.1   0.7   1.1   1.1   1.1  1.20  1.15  0.00  0.00  0.00    3.95   11.08    0.25    0.00    0.00
 1975 203    19     0     1     3.6   86.5    7836   70.7   15.8   0.5   3.2   6.5   8.2   6.9   3.4   1.7   0.0   0.0   0.0   0.1   0.7   1.1   1.1   1.0  1.19  1.13  0.00  0.00  0.00    4.10   11.43    0.26    0.00    0.00
 1975 204    20     0     1     3.6   86.6    7836   71.0   15.6   0.6   3.3   6.6   8.2   7.0   3.4   1.7   0.0   0.0   0.0   0.1   0.6   1.1   1.1   1.0  1.18  1.12  0.00  0.00  0.00    4.26   11.78    0.26    0.00    0.00
 1975 205    21     0     1     3.6   86.8    7836   71.4   15.4   0.6   3.3   6.6   8.2   7.0   3.4   1.7   0.0   0.0   0.0   0.1   0.6   1.1   1.0   1.0  1.17  1.10  0.00  0.00  0.00    4.43   12.15    0.26    0.00    0.00
 1975 206    22     0     1     3.6   87.0    7836   71.7   15.2   0.6   3.3   6.6   8.2   7.0   3.5   1.7   0.0   0.0   0.0   0.1   0.6   1.1   1.0   1.0  1.15  1.09  0.00  0.00  0.00    4.61   12.51    0.27    0.00    0.00
 1975 207    23     0     1     3.6   87.1    7836   72.1   15.0   0.6   3.3   6.6   8.3   7.0   3.5   1.7   0.0   0.0   0.0   0.1   0.6   1.1   1.0   1.0  1.14  1.08  0.00  0.00  0.00    4.78   12.87    0.27    0.00    0.00
 1975 208    24     0     1     3.6   87.3    7836   72.4   14.9   0.7   3.4   6.7   8.3   7.0   3.5   1.8   0.0   0.0   0.0   0.1   0.6   1.1   1.0   1.0  1.13  1.06  0.00  0.00  0.00    4.95   13.21    0.28    0.00    0.00
 1975 209    25     0     1     3.6   87.4    7835   72.7   14.7   0.7   3.4   6.7   8.3   7.1   3.5   1.8   0.0   0.0   0.0   0.1   0.6   1.1   1.0   1.0  1.12  1.05  0.00  0.00  0.00    5.11   13.55    0.28    0.00    0.00
 1975 210    26     0     1     3.6   87.6    7835   73.1   14.5   0.8   3.4   6.7   8.4   7.1   3.5   1.8   0.0   0.0   0.0   0.1   0.6   1.0   1.0   0.9  1.11  1.04  0.00  0.00  0.00    5.26   13.88    0.28    0.00    0.00
 1975 211    27     0     1     3.6   87.8    7835   73.4   14.3   0.8   3.4   6.8   8.4   7.1   3.5   1.8   0.0   0.0   0.0   0.1   0.5   1.0   1.0   0.9  1.10  1.02  0.00  0.00  0.00    5.42   14.21    0.29    0.00    0.00
 1975 212    28     0     1     3.6   87.7    7835   73.5   14.2   0.8   3.3   6.8   8.4   7.1   3.6   1.8   0.0   0.0   0.0   0.1   0.5   1.0   1.0   0.9  1.09  1.01  0.00  0.00  0.00    5.59   14.54    0.29    0.00    0.00
 1975 213    29     0     1     3.6   87.9    7835   73.9   14.0   0.9   3.3   6.8   8.4   7.2   3.6   1.9   0.0   0.0   0.0   0.1   0.5   1.0   0.9   0.9  1.08  1.00  0.00  0.00  0.00    5.77   14.88    0.29    0.00    0.00
 1975 214    30     0     1     3.6   88.1    7834   74.2   13.9   0.9   3.4   6.8   8.5   7.2   3.6   1.9   0.0   0.0   0.0   0.1   0.5   1.0   0.9   0.9  1.07  0.98  0.00  0.00  0.00    5.97   15.24    0.30    0.00    0.00
 1975 215    31     0     1     3.6   88.3    7834   74.6   13.7   0.9   3.4   6.9   8.5   7.2   3.6   1.9   0.0   0.0   0.0   0.1   0.5   1.0   0.9   0.9  1.06  0.97  0.00  0.00  0.00    6.18   15.61    0.30    0.00    0.00
 1975 216    32     0     1     3.6   88.5    7834   75.0   13.6   1.0   3.4   6.9   8.5   7.2   3.6   1.9   0.0   0.0   0.0   0.1   0.5   1.0   0.9   0.9  1.05  0.96  0.00  0.00  0.00    6.39   15.96    0.30    0.00    0.00
 1975 217    33     0     1     3.6   88.7    7834   75.3   13.4   1.0   3.4   6.9   8.5   7.2   3.6   1.9   0.0   0.0   0.0   0.1   0.5   1.0   0.9   0.9  1.04  0.95  0.00  0.00  0.00    6.60   16.32    0.30    0.00    0.00
 1975 218    34     0     1     3.6   88.9    7834   75.6   13.3   1.1   3.5   7.0   8.6   7.3   3.7   1.9   0.0   0.0   0.0   0.1   0.5   1.0   0.9   0.9  1.03  0.94  0.00  0.00  0.00    6.78   16.67    0.31    0.00    0.00
 1975 219    35     0     1     3.6   89.1    7833   76.0   13.1   1.1   3.5   7.0   8.6   7.3   3.7   1.9   0.0   0.0   0.0   0.1   0.5   1.0   0.9   0.8  1.02  0.92  0.00  0.00  0.00    6.96   16.99    0.31    0.00    0.00
 1975 220    36     0     1     3.6   89.2    7833   76.3   13.0   1.1   3.5   7.0   8.6   7.3   3.7   2.0   0.0   0.0   0.0   0.1   0.5   1.0   0.9   0.8  1.01  0.91  0.00  0.00  0.00    7.12   17.29    0.31    0.00    0.00
 1975 221    37     0     1     3.6   89.4    7833   76.6   12.8   0.7   3.7   7.0   8.6   7.3   3.7   2.0   0.0   0.0   0.0   0.1   0.5   0.9   0.9   0.8  1.00  0.90  0.00  0.00  0.00    7.28   17.59    0.32    0.00    0.00
 1975 222    38     0     1     3.7   89.4    7833   76.7   12.7   0.3   2.6   6.6   9.0   7.8   3.9   2.1   0.0   0.0   0.0   0.1   0.5   0.9   0.9   0.8  0.99  0.89  0.00  0.00  0.00    7.45   17.89    0.32    0.00    0.00
 1975 223    39     0     1     4.2   89.1    7833   76.5   12.6   0.2   1.8   5.6   8.8   8.5   4.5   2.3   0.0   0.0   0.0   0.1   0.5   0.9   0.8   0.8  0.98  0.88  0.00  0.00  0.00    7.63   18.19    0.34    0.00    0.00
 1975 224    40     0     1     5.0   88.4    7833   75.9   12.5   0.1   1.5   4.7   8.1   8.7   5.0   2.6   0.0   0.0   0.0   0.1   0.5   0.9   0.8   0.8  0.98  0.87  0.00  0.00  0.00    7.81   18.47    0.39    0.00    0.00
 1975 225    41     0     1     8.6   84.9    7832   72.5   12.4   0.2   1.3   4.1   7.0   8.1   5.3   3.1   0.0   0.0   0.0   0.1   0.4   0.9   0.8   0.8  0.97  0.86  0.00  0.00  0.00    8.00   18.76    0.45    0.00    0.00
 1975 226    42     0     1    10.2   83.5    7832   71.3   12.3   0.2   1.3   3.8   6.6   7.8   5.4   3.2   0.0   0.0   0.0   0.1   0.4   0.9   0.8   0.8  0.96  0.85  0.00  0.00  0.00    8.20   19.07    0.47    0.00    0.00
 1975 227    43     0     1    10.4   83.5    7832   71.3   12.1   0.2   1.3   3.8   6.5   7.8   5.4   3.3   0.0   0.0   0.0   0.1   0.4   0.9   0.8   0.8  0.95  0.84  0.00  0.00  0.00    8.38   19.38    0.48    0.00    0.00
 1975 228    44     0     1    10.6   83.4    7832   71.4   12.0   0.2   1.3   3.8   6.5   7.8   5.5   3.4   0.0   0.0   0.0   0.1   0.4   0.9   0.8   0.8  0.94  0.83  0.00  0.00  0.00    8.57   19.68    0.49    0.00    0.00
 1975 229    45     0     1    10.9   83.3    7832   71.4   11.9   0.2   1.3   3.8   6.4   7.7   5.5   3.4   0.0   0.0   0.0   0.1   0.4   0.9   0.8   0.8  0.94  0.82  0.00  0.00  0.00    8.77   19.99    0.49    0.00    0.00
 1975 230    46     0     1    10.9   83.5    7831   71.7   11.8   0.3   1.3   3.8   6.5   7.7   5.5   3.4   0.0   0.0   0.0   0.1   0.4   0.9   0.8   0.8  0.93  0.81  0.00  0.00  0.00    8.96   20.29    0.50    0.00    0.00
 1975 231    47     0     1    10.9   83.6    7831   71.9   11.7   0.3   1.4   3.8   6.5   7.8   5.5   3.4   0.0   0.0   0.0   0.1   0.4   0.9   0.8   0.7  0.92  0.80  0.00  0.00  0.00    9.15   20.59    0.50    0.00    0.00
 1975 232    48    45     2    10.9  128.8    7831   94.7   34.1  30.9   1.4   3.9   6.5   7.8   5.5   3.4   0.0   0.0   0.0  30.7   0.4   0.9   0.8   0.7  0.91  0.79  0.00  0.00  0.00    9.35   20.91    0.50    0.00    0.02
 1975 233    49    45     2    10.9  129.0    7831   98.8   30.2  36.0   1.4   3.9   6.5   7.8   5.5   3.4   0.0   0.0   0.0  25.5   0.4   0.9   0.8   0.7  0.90  0.78  0.00  0.00  0.00    9.56   24.96    0.51    0.00    0.04
 1975 234    50    45     2    11.1  128.9    7831  105.1   23.8  23.8  10.4   4.2   6.7   8.0   5.6   3.5   0.0   0.0   0.0  17.0   0.4   0.9   0.8   0.7  0.90  0.77  0.00  0.00  0.00    9.80   31.52    0.51    0.00    0.06
 1975 235    51    45     2    12.1  128.0    7830  108.3   19.7  12.1   8.6   7.0   7.9   8.9   6.3   3.9   0.0   0.0   0.0  11.5   0.4   0.9   0.8   0.7  0.89  0.76  0.00  0.00  0.00   10.03   35.80    0.53    0.00    0.11
 1975 236    52    45     2    19.7  120.2    7830  103.4   16.8  14.3   7.5   6.1   6.8   7.9   6.3   4.4   0.0   0.0   0.0   7.7   0.4   0.9   0.8   0.7  0.88  0.76  0.00  0.00  0.00   10.27   38.80    0.65    0.00    0.15
 1975 237    53    45     2    20.5  119.2    7830  104.4   14.8  12.3   8.1   6.2   6.8   8.0   6.5   4.6   0.0   0.0   0.0   5.0   0.4   0.9   0.8   0.7  0.87  0.75  0.00  0.00  0.00   10.50   40.97    0.69    0.00    0.22
 1975 238    54    45     2    21.9  117.8    7830  104.3   13.5   7.7   8.0   6.8   7.0   8.1   6.7   4.8   0.0   0.0   0.0   3.4   0.4   0.8   0.8   0.7  0.87  0.74  0.00  0.00  0.00   10.72   42.39    0.74    0.00    0.26
 1975 239    55    45     2    27.0  112.4    7830   99.7   12.7   8.0   7.0   6.3   6.6   7.6   6.6   5.0   0.0   0.0   0.0   2.4   0.4   0.8   0.7   0.7  0.86  0.73  0.00  0.00  0.00   10.93   43.32    0.82    0.00    0.36
 1975 240    56    45     2    27.7  111.8    7829   99.7   12.1   8.6   6.7   6.2   6.5   7.6   6.6   5.1   0.0   0.0   0.0   1.7   0.4   0.8   0.7   0.7  0.85  0.72  0.00  0.00  0.00   11.11   44.01    0.85    0.00    0.42
 1975 241    57    45     2    29.3  110.3    7829   98.7   11.6   9.0   6.6   6.1   6.4   7.4   6.5   5.1   0.0   0.0   0.0   1.2   0.4   0.8   0.7   0.7  0.85  0.72  0.00  0.00  0.00   11.30   44.58    0.87    0.00    0.50
 1975 242    58    45     2    29.6  109.9    7829   98.5   11.4   9.2   6.4   6.0   6.4   7.4   6.5   5.1   0.0   0.0   0.0   1.0   0.4   0.8   0.7   0.7  0.84  0.71  0.00  0.00  0.00   11.47   44.95    0.88    0.00    0.51
 1975 243    59    45     2    29.8  109.7    7829   98.4   11.2   9.4   6.4   6.0   6.4   7.4   6.5   5.1   0.0   0.0   0.0   0.9   0.4   0.8   0.7   0.7  0.84  0.70  0.00  0.00  0.00   11.65   45.31    0.89    0.00    0.52
 1975 244    60    45     2    29.8  109.7    7829   98.6   11.0   9.5   6.3   6.0   6.4   7.4   6.5   5.1   0.0   0.0   0.0   0.8   0.4   0.8   0.7   0.7  0.83  0.69  0.00  0.00  0.00   11.84   45.67    0.89    0.00    0.52
 1975 245    61    45     2    29.8  109.6    7828   98.8   10.9   9.7   6.2   6.0   6.4   7.4   6.5   5.1   0.0   0.0   0.0   0.6   0.4   0.8   0.7   0.7  0.82  0.69  0.00  0.00  0.00   12.04   46.04    0.90    0.00    0.52
 1975 246    62    45     2    29.8  109.3    7828   98.6   10.7   9.8   6.0   5.9   6.5   7.4   6.6   5.1   0.0   0.0   0.0   0.5   0.4   0.8   0.7   0.7  0.82  0.68  0.00  0.00  0.00   12.25   46.40    0.90    0.00    0.53
 1975 247    63    45     2    29.8  109.0    7828   98.5   10.6   9.9   5.8   5.9   6.5   7.5   6.6   5.1   0.0   0.0   0.0   0.4   0.4   0.8   0.7   0.7  0.81  0.67  0.00  0.00  0.00   12.48   46.77    0.90    0.00    0.53
 1975 248    64    45     2    29.8  108.9    7828   98.5   10.4  10.1   5.7   5.8   6.5   7.5   6.6   5.1   0.0   0.0   0.0   0.4   0.4   0.8   0.7   0.6  0.80  0.66  0.00  0.00  0.00   12.71   47.13    0.91    0.00    0.53
 1975 249    65    45     2    30.1  108.5    7828   98.2   10.3   2.8   7.1   6.6   6.8   7.6   6.7   5.2   0.0   0.0   0.0   0.3   0.4   0.8   0.7   0.6  0.79  0.66  0.00  0.00  0.00   12.94   47.49    0.91    0.00    0.53
 1975 250    66    45     2    32.8  105.3    7827   95.2   10.2   2.4   5.9   6.2   6.7   7.5   6.7   5.3   0.0   0.0   0.0   0.2   0.4   0.8   0.7   0.6  0.79  0.65  0.00  0.00  0.00   13.18   47.83    0.92    0.00    0.53
 1975 251    67    45     2    33.3  104.6    7827   94.6   10.0   2.4   5.6   6.1   6.6   7.5   6.7   5.4   0.0   0.0   0.0   0.2   0.4   0.8   0.7   0.6  0.78  0.64  0.00  0.00  0.00   13.40   48.16    0.93    0.00    0.55
 1975 252    68    45     2    33.3  104.8    7827   94.9    9.9   2.4   5.7   6.1   6.6   7.5   6.7   5.4   0.0   0.0   0.0   0.1   0.4   0.8   0.7   0.6  0.78  0.63  0.00  0.00  0.00   13.61   48.46    0.93    0.00    0.55
 1975 253    69    45     2    33.3  104.8    7827   94.9    9.9   2.5   5.6   6.1   6.7   7.6   6.7   5.4   0.0   0.0   0.0   0.1   0.4   0.8   0.7   0.6  0.77  0.63  0.00  0.00  0.00   13.81   48.73    0.94    0.00    0.56
 1975 254    70    45     2    33.3  104.4    7826   94.6    9.8   2.5   5.4   6.0   6.7   7.6   6.7   5.4   0.0   0.0   0.0   0.1   0.4   0.8   0.7   0.6  0.76  0.62  0.00  0.00  0.00   14.00   48.99    0.94    0.00    0.56
 1975 255    71    45     2    33.3  103.8    7826   94.1    9.7   2.5   5.1   5.9   6.7   7.6   6.7   5.4   0.0   0.0   0.0   0.1   0.4   0.8   0.7   0.6  0.76  0.62  0.00  0.00  0.00   14.19   49.25    0.95    0.00    0.57
 1975 256    72    45     2    33.3  104.0    7826   94.4    9.6   2.6   5.2   5.9   6.7   7.6   6.7   5.4   0.0   0.0   0.0   0.1   0.4   0.7   0.7   0.6  0.75  0.61  0.00  0.00  0.00   14.39   49.51    0.95    0.00    0.57
 1975 257    73    45     2    33.3  103.2    7826   93.7    9.5   2.6   4.8   5.7   6.7   7.6   6.7   5.4   0.0   0.0   0.0   0.1   0.4   0.7   0.7   0.6  0.75  0.60  0.00  0.00  0.00   14.60   49.78    0.95    0.00    0.58
 1975 258    74    45     2    33.3  102.8    7826   93.3    9.5   2.6   4.6   5.6   6.8   7.6   6.8   5.4   0.0   0.0   0.0   0.1   0.4   0.7   0.7   0.6  0.74  0.60  0.00  0.00  0.00   14.82   50.05    0.96    0.00    0.58
 1975 259    75    45     2    33.3  101.9    7825   92.5    9.4   2.7   4.3   5.4   6.8   7.6   6.8   5.4   0.0   0.0   0.0   0.0   0.4   0.7   0.7   0.6  0.74  0.59  0.00  0.00  0.00   15.02   50.32    0.96    0.00    0.59
 1975 260    76    45     2    33.3  101.4    7825   92.1    9.3   2.7   4.1   5.3   6.8   7.7   6.8   5.4   0.0   0.0   0.0   0.0   0.4   0.7   0.7   0.6  0.73  0.59  0.00  0.00  0.00   15.23   50.58    0.97    0.00    0.59
 1975 261    77    45     2    33.3  100.6    7825   91.4    9.2   2.8   3.8   5.1   6.8   7.7   6.8   5.5   0.0   0.0   0.0   0.0   0.4   0.7   0.7   0.6  0.73  0.58  0.00  0.00  0.00   15.44   50.85    0.97    0.00    0.60
 1975 262    78    45     2    33.3  100.3    7825   91.1    9.2   2.8   3.7   5.0   6.8   7.7   6.8   5.5   0.0   0.0   0.0   0.0   0.4   0.7   0.7   0.6  0.72  0.57  0.00  0.00  0.00   15.65   51.11    0.97    0.00    0.60
 1975 263    79    45     2    33.3   99.6    7825   90.5    9.1   1.2   4.0   5.0   6.8   7.7   6.8   5.5   0.0   0.0   0.0   0.0   0.4   0.7   0.7   0.6  0.72  0.57  0.00  0.00  0.00   15.85   51.38    0.98    0.00    0.60
 1975 264    80    45     2    33.8   97.4    7824   88.4    9.0   0.9   3.1   4.8   6.7   7.7   6.8   5.5   0.0   0.0   0.0   0.1   0.4   0.7   0.6   0.6  0.71  0.56  0.00  0.00  0.00   16.10   51.65    0.98    0.00    0.60
 1975 265    81    45     2    33.8   96.7    7824   87.7    9.0   0.8   2.9   4.7   6.6   7.7   6.8   5.5   0.0   0.0   0.0   0.1   0.4   0.7   0.6   0.6  0.70  0.56  0.00  0.00  0.00   16.34   51.93    0.99    0.00    0.61
 1975 266    82    45     2    33.8   94.9    7824   86.1    8.9   0.8   2.5   4.3   6.4   7.8   6.8   5.5   0.0   0.0   0.0   0.1   0.4   0.7   0.6   0.6  0.70  0.55  0.00  0.00  0.00   16.58   52.20    0.99    0.00    0.62
 1975 267    83    45     2    33.8   92.4    7824   83.7    8.8   0.8   2.0   3.9   6.1   7.8   6.9   5.5   0.0   0.0   0.0   0.0   0.4   0.7   0.6   0.6  0.69  0.55  0.00  0.00  0.00   16.81   52.47    0.99    0.00    0.63
 1975 268    84    45     2    33.8   92.2    7823   83.5    8.7   0.9   1.9   3.8   6.0   7.8   6.9   5.5   0.0   0.0   0.0   0.0   0.4   0.7   0.6   0.6  0.69  0.54  0.00  0.00  0.00   17.03   52.72    1.00    0.00    0.63
 1975 269    85    45     2    33.8   91.1    7823   82.5    8.6   0.9   1.7   3.6   5.9   7.8   6.9   5.6   0.0   0.0   0.0   0.0   0.4   0.6   0.6   0.6  0.69  0.54  0.00  0.00  0.00   17.23   52.97    1.00    0.00    0.63
 1975 270    86    45     2    33.8   90.8    7823   82.2    8.6   0.9   1.7   3.6   5.8   7.8   6.9   5.6   0.0   0.0   0.0   0.0   0.4   0.6   0.6   0.6  0.68  0.53  0.00  0.00  0.00   17.43   53.20    1.00    0.00    0.63
 1975 271    87    45     2    33.8   90.6    7823   82.0    8.5   0.4   1.8   3.6   5.8   7.8   6.9   5.6   0.0   0.0   0.0   0.0   0.4   0.6   0.6   0.6  0.68  0.53  0.00  0.00  0.00   17.62   53.43    1.01    0.00    0.63
 1975 272    88    45     2    34.2   88.4    7823   79.9    8.5   0.1   0.9   3.1   5.6   7.9   7.0   5.6   0.0   0.0   0.0   0.1   0.4   0.6   0.6   0.5  0.67  0.52  0.00  0.00  0.00   17.84   53.66    1.01    0.00    0.64
 1975 273    89    45     2    36.5   85.2    7822   76.7    8.4   0.0   0.3   1.7   4.5   7.9   7.6   6.2   0.0   0.0   0.0   0.1   0.4   0.6   0.6   0.5  0.67  0.52  0.00  0.00  0.00   18.06   53.90    1.02    0.00    0.64
 1975 274    90    45     2    47.5   71.9    7822   63.5    8.4   0.1   0.2   0.9   2.8   6.2   6.7   5.9   0.0   0.0   0.0   0.1   0.4   0.6   0.6   0.5  0.67  0.51  0.00  0.00  0.00   18.30   54.10    1.09    0.00    0.64
 1975 275    91    45     2    51.5   66.7    7822   58.4    8.3   0.1   0.3   0.7   2.2   5.5   6.3   5.8   0.0   0.0   0.0   0.1   0.4   0.6   0.6   0.5  0.66  0.51  0.00  0.00  0.00   18.54   54.36    1.11    0.00    0.65
 1975 276    92    45     2    52.8   64.6    7822   56.4    8.2   0.1   0.3   0.5   1.8   5.3   6.2   5.8   0.0   0.0   0.0   0.1   0.4   0.6   0.6   0.5  0.66  0.50  0.00  0.00  0.00   18.78   54.62    1.12    0.00    0.65
 1975 277    93    45     2    52.9   63.7    7821   55.6    8.1   0.1   0.3   0.4   1.6   5.3   6.2   5.8   0.0   0.0   0.0   0.1   0.4   0.6   0.6   0.5  0.65  0.50  0.00  0.00  0.00   19.00   54.86    1.12    0.00    0.65
 1975 278    94    45     2    52.9   63.2    7821   55.1    8.0   0.2   0.3   0.3   1.4   5.3   6.2   5.8   0.0   0.0   0.0   0.1   0.4   0.5   0.6   0.5  0.65  0.50  0.00  0.00  0.00   19.22   55.09    1.12    0.00    0.66
 1975 279    95    45     2    52.9   62.7    7821   54.7    8.0   0.2   0.3   0.3   1.2   5.3   6.2   5.8   0.0   0.0   0.0   0.1   0.4   0.5   0.5   0.5  0.65  0.49  0.00  0.00  0.00   19.44   55.32    1.13    0.00    0.66
 1975 280    96    45     2    52.9   62.4    7821   54.5    7.9   0.2   0.3   0.3   1.1   5.3   6.2   5.8   0.0   0.0   0.0   0.1   0.4   0.5   0.5   0.5  0.64  0.49  0.00  0.00  0.00   19.65   55.55    1.13    0.00    0.66
 1975 281    97    45     2    52.9   62.2    7821   54.3    7.9   0.2   0.3   0.3   0.9   5.4   6.2   5.8   0.0   0.0   0.0   0.1   0.4   0.5   0.5   0.5  0.64  0.48  0.00  0.00  0.00   19.88   55.79    1.13    0.00    0.66
 1975 282    98    45     2    52.9   62.0    7820   54.2    7.8   0.2   0.3   0.3   0.8   5.4   6.2   5.8   0.0   0.0   0.0   0.0   0.4   0.5   0.5   0.5  0.63  0.48  0.00  0.00  0.00   20.10   56.04    1.14    0.00    0.66
 1975 283    99    45     2    52.9   61.8    7820   54.1    7.8   0.1   0.3   0.3   0.7   5.4   6.3   5.8   0.0   0.0   0.0   0.0   0.4   0.5   0.5   0.5  0.63  0.47  0.00  0.00  0.00   20.31   56.27    1.14    0.00    0.67
 1975 284   100    45     2    52.9   61.6    7820   53.9    7.7   0.1   0.3   0.3   0.7   5.4   6.3   5.9   0.0   0.0   0.0   0.1   0.4   0.5   0.5   0.5  0.63  0.47  0.00  0.00  0.00   20.56   56.52    1.14    0.00    0.67
 1975 285   101    45     2    52.9   61.5    7820   53.8    7.7   0.1   0.3   0.3   0.6   5.4   6.3   5.9   0.0   0.0   0.0   0.1   0.4   0.5   0.5   0.5  0.62  0.47  0.00  0.00  0.00   20.80   56.77    1.14    0.00    0.67
 1975 286   102    45     2    52.9   61.5    7820   53.8    7.6   0.1   0.3   0.3   0.5   5.4   6.3   5.9   0.0   0.0   0.0   0.1   0.4   0.5   0.5   0.5  0.62  0.46  0.00  0.00  0.00   21.02   57.01    1.15    0.00    0.67
 1975 287   103    55     3    52.9   71.4    7819   58.8   12.5   7.0   0.3   0.3   0.5   5.4   6.3   5.9   0.0   0.0   0.0   6.8   0.4   0.5   0.5   0.5  0.61  0.46  0.00  0.00  0.00   21.24   57.25    1.15    0.00    0.74
 1975 288   104    55     3    52.9   71.3    7819   60.2   11.0   8.9   0.3   0.3   0.5   5.5   6.3   5.9   0.0   0.0   0.0   4.8   0.4   0.5   0.5   0.5  0.61  0.46  0.00  0.00  0.00   21.46   58.90    1.15    0.00    0.79
 1975 289   105    55     3    52.9   71.2    7819   61.0   10.2   4.7   2.7   0.4   0.4   5.5   6.3   5.9   0.0   0.0   0.0   3.7   0.4   0.5   0.5   0.5  0.61  0.45  0.00  0.00  0.00   21.67   59.92    1.15    0.00    0.85
 1975 290   106    55     3    52.9   66.2    7819   58.3    7.8   3.1   1.4   0.6   0.4   5.5   6.3   5.9   0.0   0.0   0.0   0.6   0.4   0.5   0.5   0.5  0.60  0.45  0.00  0.00  0.00   21.93   61.28    1.16    0.00    0.86
 1975 291   107    55     3    52.9   63.8    7818   56.4    7.5   2.0   0.7   0.5   0.4   5.5   6.3   5.9   0.0   0.0   0.0   0.2   0.4   0.5   0.5   0.5  0.60  0.45  0.00  0.00  0.00   22.21   61.78    1.16    0.00    0.95
 1975 292   108    55     3    52.9   63.2    7818   55.8    7.3   1.4   0.7   0.4   0.4   5.5   6.3   5.9   0.0   0.0   0.0   0.0   0.4   0.5   0.5   0.5  0.60  0.44  0.00  0.00  0.00   22.48   62.11    1.16    0.00    1.04
 1975 293   109    55     3    52.9   62.1    7818   54.8    7.3   0.5   0.5   0.4   0.3   5.5   6.4   5.9   0.0   0.0   0.0   0.1   0.4   0.5   0.5   0.5  0.59  0.44  0.00  0.00  0.00   22.75   62.39    1.16    0.00    1.04
 1975 294   110    55     3    52.9   61.6    7818   54.3    7.3   0.3   0.3   0.3   0.3   5.6   6.4   5.9   0.0   0.0   0.0   0.0   0.4   0.5   0.5   0.5  0.59  0.43  0.00  0.00  0.00   23.02   62.68    1.17    0.00    1.06
 1975 295   111    55     3    52.9   61.5    7817   54.3    7.2   0.3   0.3   0.3   0.3   5.6   6.4   5.9   0.0   0.0   0.0   0.0   0.4   0.5   0.5   0.5  0.59  0.43  0.00  0.00  0.00   23.26   62.95    1.17    0.00    1.08
 1975 296   112    55     3    52.9   61.5    7817   54.3    7.1   0.1   0.3   0.3   0.3   5.6   6.4   5.9   0.0   0.0   0.0   0.0   0.4   0.5   0.5   0.5  0.58  0.43  0.00  0.00  0.00   23.48   63.20    1.17    0.00    1.09
 1975 297   113    55     3    52.9   61.4    7817   54.3    7.1   0.1   0.3   0.3   0.3   5.6   6.4   5.9   0.0   0.0   0.0   0.0   0.4   0.5   0.5   0.5  0.58  0.42  0.00  0.00  0.00   23.71   63.44    1.17    0.00    1.11
 1975 298   114    55     3    52.9   61.5    7817   54.4    7.1   0.2   0.3   0.3   0.3   5.6   6.4   6.0   0.0   0.0   0.0   0.1   0.4   0.5   0.5   0.5  0.58  0.42  0.00  0.00  0.00   23.94   63.69    1.18    0.00    1.11
 1975 299   115    55     3    52.9   61.5    7816   54.5    7.1   0.2   0.3   0.3   0.3   5.6   6.4   6.0   0.0   0.0   0.0   0.1   0.4   0.5   0.5   0.5  0.57  0.42  0.00  0.00  0.00   24.16   63.94    1.18    0.00    1.11
 1975 300   116    55     3    52.9   61.6    7816   54.6    7.0   0.1   0.3   0.3   0.3   5.6   6.4   6.0   0.0   0.0   0.0   0.1   0.4   0.5   0.5   0.5  0.57  0.42  0.00  0.00  0.00   24.38   64.20    1.18    0.00    1.12
 1975 301   117    55     3    52.9   61.6    7816   54.6    7.0   0.1   0.3   0.3   0.3   5.7   6.4   6.0   0.0   0.0   0.0   0.1   0.4   0.5   0.4   0.5  0.57  0.41  0.00  0.00  0.00   24.63   64.46    1.18    0.00    1.12
 1975 302   118    55     3    52.9   61.6    7816   54.7    7.0   0.1   0.3   0.3   0.3   5.7   6.4   6.0   0.0   0.0   0.0   0.1   0.4   0.5   0.4   0.5  0.56  0.41  0.00  0.00  0.00   24.88   64.73    1.18    0.00    1.12
 1975 303   119    55     3    52.9   61.7    7815   54.8    6.9   0.2   0.3   0.3   0.3   5.7   6.4   6.0   0.0   0.0   0.0   0.1   0.4   0.5   0.4   0.5  0.56  0.41  0.00  0.00  0.00   25.14   65.00    1.19    0.00    1.13
 1975 304   120    55     3    52.9   61.7    7815   54.9    6.9   0.2   0.3   0.3   0.3   5.7   6.5   6.0   0.0   0.0   0.0   0.1   0.4   0.5   0.4   0.4  0.56  0.40  0.00  0.00  0.00   25.36   65.27    1.19    0.00    1.13
 1975 305   121    55     3    52.9   61.8    7815   55.0    6.8   0.1   0.3   0.3   0.3   5.7   6.5   6.0   0.0   0.0   0.0   0.1   0.4   0.5   0.4   0.4  0.56  0.40  0.00  0.00  0.00   25.56   65.53    1.19    0.00    1.14
 1975 306   122    55     3    52.9   61.7    7815   55.0    6.8   0.1   0.3   0.3   0.3   5.7   6.5   6.0   0.0   0.0   0.0   0.1   0.4   0.5   0.4   0.4  0.55  0.40  0.00  0.00  0.00   25.79   65.79    1.19    0.00    1.14
 1975 307   123    55     3    52.9   61.8    7815   55.1    6.7   0.1   0.3   0.3   0.3   5.7   6.5   6.0   0.0   0.0   0.0   0.1   0.4   0.5   0.4   0.4  0.55  0.40  0.00  0.00  0.00   26.03   66.05    1.19    0.00    1.14
 1975 308   124    55     3    52.9   61.8    7814   55.2    6.7   0.1   0.3   0.3   0.3   5.8   6.5   6.0   0.0   0.0   0.0   0.1   0.4   0.5   0.4   0.4  0.55  0.39  0.00  0.00  0.00   26.24   66.31    1.20    0.00    1.15
 1975 309   125    55     3    52.9   61.9    7814   55.2    6.6   0.1   0.3   0.3   0.3   5.8   6.5   6.0   0.0   0.0   0.0   0.1   0.4   0.5   0.4   0.4  0.54  0.39  0.00  0.00  0.00   26.47   66.56    1.20    0.00    1.15
 1975 310   126    55     3    52.9   61.9    7814   55.3    6.6   0.2   0.3   0.3   0.3   5.8   6.5   6.0   0.0   0.0   0.0   0.1   0.4   0.5   0.4   0.4  0.54  0.39  0.00  0.00  0.00   26.70   66.82    1.20    0.00    1.15
 1975 311   127    55     3    52.9   62.0    7814   55.4    6.6   0.2   0.3   0.3   0.3   5.8   6.5   6.0   0.0   0.0   0.0   0.1   0.4   0.5   0.4   0.4  0.54  0.38  0.00  0.00  0.00   26.93   67.07    1.20    0.00    1.16
 1975 312   128    55     3    52.9   62.0    7813   55.5    6.6   0.2   0.3   0.3   0.3   5.8   6.5   6.0   0.0   0.0   0.0   0.1   0.4   0.5   0.4   0.4  0.54  0.38  0.00  0.00  0.00   27.14   67.30    1.20    0.00    1.16
 1975 313   129    55     3    52.9   62.1    7813   55.6    6.5   0.2   0.3   0.3   0.3   5.8   6.5   6.1   0.0   0.0   0.0   0.1   0.4   0.5   0.4   0.4  0.53  0.38  0.00  0.00  0.00   27.35   67.54    1.21    0.00    1.16
 1975 314   130    55     3    52.9   62.1    7813   55.6    6.5   0.1   0.3   0.3   0.3   5.8   6.5   6.1   0.0   0.0   0.0   0.1   0.4   0.5   0.4   0.4  0.53  0.38  0.00  0.00  0.00   27.53   67.77    1.21    0.00    1.17
 1975 315   131    55     3    52.9   62.1    7813   55.6    6.4   0.1   0.3   0.3   0.3   5.8   6.5   6.1   0.0   0.0   0.0   0.1   0.4   0.5   0.4   0.4  0.53  0.38  0.00  0.00  0.00   27.73   68.00    1.21    0.00    1.17
 1975 316   132    55     3    52.9   62.1    7813   55.7    6.4   0.2   0.3   0.3   0.3   5.8   6.6   6.1   0.0   0.0   0.0   0.1   0.4   0.5   0.4   0.4  0.53  0.37  0.00  0.00  0.00   27.94   68.24    1.21    0.00    1.18
 1975 317   133    55     3    52.9   62.2    7812   55.8    6.3   0.1   0.3   0.3   0.3   5.9   6.6   6.1   0.0   0.0   0.0   0.1   0.4   0.5   0.4   0.4  0.52  0.37  0.00  0.00  0.00   28.13   68.49    1.21    0.00    1.18
 1975 318   134    55     3    52.9   62.2    7812   55.9    6.3   0.1   0.3   0.3   0.3   5.9   6.6   6.1   0.0   0.0   0.0   0.1   0.4   0.5   0.4   0.4  0.52  0.37  0.00  0.00  0.00   28.36   68.74    1.21    0.00    1.18
 1975 319   135    55     3    52.9   62.2    7812   56.0    6.3   0.2   0.3   0.3   0.3   5.9   6.6   6.1   0.0   0.0   0.0   0.1   0.4   0.5   0.3   0.4  0.52  0.37  0.00  0.00  0.00   28.60   69.03    1.21    0.00    1.19
 1975 320   136    55     3    54.4   60.8    7812   54.6    6.2   0.1   0.1   0.2   0.3   5.0   6.7   6.3   0.0   0.0   0.0   0.1   0.4   0.5   0.3   0.4  0.51  0.36  0.00  0.00  0.00   28.83   69.31    1.22    0.00    1.19
 1975 321   137    55     3    64.5   50.9    7811   44.6    6.2   0.1   0.1   0.2   0.2   3.4   5.4   5.7   0.0   0.0   0.0   0.1   0.4   0.5   0.3   0.4  0.51  0.36  0.00  0.00  0.00   29.09   69.54    1.22    0.00    1.19
 1975 322   138    55     3    67.5   48.1    7811   41.8    6.2   0.1   0.2   0.2   0.2   2.9   5.1   5.5   0.0   0.0   0.0   0.1   0.4   0.5   0.3   0.4  0.51  0.36  0.00  0.00  0.00   29.35   69.80    1.22    0.00    1.20
 1975 323   139    55     3    67.8   48.1    7811   41.9    6.2   0.2   0.2   0.2   0.2   2.9   5.0   5.5   0.0   0.0   0.0   0.1   0.4   0.5   0.3   0.4  0.51  0.36  0.00  0.00  0.00   29.59   70.05    1.23    0.00    1.20
 1975 324   140    55     3    67.8   48.3    7811   42.1    6.2   0.2   0.2   0.2   0.3   2.9   5.0   5.5   0.0   0.0   0.0   0.1   0.4   0.5   0.3   0.4  0.51  0.36  0.00  0.00  0.00   29.83   70.28    1.23    0.00    1.21
 1975 325   141    55     3    67.8   48.5    7810   42.3    6.2   0.2   0.3   0.3   0.3   2.9   5.1   5.5   0.0   0.0   0.0   0.1   0.4   0.5   0.3   0.4  0.50  0.35  0.00  0.00  0.00   30.07   70.51    1.23    0.00    1.21
 1975 326   142    55     3    67.8   48.7    7810   42.5    6.2   0.2   0.3   0.3   0.3   2.9   5.1   5.5   0.0   0.0   0.0   0.1   0.4   0.5   0.4   0.4  0.50  0.35  0.00  0.00  0.00   30.32   70.75    1.23    0.00    1.21
 1975 327   143    55     3    67.8   48.8    7810   42.6    6.2   0.1   0.3   0.3   0.3   3.0   5.1   5.5   0.0   0.0   0.0   0.0   0.4   0.5   0.4   0.4  0.50  0.35  0.00  0.00  0.00   30.56   71.00    1.23    0.00    1.21
 1975 328   144    55     3    67.8   48.8    7810   42.6    6.2   0.1   0.3   0.3   0.3   3.0   5.1   5.5   0.0   0.0   0.0   0.1   0.4   0.5   0.4   0.4  0.50  0.35  0.00  0.00  0.00   30.84   71.26    1.24    0.00    1.21
 1975 329   145    55     3    67.8   48.9    7809   42.7    6.2   0.1   0.3   0.3   0.3   3.0   5.1   5.5   0.0   0.0   0.0   0.1   0.4   0.5   0.4   0.4  0.50  0.35  0.00  0.00  0.00   31.12   71.54    1.24    0.00    1.22
 1975 330   146    55     3    67.8   49.0    7809   42.8    6.2   0.2   0.3   0.3   0.3   3.0   5.1   5.5   0.0   0.0   0.0   0.1   0.4   0.5   0.4   0.4  0.49  0.34  0.00  0.00  0.00   31.38   71.81    1.24    0.00    1.22
 1975 331   147    55     3    67.8   49.0    7809   42.9    6.2   0.1   0.3   0.3   0.3   3.0   5.1   5.6   0.0   0.0   0.0   0.1   0.4   0.5   0.4   0.4  0.49  0.34  0.00  0.00  0.00   31.63   72.07    1.24    0.00    1.23
 1975 332   148    55     3    67.8   49.0    7808   42.9    6.1   0.1   0.3   0.3   0.3   3.0   5.1   5.6   0.0   0.0   0.0   0.1   0.4   0.5   0.4   0.4  0.49  0.34  0.00  0.00  0.00   31.90   72.35    1.25    0.00    1.23
 1975 333   149    55     3    67.8   49.1    7808   43.0    6.1   0.1   0.3   0.3   0.3   3.0   5.1   5.6   0.0   0.0   0.0   0.1   0.4   0.5   0.3   0.4  0.49  0.34  0.00  0.00  0.00   32.17   72.64    1.25    0.00    1.23
 1975 334   150    55     3    67.8   49.2    7808   43.1    6.1   0.2   0.3   0.3   0.3   3.1   5.1   5.6   0.0   0.0   0.0   0.1   0.4   0.5   0.3   0.4  0.49  0.34  0.00  0.00  0.00   32.44   72.91    1.25    0.00    1.23
 1975 335   151    55     3    67.8   49.2    7808   43.2    6.1   0.2   0.3   0.3   0.3   3.1   5.1   5.6   0.0   0.0   0.0   0.1   0.4   0.5   0.3   0.4  0.49  0.34  0.00  0.00  0.00   32.67   73.16    1.25    0.00    1.24
 1975 336   152    55     3    67.8   49.3    7807   43.2    6.0   0.1   0.3   0.3   0.3   3.1   5.1   5.6   0.0   0.0   0.0   0.1   0.4   0.5   0.3   0.4  0.48  0.33  0.00  0.00  0.00   32.88   73.39    1.26    0.00    1.24
 1975 337   153    55     3    67.8   49.3    7807   43.2    6.0   0.1   0.3   0.3   0.3   3.1   5.1   5.6   0.0   0.0   0.0   0.1   0.4   0.5   0.3   0.4  0.48  0.33  0.00  0.00  0.00   33.11   73.63    1.26    0.00    1.24
 1975 338   154    55     3    67.8   49.4    7807   43.3    6.0   0.1   0.3   0.3   0.3   3.1   5.2   5.6   0.0   0.0   0.0   0.1   0.4   0.5   0.3   0.4  0.48  0.33  0.00  0.00  0.00   33.35   73.89    1.26    0.00    1.25
 1975 339   155    55     3    67.8   49.4    7807   43.4    6.0   0.1   0.3   0.3   0.3   3.1   5.2   5.6   0.0   0.0   0.0   0.1   0.4   0.5   0.3   0.4  0.48  0.33  0.00  0.00  0.00   33.59   74.15    1.26    0.00    1.25
 1975 340   156    55     3    67.8   49.5    7806   43.5    6.0   0.1   0.3   0.3   0.3   3.1   5.2   5.6   0.0   0.0   0.0   0.1   0.4   0.5   0.3   0.4  0.48  0.33  0.00  0.00  0.00   33.85   74.42    1.27    0.00    1.25
 1975 341   157    55     3    67.8   49.6    7806   43.6    5.9   0.1   0.3   0.3   0.3   3.2   5.2   5.6   0.0   0.0   0.0   0.1   0.4   0.5   0.3   0.4  0.48  0.33  0.00  0.00  0.00   34.12   74.72    1.27    0.00    1.26
 1975 342   158    55     3    67.8   49.6    7806   43.7    5.9   0.1   0.2   0.3   0.3   3.2   5.2   5.6   0.0   0.0   0.0   0.1   0.3   0.5   0.3   0.4  0.47  0.32  0.00  0.00  0.00   34.41   75.01    1.27    0.00    1.26
 1975 343   159    55     3    68.0   49.5    7806   43.6    5.9   0.1   0.3   0.3   0.3   3.2   5.2   5.6   0.0   0.0   0.0   0.1   0.3   0.5   0.3   0.4  0.47  0.32  0.00  0.00  0.00   34.70   75.31    1.27    0.00    1.26
 1975 344   160    55     3    69.3   48.3    7805   42.4    5.9   0.1   0.3   0.3   0.3   3.0   5.0   5.5   0.0   0.0   0.0   0.1   0.3   0.5   0.3   0.4  0.47  0.32  0.00  0.00  0.00   34.98   75.59    1.27    0.00    1.26
 1975 345   161    55     3    69.3   48.4    7805   42.5    5.9   0.2   0.3   0.3   0.3   3.0   5.0   5.6   0.0   0.0   0.0   0.1   0.3   0.5   0.3   0.4  0.47  0.32  0.00  0.00  0.00   35.26   75.88    1.28    0.00    1.27
 1975 346   162    55     3    69.3   48.5    7805   42.6    5.9   0.2   0.3   0.3   0.3   3.0   5.0   5.6   0.0   0.0   0.0   0.0   0.3   0.5   0.3   0.4  0.47  0.32  0.00  0.00  0.00   35.54   76.15    1.28    0.00    1.27
 1975 347   163    55     3    69.3   48.6    7804   42.7    5.9   0.2   0.3   0.3   0.3   3.0   5.0   5.6   0.0   0.0   0.0   0.0   0.3   0.5   0.3   0.4  0.47  0.32  0.00  0.00  0.00   35.82   76.41    1.28    0.00    1.27
 1975 348   164    55     3    69.3   48.6    7804   42.8    5.9   0.2   0.3   0.3   0.3   3.0   5.0   5.6   0.0   0.0   0.0   0.0   0.3   0.5   0.3   0.4  0.46  0.32  0.00  0.00  0.00   36.10   76.68    1.28    0.00    1.28
 1975 349   165    55     3    69.3   48.7    7804   42.8    5.9   0.3   0.3   0.3   0.3   3.0   5.1   5.6   0.0   0.0   0.0   0.0   0.3   0.5   0.3   0.4  0.46  0.31  0.00  0.00  0.00   36.38   76.95    1.28    0.00    1.28
 1975 350   166    55     3    69.3   48.8    7804   42.9    5.9   0.1   0.4   0.3   0.3   3.0   5.1   5.6   0.0   0.0   0.0   0.0   0.3   0.5   0.3   0.4  0.46  0.31  0.00  0.00  0.00   36.64   77.22    1.29    0.00    1.28
 1975 351   167    55     3    69.3   48.8    7803   42.9    5.9   0.1   0.3   0.3   0.3   3.1   5.1   5.6   0.0   0.0   0.0   0.1   0.3   0.5   0.3   0.4  0.46  0.31  0.00  0.00  0.00   36.95   77.50    1.29    0.00    1.28
 1975 352   168    55     3    69.3   48.9    7803   43.0    5.9   0.2   0.3   0.3   0.3   3.1   5.1   5.6   0.0   0.0   0.0   0.1   0.3   0.5   0.3   0.4  0.46  0.31  0.00  0.00  0.00   37.25   77.80    1.29    0.00    1.28
 1975 353   169    55     3    69.3   49.0    7803   43.1    5.9   0.2   0.3   0.3   0.3   3.1   5.1   5.6   0.0   0.0   0.0   0.0   0.3   0.5   0.3   0.4  0.46  0.31  0.00  0.00  0.00   37.56   78.11    1.29    0.00    1.29
 1975 354   170    55     3    69.3   49.1    7802   43.2    5.8   0.2   0.3   0.3   0.3   3.1   5.1   5.6   0.0   0.0   0.0   0.0   0.3   0.5   0.3   0.4  0.46  0.31  0.00  0.00  0.00   37.86   78.42    1.29    0.00    1.29
 1975 355   171    55     3    69.3   49.2    7802   43.3    5.8   0.2   0.3   0.3   0.3   3.1   5.1   5.6   0.0   0.0   0.0   0.1   0.3   0.5   0.3   0.4  0.45  0.31  0.00  0.00  0.00   38.16   78.73    1.30    0.00    1.29
 1975 356   172    55     3    69.3   49.2    7802   43.4    5.8   0.1   0.3   0.3   0.3   3.1   5.1   5.6   0.0   0.0   0.0   0.0   0.3   0.5   0.3   0.4  0.45  0.31  0.00  0.00  0.00   38.43   79.02    1.30    0.00    1.29
 1975 357   173    55     3    69.3   49.2    7802   43.4    5.8   0.2   0.3   0.3   0.3   3.2   5.1   5.6   0.0   0.0   0.0   0.1   0.3   0.5   0.3   0.4  0.45  0.30  0.00  0.00  0.00   38.73   79.33    1.30    0.00    1.29
 1975 358   174    55     3    69.3   49.3    7801   43.5    5.8   0.2   0.3   0.3   0.3   3.2   5.1   5.6   0.0   0.0   0.0   0.1   0.3   0.5   0.3   0.4  0.45  0.30  0.00  0.00  0.00   39.03   79.62    1.30    0.00    1.30
 1975 359   175    55     3    69.3   49.4    7801   43.6    5.8   0.2   0.3   0.3   0.3   3.2   5.1   5.6   0.0   0.0   0.0   0.0   0.3   0.5   0.3   0.4  0.45  0.30  0.00  0.00  0.00   39.33   79.92    1.30    0.00    1.30
 1975 360   176    55     3    69.3   49.5    7801   43.8    5.8   0.1   0.3   0.3   0.3   3.2   5.1   5.6   0.0   0.0   0.0   0.0   0.3   0.5   0.3   0.4  0.45  0.30  0.00  0.00  0.00   39.62   80.23    1.30    0.00    1.30
 1975 361   177    55     3    69.3   49.5    7800   43.8    5.8   0.1   0.3   0.3   0.3   3.2   5.2   5.6   0.0   0.0   0.0   0.1   0.3   0.5   0.3   0.4  0.45  0.30  0.00  0.00  0.00   39.96   80.55    1.31    0.00    1.30
 1975 362   178    55     3    69.3   49.6    7800   43.9    5.8   0.2   0.3   0.3   0.3   3.2   5.2   5.6   0.0   0.0   0.0   0.1   0.3   0.5   0.3   0.4  0.45  0.30  0.00  0.00  0.00   40.28   80.87    1.31    0.00    1.31
 1975 363   179    55     3    69.3   49.7    7800   44.0    5.7   0.2   0.3   0.3   0.3   3.3   5.2   5.7   0.0   0.0   0.0   0.1   0.3   0.5   0.3   0.4  0.44  0.30  0.00  0.00  0.00   40.58   81.17    1.31    0.00    1.31
 1975 364   180    55     3    69.3   49.8    7799   44.0    5.7   0.2   0.3   0.3   0.3   3.3   5.2   5.7   0.0   0.0   0.0   0.0   0.3   0.5   0.3   0.4  0.44  0.30  0.00  0.00  0.00   40.89   81.46    1.31    0.00    1.31
 1975 365   181    55     3    69.3   49.9    7799   44.1    5.7   0.2   0.3   0.3   0.3   3.3   5.2   5.7   0.0   0.0   0.0   0.0   0.3   0.5   0.3   0.4  0.44  0.30  0.00  0.00  0.00   41.20   81.76    1.31    0.00    1.31
 1976 001   182    55     3    69.3   50.0    7799   44.3    5.7   0.2   0.3   0.3   0.3   3.3   5.2   5.7   0.0   0.0   0.0   0.0   0.3   0.5   0.3   0.4  0.44  0.29  0.00  0.00  0.00   41.52   82.08    1.32    0.00    1.32
 1976 002   183    55     3    69.3   50.1    7799   44.4    5.7   0.3   0.3   0.3   0.3   3.3   5.2   5.7   0.0   0.0   0.0   0.0   0.3   0.5   0.3   0.4  0.44  0.29  0.00  0.00  0.00   41.84   82.42    1.32    0.00    1.32
 1976 003   184    55     3    69.3   50.2    7798   44.5    5.7   0.1   0.4   0.3   0.3   3.3   5.2   5.7   0.0   0.0   0.0   0.0   0.3   0.5   0.3   0.4  0.44  0.29  0.00  0.00  0.00   42.17   82.78    1.32    0.00    1.32
 1976 004   185    55     3    69.3   50.2    7798   44.5    5.7   0.1   0.3   0.3   0.3   3.4   5.2   5.7   0.0   0.0   0.0   0.1   0.3   0.5   0.3   0.4  0.44  0.29  0.00  0.00  0.00   42.55   83.14    1.32    0.00    1.32
 1976 005   186    55     3    69.3   50.2    7798   44.6    5.7   0.2   0.3   0.3   0.3   3.4   5.2   5.7   0.0   0.0   0.0   0.1   0.3   0.5   0.3   0.4  0.44  0.29  0.00  0.00  0.00   42.94   83.52    1.32    0.00    1.32
 1976 006   187    55     3    69.3   50.3    7797   44.7    5.7   0.1   0.3   0.3   0.3   3.4   5.2   5.7   0.0   0.0   0.0   0.1   0.3   0.5   0.3   0.4  0.43  0.29  0.00  0.00  0.00   43.31   83.86    1.32    0.00    1.33
 1976 007   188    55     3    71.4   48.4    7797   42.7    5.7   0.2   0.3   0.3   0.3   3.0   5.0   5.6   0.0   0.0   0.0   0.1   0.3   0.5   0.3   0.4  0.43  0.29  0.00  0.00  0.00   43.67   84.18    1.33    0.00    1.33
 1976 008   189    55     3    72.1   47.9    7797   42.2    5.7   0.2   0.3   0.3   0.3   2.9   4.9   5.6   0.0   0.0   0.0   0.1   0.3   0.5   0.4   0.4  0.43  0.29  0.00  0.00  0.00   44.00   84.47    1.33    0.00    1.33
 1976 009   190    55     3    72.1   48.0    7796   42.3    5.7   0.2   0.3   0.3   0.3   3.0   4.9   5.6   0.0   0.0   0.0   0.0   0.3   0.5   0.4   0.4  0.43  0.29  0.00  0.00  0.00   44.32   84.74    1.33    0.00    1.33
 1976 010   191    55     3    72.3   47.9    7796   42.1    5.8   0.1   0.3   0.3   0.3   2.9   4.9   5.6   0.0   0.0   0.0   0.0   0.4   0.5   0.4   0.4  0.43  0.29  0.00  0.00  0.00   44.63   85.00    1.33    0.00    1.34
 1976 011   192    55     3    74.3   46.0    7796   40.2    5.8   0.1   0.3   0.3   0.3   2.6   4.7   5.4   0.0   0.0   0.0   0.1   0.4   0.5   0.4   0.4  0.43  0.29  0.00  0.00  0.00   44.96   85.27    1.33    0.00    1.34
 1976 012   193    55     3    74.5   46.0    7796   40.2    5.8   0.2   0.3   0.3   0.3   2.6   4.7   5.4   0.0   0.0   0.0   0.1   0.4   0.5   0.4   0.4  0.43  0.28  0.00  0.00  0.00   45.28   85.55    1.33    0.00    1.34
 1976 013   194    55     3    74.5   46.1    7795   40.3    5.8   0.2   0.3   0.3   0.3   2.6   4.7   5.4   0.0   0.0   0.0   0.0   0.4   0.5   0.4   0.4  0.43  0.28  0.00  0.00  0.00   45.61   85.83    1.34    0.00    1.35
 1976 014   195    55     3    76.1   44.6    7795   38.7    5.9   0.0   0.1   0.2   0.3   2.2   4.5   5.5   0.0   0.0   0.0   0.0   0.4   0.5   0.4   0.4  0.43  0.28  0.00  0.00  0.00   45.95   86.12    1.34    0.00    1.35
 1976 015   196    55     3    78.9   42.0    7795   36.0    6.0   0.1   0.2   0.2   0.3   1.8   4.1   5.4   0.0   0.0   0.0   0.1   0.4   0.5   0.4   0.4  0.43  0.28  0.00  0.00  0.00   46.31   86.36    1.37    0.00    1.35
 1976 016   197    55     3    85.7   35.6    7794   29.5    6.0   0.1   0.2   0.2   0.2   1.4   3.3   4.5   0.0   0.0   0.0   0.1   0.4   0.6   0.4   0.4  0.43  0.28  0.00  0.00  0.00   46.66   86.65    1.41    0.00    1.35
 1976 017   198    55     3    88.1   33.5    7794   27.4    6.1   0.1   0.3   0.3   0.3   1.2   3.0   4.2   0.0   0.0   0.0   0.0   0.4   0.6   0.4   0.4  0.43  0.28  0.00  0.00  0.00   47.02   86.95    1.42    0.00    1.35
 1976 018   199    55     3    88.9   33.0    7794   26.9    6.1   0.1   0.3   0.3   0.3   1.2   2.9   4.1   0.0   0.0   0.0   0.0   0.4   0.6   0.4   0.4  0.43  0.28  0.00  0.00  0.00   47.38   87.27    1.42    0.00    1.36

*DSSAT Cropping System Model Ver. 4.0.2.000               Aug 01, 2016; 15:14:26

*RUN   2        : UYMZ                    
 MODEL          : MZCER040 - Maize           
 EXPERIMENT     : UYMZ0103 MZ    late to create DSS                             
 TREATMENT  1   : UYMZ                    

@YEAR DOY   DAS  NAPC  NI#M    NLCC   NIAD    NOAD   NITD   NHTD  NI1D  NI2D  NI3D  NI4D  NI5D  NI6D  NI7D  NI8D  NI9D  NI10  NH1D  NH2D  NH3D  NH4D  NH5D  NH6D  NH7D  NH8D  NH9D  NH10    NMNC    NITC    NDNC    NIMC    AMLC
 1976 184     0     0     0     0.0   86.3    7840   63.8   22.5  15.3  15.1   8.4   4.9   0.1   0.0   0.0   0.0   0.0   0.0   1.2   1.4   1.5   1.5   1.5  1.48  1.48  0.00  0.00  0.00    0.17    0.80    0.00    0.00    0.00
 1976 185     1     0     0     0.0   86.5    7840   64.6   21.9  15.6  15.2   8.5   5.0   0.1   0.1   0.1   0.0   0.0   0.0   1.0   1.4   1.5   1.4   1.4  1.46  1.46  0.00  0.00  0.00    0.35    1.55    0.00    0.00    0.00
 1976 186     2     0     0     0.0   86.7    7840   65.3   21.4  15.7  15.3   8.5   5.0   0.1   0.1   0.1   0.0   0.0   0.0   0.8   1.3   1.4   1.4   1.4  1.44  1.44  0.00  0.00  0.00    0.54    2.24    0.00    0.00    0.00
 1976 187     3     0     1     0.0   86.9    7840   65.9   21.0  15.9  15.4   8.6   5.0   0.2   0.1   0.1   0.0   0.0   0.0   0.7   1.3   1.4   1.4   1.4  1.43  1.42  0.00  0.00  0.00    0.73    2.88    0.00    0.00    0.00
 1976 188     4     0     1     0.0   87.1    7840   66.5   20.6   7.1  18.5   9.5   5.1   0.2   0.1   0.1   0.0   0.0   0.0   0.7   1.2   1.4   1.4   1.3  1.41  1.40  0.00  0.00  0.00    0.92    3.48    0.00    0.00    0.00
 1976 189     5     0     1     0.0   87.3    7839   67.1   20.1   6.4  17.0  10.8   5.1   0.3   0.2   0.2   0.0   0.0   0.0   0.6   1.2   1.4   1.3   1.3  1.39  1.38  0.00  0.00  0.00    1.10    4.11    0.00    0.00    0.00
 1976 190     6     0     1     0.0   87.5    7839   67.7   19.7   6.5  17.1  10.9   5.2   0.3   0.2   0.2   0.0   0.0   0.0   0.5   1.1   1.4   1.3   1.3  1.37  1.36  0.00  0.00  0.00    1.28    4.71    0.00    0.00    0.00
 1976 191     7     0     1     0.0   87.6    7839   68.3   19.3   6.6  17.2  10.9   5.2   0.3   0.2   0.2   0.0   0.0   0.0   0.4   1.1   1.3   1.3   1.3  1.36  1.34  0.00  0.00  0.00    1.45    5.24    0.00    0.00    0.00
 1976 192     8     0     1     0.0   87.8    7839   68.8   19.0   6.6  17.2  10.9   5.3   0.4   0.2   0.2   0.0   0.0   0.0   0.3   1.0   1.3   1.3   1.2  1.34  1.32  0.00  0.00  0.00    1.60    5.74    0.00    0.00    0.00
 1976 193     9     0     1     0.0   87.9    7839   69.2   18.7   6.7  17.3  11.0   5.3   0.4   0.2   0.2   0.0   0.0   0.0   0.3   1.0   1.3   1.3   1.2  1.32  1.31  0.00  0.00  0.00    1.76    6.21    0.00    0.00    0.00
 1976 194    10     0     1     0.0   88.1    7839   69.7   18.4   6.7  17.3  11.0   5.3   0.4   0.3   0.3   0.0   0.0   0.0   0.3   1.0   1.3   1.2   1.2  1.31  1.29  0.00  0.00  0.00    1.91    6.66    0.00    0.00    0.00
 1976 195    11     0     1     0.0   88.2    7838   70.1   18.1   6.8  17.3  11.0   5.4   0.5   0.3   0.3   0.0   0.0   0.0   0.3   0.9   1.3   1.2   1.2  1.29  1.27  0.00  0.00  0.00    2.07    7.10    0.00    0.00    0.00
 1976 196    12     0     1     0.0   88.4    7838   70.6   17.8   6.9  17.3  11.0   5.4   0.5   0.3   0.3   0.0   0.0   0.0   0.3   0.9   1.3   1.2   1.1  1.28  1.25  0.00  0.00  0.00    2.22    7.54    0.00    0.00    0.00
 1976 197    13     0     1     0.0   88.5    7838   71.0   17.5   6.9  17.4  11.1   5.4   0.5   0.3   0.3   0.0   0.0   0.0   0.3   0.9   1.2   1.2   1.1  1.26  1.24  0.00  0.00  0.00    2.38    7.97    0.00    0.00    0.00
 1976 198    14     0     1     0.0   88.7    7838   71.4   17.3   7.0  17.4  11.1   5.5   0.6   0.3   0.3   0.0   0.0   0.0   0.2   0.8   1.2   1.2   1.1  1.25  1.22  0.00  0.00  0.00    2.54    8.40    0.00    0.00    0.00
 1976 199    15     0     1     0.0   88.9    7838   71.9   17.0   7.1  17.4  11.1   5.5   0.6   0.4   0.4   0.0   0.0   0.0   0.2   0.8   1.2   1.2   1.1  1.23  1.21  0.00  0.00  0.00    2.71    8.83    0.00    0.00    0.00
 1976 200    16     0     1     0.0   89.1    7838   72.3   16.8   7.2  17.4  11.1   5.6   0.6   0.4   0.4   0.0   0.0   0.0   0.2   0.8   1.2   1.1   1.1  1.22  1.19  0.00  0.00  0.00    2.89    9.28    0.00    0.00    0.00
 1976 201    17     0     1     0.0   89.3    7837   72.8   16.5   7.3  17.4  11.2   5.6   0.7   0.4   0.4   0.0   0.0   0.0   0.2   0.8   1.2   1.1   1.0  1.21  1.17  0.00  0.00  0.00    3.09    9.75    0.00    0.00    0.00
 1976 202    18     0     1     0.0   89.5    7837   73.3   16.2   7.4  17.4  11.2   5.6   0.7   0.4   0.4   0.0   0.0   0.0   0.2   0.7   1.2   1.1   1.0  1.19  1.16  0.00  0.00  0.00    3.31   10.23    0.00    0.00    0.00
 1976 203    19     0     1     0.0   89.7    7837   73.8   15.9   7.6  17.5  11.3   5.7   0.7   0.4   0.5   0.0   0.0   0.0   0.2   0.7   1.1   1.1   1.0  1.17  1.14  0.00  0.00  0.00    3.55   10.74    0.00    0.00    0.00
 1976 204    20     0     1     0.0   90.0    7837   74.3   15.7   7.7  17.5  11.3   5.7   0.8   0.5   0.5   0.0   0.0   0.0   0.2   0.7   1.1   1.1   1.0  1.16  1.12  0.00  0.00  0.00    3.81   11.27    0.00    0.00    0.00
 1976 205    21     0     1     0.0   90.3    7836   74.9   15.4   6.5  18.2  11.3   5.8   0.8   0.5   0.5   0.0   0.0   0.0   0.2   0.7   1.1   1.0   1.0  1.14  1.11  0.00  0.00  0.00    4.08   11.82    0.00    0.00    0.00
 1976 206    22     0     1     0.1   90.5    7836   75.4   15.1   1.4   7.9  12.5  10.1   3.3   0.8   0.5   0.0   0.0   0.0   0.2   0.6   1.1   1.0   0.9  1.13  1.09  0.00  0.00  0.00    4.36   12.41    0.00    0.00    0.00
 1976 207    23     0     1     0.3   90.4    7836   75.5   14.9   1.3   6.5  10.7  10.2   4.9   1.4   0.7   0.0   0.0   0.0   0.1   0.6   1.1   1.0   0.9  1.12  1.08  0.00  0.00  0.00    4.64   12.88    0.00    0.00    0.00
 1976 208    24     0     1     0.6   90.3    7836   75.6   14.7   1.2   5.8   9.7   9.9   5.8   1.9   0.8   0.0   0.0   0.0   0.1   0.6   1.1   1.0   0.9  1.11  1.06  0.00  0.00  0.00    4.90   13.33    0.00    0.00    0.00
 1976 209    25     0     1     1.7   89.4    7835   74.9   14.5   1.2   5.5   8.9   9.2   6.0   2.4   1.1   0.0   0.0   0.0   0.1   0.6   1.1   1.0   0.9  1.10  1.05  0.00  0.00  0.00    5.15   13.74    0.00    0.00    0.00
 1976 210    26     0     1     2.2   89.1    7835   74.8   14.4   1.2   5.4   8.6   9.0   6.1   2.6   1.2   0.0   0.0   0.0   0.1   0.6   1.0   1.0   0.9  1.09  1.04  0.00  0.00  0.00    5.37   14.15    0.00    0.00    0.00
 1976 211    27     0     1     2.4   89.1    7835   75.0   14.2   1.3   5.5   8.6   8.9   6.1   2.6   1.3   0.0   0.0   0.0   0.1   0.6   1.0   1.0   0.9  1.08  1.02  0.00  0.00  0.00    5.57   14.53    0.01    0.00    0.00
 1976 212    28     0     1     2.4   89.3    7835   75.3   14.0   1.3   5.5   8.6   8.9   6.2   2.7   1.3   0.0   0.0   0.0   0.1   0.5   1.0   1.0   0.9  1.07  1.01  0.00  0.00  0.00    5.76   14.90    0.02    0.00    0.00
 1976 213    29     0     1     2.4   89.5    7834   75.7   13.8   1.3   5.5   8.6   8.9   6.2   2.7   1.3   0.0   0.0   0.0   0.1   0.5   1.0   0.9   0.9  1.06  1.00  0.00  0.00  0.00    5.96   15.26    0.02    0.00    0.00
 1976 214    30     0     1     2.4   89.7    7834   76.0   13.7   1.3   5.6   8.7   8.9   6.2   2.7   1.3   0.0   0.0   0.0   0.1   0.5   1.0   0.9   0.9  1.05  0.98  0.00  0.00  0.00    6.15   15.62    0.02    0.00    0.00
 1976 215    31     0     1     2.5   89.8    7834   76.3   13.5   0.3   4.3   8.5   9.4   6.7   2.9   1.4   0.0   0.0   0.0   0.1   0.5   1.0   0.9   0.8  1.04  0.97  0.00  0.00  0.00    6.33   15.96    0.03    0.00    0.00
 1976 216    32     0     1     2.7   89.7    7834   76.4   13.4   0.3   3.7   7.9   9.5   7.2   3.2   1.5   0.0   0.0   0.0   0.1   0.5   1.0   0.9   0.8  1.03  0.96  0.00  0.00  0.00    6.53   16.29    0.06    0.00    0.00
 1976 217    33     0     1     3.0   89.6    7834   76.3   13.2   0.3   3.3   7.4   9.3   7.5   3.5   1.6   0.0   0.0   0.0   0.1   0.5   1.0   0.9   0.8  1.02  0.95  0.00  0.00  0.00    6.71   16.61    0.09    0.00    0.00
 1976 218    34     0     1     3.4   89.3    7834   76.2   13.1   0.1   2.5   6.7   9.2   8.0   3.8   1.8   0.0   0.0   0.0   0.1   0.5   1.0   0.9   0.8  1.01  0.94  0.00  0.00  0.00    6.89   16.92    0.12    0.00    0.00
 1976 219    35     0     1     4.0   88.8    7833   75.8   13.0   0.1   1.9   5.9   8.9   8.4   4.3   2.1   0.0   0.0   0.0   0.1   0.5   1.0   0.9   0.8  1.00  0.93  0.00  0.00  0.00    7.07   17.23    0.17    0.00    0.00
 1976 220    36     0     1     6.7   86.3    7833   73.4   12.9   0.1   1.7   5.0   7.8   8.0   4.7   2.5   0.0   0.0   0.0   0.1   0.5   1.0   0.9   0.8  0.99  0.92  0.00  0.00  0.00    7.27   17.54    0.24    0.00    0.00
 1976 221    37     0     1     7.8   85.3    7833   72.6   12.7   0.1   1.6   4.8   7.5   7.9   4.9   2.7   0.0   0.0   0.0   0.1   0.5   0.9   0.9   0.8  0.99  0.90  0.00  0.00  0.00    7.47   17.87    0.26    0.00    0.00
 1976 222    38     0     1     8.0   85.3    7833   72.7   12.6   0.2   1.6   4.7   7.4   7.9   4.9   2.7   0.0   0.0   0.0   0.1   0.5   0.9   0.9   0.8  0.98  0.89  0.00  0.00  0.00    7.68   18.21    0.27    0.00    0.00
 1976 223    39     0     1     8.1   85.4    7833   72.9   12.5   0.2   1.6   4.6   7.4   8.0   5.0   2.8   0.0   0.0   0.0   0.1   0.5   0.9   0.8   0.8  0.97  0.88  0.00  0.00  0.00    7.88   18.54    0.28    0.00    0.00
 1976 224    40     0     1     8.3   85.3    7832   73.0   12.3   0.2   1.6   4.7   7.3   7.9   5.0   2.8   0.0   0.0   0.0   0.1   0.5   0.9   0.8   0.8  0.96  0.87  0.00  0.00  0.00    8.07   18.85    0.29    0.00    0.00
 1976 225    41     0     1     8.3   85.5    7832   73.3   12.2   0.2   1.6   4.7   7.3   7.9   5.0   2.8   0.0   0.0   0.0   0.1   0.5   0.9   0.8   0.8  0.95  0.86  0.00  0.00  0.00    8.25   19.16    0.29    0.00    0.00
 1976 226    42     0     1     8.3   85.6    7832   73.5   12.1   0.2   1.6   4.7   7.4   7.9   5.1   2.9   0.0   0.0   0.0   0.1   0.4   0.9   0.8   0.8  0.94  0.85  0.00  0.00  0.00    8.43   19.45    0.30    0.00    0.00
 1976 227    43     0     1     8.3   85.8    7832   73.8   12.0   0.3   1.6   4.7   7.4   8.0   5.1   2.9   0.0   0.0   0.0   0.1   0.4   0.9   0.8   0.7  0.93  0.84  0.00  0.00  0.00    8.60   19.74    0.30    0.00    0.00
 1976 228    44     0     1     8.3   85.9    7832   74.0   11.9   0.3   1.6   4.7   7.4   8.0   5.1   2.9   0.0   0.0   0.0   0.1   0.4   0.9   0.8   0.7  0.93  0.83  0.00  0.00  0.00    8.77   20.02    0.31    0.00    0.00
 1976 229    45     0     1     8.3   86.0    7832   74.2   11.8   0.3   1.6   4.7   7.4   8.0   5.1   2.9   0.0   0.0   0.0   0.1   0.4   0.9   0.8   0.7  0.92  0.82  0.00  0.00  0.00    8.94   20.30    0.31    0.00    0.00
 1976 230    46     0     1     8.3   86.2    7831   74.5   11.7   0.3   1.7   4.8   7.5   8.0   5.1   2.9   0.0   0.0   0.0   0.1   0.4   0.9   0.8   0.7  0.91  0.81  0.00  0.00  0.00    9.11   20.58    0.32    0.00    0.00
 1976 231    47     0     1     8.3   86.3    7831   74.7   11.5   0.3   1.7   4.8   7.5   8.0   5.1   2.9   0.0   0.0   0.0   0.1   0.4   0.9   0.8   0.7  0.90  0.80  0.00  0.00  0.00    9.28   20.85    0.32    0.00    0.00
 1976 232    48    45     2     8.3  131.3    7831   97.4   33.9  31.0   1.7   4.8   7.5   8.0   5.1   2.9   0.0   0.0   0.0  30.7   0.4   0.9   0.8   0.7  0.90  0.79  0.00  0.00  0.00    9.45   21.13    0.32    0.00    0.02
 1976 233    49    45     2     8.3  131.4    7831  100.5   30.9  34.9   1.6   4.8   7.5   8.1   5.1   2.9   0.0   0.0   0.0  26.7   0.4   0.9   0.8   0.7  0.89  0.78  0.00  0.00  0.00    9.63   24.32    0.33    0.00    0.03
 1976 234    50    45     2     8.3  131.4    7831  103.2   28.2  38.5   1.6   4.8   7.6   8.1   5.2   3.0   0.0   0.0   0.0  23.1   0.4   0.9   0.8   0.7  0.88  0.78  0.00  0.00  0.00    9.81   27.17    0.33    0.00    0.05
 1976 235    51    45     2     8.3  131.6    7830  105.8   25.8  41.6   1.7   4.8   7.6   8.1   5.2   3.0   0.0   0.0   0.0  20.0   0.4   0.9   0.8   0.7  0.87  0.77  0.00  0.00  0.00   10.00   29.75    0.34    0.00    0.07
 1976 236    52    45     2     8.3  131.6    7830  108.0   23.6  44.4   1.7   4.8   7.6   8.1   5.2   3.0   0.0   0.0   0.0  17.2   0.4   0.8   0.8   0.7  0.87  0.76  0.00  0.00  0.00   10.19   32.09    0.34    0.00    0.08
 1976 237    53    45     2     8.3  131.7    7830  110.1   21.7  47.0   1.7   4.8   7.6   8.1   5.2   3.0   0.0   0.0   0.0  14.6   0.4   0.8   0.8   0.7  0.86  0.75  0.00  0.00  0.00   10.39   34.24    0.34    0.00    0.10
 1976 238    54    45     2     8.5  131.5    7830  111.6   19.9  11.5  18.8   4.7   8.1   8.4   5.3   3.1   0.0   0.0   0.0  12.4   0.4   0.8   0.7   0.7  0.85  0.74  0.00  0.00  0.00   10.59   36.15    0.35    0.00    0.11
 1976 239    55    45     2     9.0  131.1    7830  113.5   17.6  12.6  16.6   6.0   8.1   8.6   5.6   3.2   0.0   0.0   0.0   9.3   0.4   0.8   0.7   0.7  0.85  0.73  0.00  0.00  0.00   10.80   38.66    0.36    0.00    0.12
 1976 240    56    45     2     9.6  130.4    7829  115.0   15.4  12.9  15.4   6.7   8.0   8.7   5.8   3.4   0.0   0.0   0.0   6.5   0.4   0.8   0.7   0.7  0.84  0.72  0.00  0.00  0.00   11.02   40.99    0.39    0.00    0.17
 1976 241    57    45     2    10.4  129.5    7829  115.7   13.8  11.6  14.7   7.4   8.0   8.8   6.0   3.6   0.0   0.0   0.0   4.4   0.4   0.8   0.7   0.7  0.83  0.72  0.00  0.00  0.00   11.24   42.76    0.42    0.00    0.22
 1976 242    58    45     2    12.5  127.3    7829  114.6   12.7  12.9  13.8   7.3   7.7   8.5   6.0   3.8   0.0   0.0   0.0   3.0   0.4   0.8   0.7   0.7  0.83  0.71  0.00  0.00  0.00   11.46   44.01    0.46    0.00    0.23
 1976 243    59    45     2    13.4  126.0    7829  113.9   12.0  13.6  13.2   7.3   7.6   8.4   6.0   3.8   0.0   0.0   0.0   2.2   0.4   0.8   0.7   0.6  0.82  0.70  0.00  0.00  0.00   11.68   44.87    0.48    0.00    0.24
 1976 244    60    45     2    13.4  125.9    7829  114.3   11.7  14.0  13.1   7.3   7.6   8.4   6.1   3.8   0.0   0.0   0.0   1.8   0.4   0.8   0.7   0.6  0.81  0.69  0.00  0.00  0.00   11.89   45.44    0.48    0.00    0.25
 1976 245    61    45     2    13.4  125.8    7828  114.5   11.3  14.5  12.9   7.3   7.6   8.4   6.1   3.9   0.0   0.0   0.0   1.5   0.4   0.8   0.7   0.6  0.81  0.68  0.00  0.00  0.00   12.12   46.02    0.49    0.00    0.26
 1976 246    62    45     2    13.7  125.2    7828  114.2   11.0   3.4  12.7   9.4   8.4   8.7   6.2   4.0   0.0   0.0   0.0   1.2   0.4   0.8   0.7   0.6  0.80  0.68  0.00  0.00  0.00   12.35   46.53    0.50    0.00    0.26
 1976 247    63    45     2    14.3  124.4    7828  113.7   10.7   3.0  10.6   9.4   8.8   9.0   6.5   4.1   0.0   0.0   0.0   0.9   0.4   0.8   0.7   0.6  0.79  0.67  0.00  0.00  0.00   12.60   47.09    0.53    0.00    0.26
 1976 248    64    45     2    17.2  120.9    7828  110.6   10.3   3.2   9.5   8.8   8.5   8.8   6.6   4.4   0.0   0.0   0.0   0.4   0.4   0.8   0.7   0.6  0.79  0.66  0.00  0.00  0.00   12.85   47.62    0.59    0.00    0.37
 1976 249    65    45     2    18.2  119.1    7827  109.0   10.1   3.3   8.8   8.5   8.4   8.7   6.6   4.5   0.0   0.0   0.0   0.2   0.4   0.8   0.7   0.6  0.78  0.65  0.00  0.00  0.00   13.08   48.00    0.61    0.00    0.45
 1976 250    66    45     2    18.3  119.0    7827  109.0   10.0   3.3   8.8   8.5   8.3   8.7   6.6   4.5   0.0   0.0   0.0   0.2   0.4   0.8   0.7   0.6  0.78  0.65  0.00  0.00  0.00   13.28   48.28    0.61    0.00    0.45
 1976 251    67    45     2    18.3  119.0    7827  109.1    9.9   3.4   8.8   8.5   8.3   8.7   6.6   4.5   0.0   0.0   0.0   0.1   0.4   0.8   0.7   0.6  0.77  0.64  0.00  0.00  0.00   13.46   48.54    0.62    0.00    0.46
 1976 252    68    45     2    18.8  118.7    7827  108.9    9.8   0.9   6.2   8.9   9.2   9.3   6.9   4.6   0.0   0.0   0.0   0.1   0.4   0.8   0.7   0.6  0.77  0.64  0.00  0.00  0.00   13.63   48.78    0.62    0.00    0.46
 1976 253    69    45     2    19.7  117.9    7827  108.1    9.8   0.7   5.0   8.1   9.3   9.6   7.2   4.9   0.0   0.0   0.0   0.1   0.4   0.8   0.7   0.6  0.76  0.63  0.00  0.00  0.00   13.78   48.99    0.67    0.00    0.47
 1976 254    70    45     2    24.1  113.4    7827  103.7    9.7   0.7   4.5   7.2   8.6   9.2   7.2   5.1   0.0   0.0   0.0   0.1   0.4   0.8   0.7   0.6  0.76  0.62  0.00  0.00  0.00   13.94   49.21    0.73    0.00    0.48
 1976 255    71    45     2    25.8  111.4    7826  101.8    9.6   0.7   4.2   6.9   8.3   9.1   7.2   5.2   0.0   0.0   0.0   0.1   0.4   0.8   0.7   0.6  0.75  0.62  0.00  0.00  0.00   14.09   49.43    0.75    0.00    0.49
 1976 256    72    45     2    26.2  110.8    7826  101.3    9.5   0.8   4.1   6.7   8.2   9.0   7.3   5.2   0.0   0.0   0.0   0.1   0.4   0.7   0.7   0.6  0.75  0.61  0.00  0.00  0.00   14.25   49.65    0.76    0.00    0.50
 1976 257    73    45     2    26.2  111.0    7826  101.5    9.5   0.8   4.1   6.7   8.2   9.0   7.3   5.3   0.0   0.0   0.0   0.0   0.4   0.7   0.7   0.6  0.74  0.61  0.00  0.00  0.00   14.42   49.87    0.76    0.00    0.51
 1976 258    74    45     2    26.5  110.7    7826  101.3    9.4   0.5   3.6   6.7   8.4   9.2   7.3   5.3   0.0   0.0   0.0   0.1   0.4   0.7   0.7   0.6  0.74  0.60  0.00  0.00  0.00   14.60   50.10    0.77    0.00    0.51
 1976 259    75    45     2    28.0  109.1    7826   99.7    9.3   0.4   3.2   6.2   8.1   9.1   7.4   5.4   0.0   0.0   0.0   0.0   0.4   0.7   0.7   0.6  0.73  0.59  0.00  0.00  0.00   14.78   50.33    0.78    0.00    0.52
 1976 260    76    45     2    28.1  107.9    7825   98.6    9.3   0.4   2.9   5.9   8.1   9.1   7.4   5.5   0.0   0.0   0.0   0.0   0.4   0.7   0.7   0.6  0.73  0.59  0.00  0.00  0.00   14.98   50.57    0.79    0.00    0.53
 1976 261    77    45     2    28.1  107.3    7825   98.1    9.2   0.4   2.7   5.7   8.2   9.1   7.5   5.5   0.0   0.0   0.0   0.0   0.4   0.7   0.7   0.6  0.72  0.58  0.00  0.00  0.00   15.18   50.81    0.79    0.00    0.54
 1976 262    78    45     2    28.1  106.5    7825   97.4    9.1   0.5   2.5   5.5   8.2   9.1   7.5   5.5   0.0   0.0   0.0   0.0   0.4   0.7   0.7   0.6  0.72  0.58  0.00  0.00  0.00   15.39   51.07    0.80    0.00    0.54
 1976 263    79    45     2    28.1  105.1    7825   96.0    9.0   0.5   2.1   5.1   8.2   9.1   7.5   5.5   0.0   0.0   0.0   0.0   0.4   0.7   0.7   0.6  0.71  0.57  0.00  0.00  0.00   15.61   51.33    0.81    0.00    0.54
 1976 264    80    45     2    28.1  104.7    7825   95.7    9.0   0.5   2.0   5.0   8.1   9.2   7.5   5.5   0.0   0.0   0.0   0.0   0.4   0.7   0.6   0.6  0.71  0.57  0.00  0.00  0.00   15.83   51.60    0.81    0.00    0.54
 1976 265    81    45     2    28.1  104.6    7824   95.7    8.9   0.5   2.0   4.9   8.1   9.2   7.5   5.5   0.0   0.0   0.0   0.0   0.4   0.7   0.6   0.6  0.70  0.56  0.00  0.00  0.00   16.06   51.86    0.82    0.00    0.54
 1976 266    82    45     2    28.1  104.2    7824   95.3    8.9   0.5   1.9   4.8   8.1   9.2   7.5   5.5   0.0   0.0   0.0   0.0   0.4   0.7   0.6   0.6  0.70  0.55  0.00  0.00  0.00   16.28   52.13    0.82    0.00    0.55
 1976 267    83    45     2    28.1  102.4    7824   93.6    8.8   0.5   1.6   4.4   7.9   9.2   7.5   5.5   0.0   0.0   0.0   0.0   0.4   0.7   0.6   0.6  0.69  0.55  0.00  0.00  0.00   16.50   52.40    0.83    0.00    0.55
 1976 268    84    45     2    28.1  102.1    7824   93.4    8.7   0.6   1.6   4.3   7.8   9.2   7.5   5.5   0.0   0.0   0.0   0.0   0.4   0.7   0.6   0.6  0.69  0.54  0.00  0.00  0.00   16.73   52.67    0.84    0.00    0.55
 1976 269    85    45     2    28.1  101.5    7824   92.8    8.7   0.6   1.5   4.2   7.7   9.2   7.5   5.5   0.0   0.0   0.0   0.0   0.4   0.7   0.6   0.5  0.68  0.54  0.00  0.00  0.00   16.96   52.95    0.84    0.00    0.55
 1976 270    86    45     2    28.1   98.9    7823   90.3    8.6   0.3   1.4   3.7   7.2   9.2   7.5   5.5   0.0   0.0   0.0   0.0   0.4   0.6   0.6   0.5  0.68  0.53  0.00  0.00  0.00   17.19   53.22    0.85    0.00    0.55
 1976 271    87    45     2    28.1   97.7    7823   89.2    8.5   0.2   1.1   3.6   7.0   9.3   7.6   5.6   0.0   0.0   0.0   0.1   0.4   0.6   0.6   0.5  0.67  0.53  0.00  0.00  0.00   17.45   53.49    0.85    0.00    0.55
 1976 272    88    45     2    28.1   96.5    7823   88.1    8.5   0.3   1.0   3.4   6.7   9.3   7.6   5.6   0.0   0.0   0.0   0.1   0.4   0.6   0.6   0.5  0.67  0.52  0.00  0.00  0.00   17.72   53.78    0.85    0.00    0.55
 1976 273    89    45     2    28.1   93.5    7822   85.1    8.4   0.2   0.6   2.9   6.1   9.3   7.6   5.6   0.0   0.0   0.0   0.1   0.4   0.6   0.6   0.5  0.66  0.52  0.00  0.00  0.00   17.99   54.08    0.86    0.00    0.56
 1976 274    90    45     2    28.5   92.2    7822   83.9    8.3   0.1   0.5   2.5   5.9   9.3   7.6   5.6   0.0   0.0   0.0   0.1   0.4   0.6   0.6   0.5  0.66  0.51  0.00  0.00  0.00   18.28   54.38    0.86    0.00    0.56
 1976 275    91    45     2    30.8   87.0    7822   78.8    8.2   0.2   0.3   1.8   4.8   8.9   7.6   5.7   0.0   0.0   0.0   0.1   0.4   0.6   0.6   0.5  0.65  0.51  0.00  0.00  0.00   18.56   54.68    0.87    0.00    0.57
 1976 276    92    45     2    30.8   85.3    7822   77.2    8.1   0.2   0.3   1.4   4.3   8.9   7.7   5.8   0.0   0.0   0.0   0.1   0.4   0.6   0.6   0.5  0.65  0.50  0.00  0.00  0.00   18.83   54.96    0.88    0.00    0.57
 1976 277    93    45     2    30.8   83.6    7821   75.5    8.1   0.2   0.3   1.2   3.8   8.9   7.7   5.8   0.0   0.0   0.0   0.1   0.4   0.6   0.6   0.5  0.65  0.50  0.00  0.00  0.00   19.08   55.23    0.88    0.00    0.57
 1976 278    94    45     2    30.8   82.4    7821   74.4    8.0   0.2   0.3   1.0   3.5   8.9   7.7   5.8   0.0   0.0   0.0   0.1   0.4   0.6   0.6   0.5  0.64  0.50  0.00  0.00  0.00   19.31   55.47    0.88    0.00    0.58
 1976 279    95    45     2    31.2   81.0    7821   73.0    7.9   0.1   0.2   0.7   3.0   8.8   7.8   5.9   0.0   0.0   0.0   0.1   0.4   0.6   0.6   0.5  0.64  0.49  0.00  0.00  0.00   19.52   55.70    0.89    0.00    0.58
 1976 280    96    45     2    35.3   75.8    7821   67.9    7.9   0.1   0.2   0.5   2.1   7.7   7.6   6.1   0.0   0.0   0.0   0.1   0.4   0.5   0.5   0.5  0.63  0.49  0.00  0.00  0.00   19.76   55.93    0.90    0.00    0.58
 1976 281    97    45     2    35.8   74.6    7821   66.7    7.8   0.1   0.3   0.4   1.8   7.5   7.6   6.1   0.0   0.0   0.0   0.1   0.4   0.5   0.5   0.5  0.63  0.48  0.00  0.00  0.00   20.00   56.18    0.90    0.00    0.59
 1976 282    98    45     2    35.8   74.0    7820   66.2    7.8   0.1   0.3   0.3   1.6   7.5   7.6   6.1   0.0   0.0   0.0   0.1   0.4   0.5   0.5   0.5  0.63  0.48  0.00  0.00  0.00   20.25   56.43    0.91    0.00    0.59
 1976 283    99    45     2    35.8   73.6    7820   65.8    7.8   0.2   0.3   0.3   1.4   7.6   7.6   6.1   0.0   0.0   0.0   0.1   0.4   0.5   0.5   0.5  0.62  0.47  0.00  0.00  0.00   20.51   56.70    0.91    0.00    0.60
 1976 284   100    45     2    35.8   73.3    7820   65.6    7.7   0.2   0.3   0.3   1.3   7.6   7.6   6.1   0.0   0.0   0.0   0.1   0.4   0.5   0.5   0.5  0.62  0.47  0.00  0.00  0.00   20.77   56.96    0.91    0.00    0.60
 1976 285   101    45     2    35.8   73.0    7820   65.3    7.7   0.2   0.3   0.3   1.1   7.6   7.7   6.1   0.0   0.0   0.0   0.1   0.4   0.5   0.5   0.5  0.61  0.47  0.00  0.00  0.00   21.02   57.22    0.92    0.00    0.60
 1976 286   102    45     2    35.8   72.8    7819   65.1    7.6   0.2   0.3   0.3   1.0   7.6   7.7   6.1   0.0   0.0   0.0   0.1   0.4   0.5   0.5   0.5  0.61  0.46  0.00  0.00  0.00   21.26   57.47    0.92    0.00    0.61
 1976 287   103    55     3    35.8   82.5    7819   70.0   12.6   6.9   0.3   0.3   0.9   7.6   7.7   6.1   0.0   0.0   0.0   6.8   0.4   0.5   0.5   0.5  0.61  0.46  0.00  0.00  0.00   21.48   57.71    0.92    0.00    0.64
 1976 288   104    55     3    35.8   77.3    7819   68.7    8.6   4.5   0.7   0.3   0.8   7.6   7.7   6.1   0.0   0.0   0.0   1.5   0.4   0.5   0.5   0.5  0.60  0.46  0.00  0.00  0.00   21.72   59.53    0.92    0.00    0.66
 1976 289   105    55     3    35.8   74.5    7819   66.8    7.8   1.8   0.8   0.3   0.7   7.6   7.7   6.1   0.0   0.0   0.0   0.4   0.4   0.5   0.5   0.5  0.60  0.45  0.00  0.00  0.00   21.97   60.17    0.93    0.00    0.69
 1976 290   106    55     3    35.8   73.1    7818   65.5    7.6   1.1   0.4   0.3   0.6   7.7   7.7   6.2   0.0   0.0   0.0   0.2   0.4   0.5   0.5   0.5  0.60  0.45  0.00  0.00  0.00   22.22   60.53    0.93    0.00    0.75
 1976 291   107    55     3    35.8   72.5    7818   65.0    7.5   0.4   0.4   0.3   0.6   7.7   7.7   6.2   0.0   0.0   0.0   0.1   0.4   0.5   0.5   0.5  0.59  0.44  0.00  0.00  0.00   22.49   60.85    0.93    0.00    0.81
 1976 292   108    55     3    35.8   72.1    7818   64.7    7.4   0.1   0.3   0.3   0.6   7.7   7.7   6.2   0.0   0.0   0.0   0.1   0.4   0.5   0.5   0.5  0.59  0.44  0.00  0.00  0.00   22.75   61.12    0.94    0.00    0.83
 1976 293   109    55     3    36.8   71.0    7818   63.6    7.4   0.1   0.3   0.3   0.5   7.3   7.7   6.2   0.0   0.0   0.0   0.0   0.4   0.5   0.5   0.5  0.59  0.44  0.00  0.00  0.00   23.02   61.38    0.94    0.00    0.86
 1976 294   110    55     3    36.8   71.0    7817   63.7    7.3   0.1   0.3   0.3   0.5   7.3   7.7   6.2   0.0   0.0   0.0   0.0   0.4   0.5   0.5   0.5  0.58  0.43  0.00  0.00  0.00   23.28   61.62    0.94    0.00    0.87
 1976 295   111    55     3    36.8   71.0    7817   63.7    7.3   0.2   0.3   0.3   0.4   7.3   7.7   6.2   0.0   0.0   0.0   0.0   0.4   0.5   0.5   0.5  0.58  0.43  0.00  0.00  0.00   23.52   61.86    0.94    0.00    0.89
 1976 296   112    55     3    36.8   71.0    7817   63.7    7.3   0.2   0.3   0.3   0.4   7.4   7.7   6.2   0.0   0.0   0.0   0.0   0.4   0.5   0.5   0.5  0.58  0.43  0.00  0.00  0.00   23.75   62.08    0.95    0.00    0.91
 1976 297   113    55     3    36.8   71.0    7817   63.7    7.3   0.2   0.3   0.3   0.3   7.4   7.7   6.2   0.0   0.0   0.0   0.0   0.4   0.5   0.5   0.5  0.57  0.42  0.00  0.00  0.00   23.96   62.30    0.95    0.00    0.91
 1976 298   114    55     3    36.8   70.9    7816   63.7    7.2   0.2   0.3   0.3   0.3   7.4   7.7   6.3   0.0   0.0   0.0   0.1   0.4   0.5   0.5   0.5  0.57  0.42  0.00  0.00  0.00   24.19   62.52    0.95    0.00    0.91
 1976 299   115    55     3    36.8   71.0    7816   63.8    7.2   0.2   0.3   0.3   0.3   7.4   7.7   6.3   0.0   0.0   0.0   0.1   0.4   0.5   0.5   0.5  0.57  0.42  0.00  0.00  0.00   24.41   62.76    0.95    0.00    0.91
 1976 300   116    55     3    36.8   71.0    7816   63.8    7.2   0.2   0.3   0.3   0.3   7.4   7.7   6.3   0.0   0.0   0.0   0.1   0.4   0.5   0.5   0.5  0.57  0.42  0.00  0.00  0.00   24.64   63.00    0.96    0.00    0.92
 1976 301   117    55     3    36.8   71.0    7816   63.9    7.1   0.2   0.3   0.3   0.3   7.4   7.8   6.3   0.0   0.0   0.0   0.1   0.4   0.5   0.5   0.5  0.56  0.41  0.00  0.00  0.00   24.85   63.25    0.96    0.00    0.92
 1976 302   118    55     3    36.8   71.1    7816   64.0    7.1   0.1   0.3   0.3   0.3   7.4   7.8   6.3   0.0   0.0   0.0   0.1   0.4   0.5   0.5   0.5  0.56  0.41  0.00  0.00  0.00   25.04   63.49    0.96    0.00    0.92
 1976 303   119    55     3    36.8   71.0    7815   64.0    7.0   0.1   0.3   0.3   0.3   7.5   7.8   6.3   0.0   0.0   0.0   0.1   0.4   0.5   0.5   0.4  0.56  0.41  0.00  0.00  0.00   25.27   63.73    0.97    0.00    0.93
 1976 304   120    55     3    36.8   71.1    7815   64.1    7.0   0.2   0.3   0.3   0.3   7.5   7.8   6.3   0.0   0.0   0.0   0.1   0.4   0.5   0.5   0.4  0.55  0.40  0.00  0.00  0.00   25.50   63.98    0.97    0.00    0.93
 1976 305   121    55     3    36.8   71.2    7815   64.2    7.0   0.1   0.2   0.3   0.4   7.5   7.8   6.3   0.0   0.0   0.0   0.1   0.4   0.5   0.5   0.4  0.55  0.40  0.00  0.00  0.00   25.72   64.24    0.97    0.00    0.93
 1976 306   122    55     3    39.7   68.3    7815   61.4    6.9   0.1   0.2   0.2   0.3   6.5   7.6   6.4   0.0   0.0   0.0   0.1   0.4   0.5   0.5   0.4  0.55  0.40  0.00  0.00  0.00   25.98   64.49    0.97    0.00    0.94
 1976 307   123    55     3    39.7   68.5    7814   61.6    6.9   0.1   0.2   0.3   0.3   6.5   7.6   6.4   0.0   0.0   0.0   0.1   0.4   0.5   0.5   0.4  0.55  0.40  0.00  0.00  0.00   26.25   64.76    0.98    0.00    0.94
 1976 308   124    55     3    39.7   68.6    7814   61.7    6.9   0.2   0.3   0.3   0.3   6.5   7.6   6.4   0.0   0.0   0.0   0.1   0.4   0.5   0.5   0.4  0.54  0.39  0.00  0.00  0.00   26.52   65.04    0.98    0.00    0.95
 1976 309   125    55     3    40.6   67.8    7814   60.9    6.9   0.1   0.2   0.3   0.3   5.9   7.7   6.6   0.0   0.0   0.0   0.1   0.4   0.5   0.5   0.4  0.54  0.39  0.00  0.00  0.00   26.79   65.31    0.98    0.00    0.95
 1976 310   126    55     3    42.4   66.1    7814   59.2    6.9   0.1   0.2   0.2   0.3   5.1   7.5   6.8   0.0   0.0   0.0   0.1   0.4   0.5   0.5   0.4  0.54  0.39  0.00  0.00  0.00   27.05   65.56    0.99    0.00    0.95
 1976 311   127    55     3    50.6   58.0    7813   51.1    6.9   0.1   0.2   0.2   0.2   3.9   6.4   6.3   0.0   0.0   0.0   0.1   0.4   0.5   0.5   0.4  0.54  0.39  0.00  0.00  0.00   27.31   65.80    1.01    0.00    0.95
 1976 312   128    55     3    52.7   56.2    7813   49.3    6.9   0.1   0.2   0.2   0.2   3.6   6.1   6.2   0.0   0.0   0.0   0.1   0.4   0.5   0.5   0.4  0.54  0.38  0.00  0.00  0.00   27.55   66.04    1.02    0.00    0.96
 1976 313   129    55     3    52.9   56.2    7813   49.3    6.9   0.2   0.3   0.3   0.3   3.6   6.1   6.2   0.0   0.0   0.0   0.1   0.4   0.5   0.5   0.4  0.53  0.38  0.00  0.00  0.00   27.79   66.28    1.02    0.00    0.96
 1976 314   130    55     3    52.9   56.3    7813   49.5    6.8   0.2   0.3   0.3   0.3   3.6   6.1   6.2   0.0   0.0   0.0   0.1   0.4   0.5   0.5   0.4  0.53  0.38  0.00  0.00  0.00   28.02   66.52    1.03    0.00    0.97
 1976 315   131    55     3    52.9   56.4    7812   49.6    6.8   0.2   0.3   0.3   0.3   3.6   6.1   6.2   0.0   0.0   0.0   0.1   0.4   0.5   0.5   0.4  0.53  0.38  0.00  0.00  0.00   28.24   66.75    1.03    0.00    0.97
 1976 316   132    55     3    52.9   56.4    7812   49.7    6.8   0.1   0.3   0.3   0.3   3.6   6.1   6.2   0.0   0.0   0.0   0.1   0.4   0.5   0.5   0.4  0.53  0.37  0.00  0.00  0.00   28.44   66.98    1.03    0.00    0.97
 1976 317   133    55     3    52.9   56.4    7812   49.6    6.8   0.1   0.2   0.3   0.3   3.6   6.1   6.2   0.0   0.0   0.0   0.1   0.4   0.5   0.5   0.4  0.52  0.37  0.00  0.00  0.00   28.66   67.21    1.04    0.00    0.98
 1976 318   134    55     3    52.9   56.4    7812   49.7    6.7   0.1   0.3   0.3   0.3   3.6   6.2   6.2   0.0   0.0   0.0   0.1   0.4   0.5   0.5   0.4  0.52  0.37  0.00  0.00  0.00   28.89   67.45    1.04    0.00    0.98
 1976 319   135    55     3    52.9   56.5    7811   49.8    6.7   0.1   0.3   0.3   0.3   3.6   6.2   6.2   0.0   0.0   0.0   0.1   0.4   0.5   0.5   0.4  0.52  0.37  0.00  0.00  0.00   29.12   67.69    1.04    0.00    0.98
 1976 320   136    55     3    52.9   56.6    7811   49.9    6.7   0.2   0.3   0.3   0.3   3.7   6.2   6.2   0.0   0.0   0.0   0.1   0.4   0.5   0.5   0.4  0.52  0.37  0.00  0.00  0.00   29.35   67.94    1.04    0.00    0.99
 1976 321   137    55     3    52.9   56.6    7811   50.0    6.6   0.2   0.3   0.3   0.3   3.7   6.2   6.3   0.0   0.0   0.0   0.1   0.4   0.5   0.5   0.4  0.52  0.36  0.00  0.00  0.00   29.56   68.19    1.05    0.00    0.99
 1976 322   138    55     3    52.9   56.7    7811   50.1    6.6   0.1   0.3   0.3   0.3   3.7   6.2   6.3   0.0   0.0   0.0   0.1   0.4   0.5   0.5   0.4  0.51  0.36  0.00  0.00  0.00   29.77   68.44    1.05    0.00    0.99
 1976 323   139    55     3    52.9   56.7    7811   50.1    6.5   0.1   0.2   0.3   0.3   3.7   6.2   6.3   0.0   0.0   0.0   0.1   0.4   0.5   0.5   0.4  0.51  0.36  0.00  0.00  0.00   30.01   68.70    1.05    0.00    1.00
 1976 324   140    55     3    52.9   56.7    7810   50.2    6.5   0.1   0.2   0.3   0.3   3.7   6.2   6.3   0.0   0.0   0.0   0.1   0.4   0.5   0.5   0.4  0.51  0.36  0.00  0.00  0.00   30.26   68.98    1.06    0.00    1.00
 1976 325   141    55     3    52.9   56.8    7810   50.3    6.5   0.1   0.3   0.3   0.3   3.7   6.2   6.3   0.0   0.0   0.0   0.1   0.4   0.5   0.4   0.4  0.51  0.36  0.00  0.00  0.00   30.52   69.26    1.06    0.00    1.00
 1976 326   142    55     3    52.9   56.9    7810   50.4    6.4   0.2   0.3   0.3   0.3   3.7   6.2   6.3   0.0   0.0   0.0   0.1   0.4   0.5   0.4   0.4  0.51  0.35  0.00  0.00  0.00   30.78   69.54    1.06    0.00    1.01
 1976 327   143    55     3    52.9   56.9    7809   50.5    6.4   0.2   0.3   0.3   0.3   3.8   6.2   6.3   0.0   0.0   0.0   0.1   0.4   0.5   0.4   0.4  0.50  0.35  0.00  0.00  0.00   31.02   69.81    1.06    0.00    1.01
 1976 328   144    55     3    52.9   57.0    7809   50.6    6.4   0.1   0.3   0.3   0.3   3.8   6.2   6.3   0.0   0.0   0.0   0.0   0.3   0.5   0.4   0.4  0.50  0.35  0.00  0.00  0.00   31.24   70.07    1.07    0.00    1.01
 1976 329   145    55     3    52.9   56.9    7809   50.6    6.3   0.1   0.3   0.3   0.3   3.8   6.2   6.3   0.0   0.0   0.0   0.1   0.3   0.5   0.4   0.4  0.50  0.35  0.00  0.00  0.00   31.47   70.32    1.07    0.00    1.01
 1976 330   146    55     3    52.9   57.0    7809   50.7    6.3   0.1   0.3   0.3   0.3   3.8   6.2   6.3   0.0   0.0   0.0   0.1   0.3   0.5   0.4   0.4  0.50  0.35  0.00  0.00  0.00   31.70   70.56    1.07    0.00    1.02
 1976 331   147    55     3    52.9   57.0    7808   50.7    6.3   0.2   0.3   0.3   0.3   3.8   6.3   6.3   0.0   0.0   0.0   0.1   0.3   0.5   0.4   0.4  0.50  0.34  0.00  0.00  0.00   31.91   70.79    1.08    0.00    1.02
 1976 332   148    55     3    52.9   57.1    7808   50.8    6.3   0.2   0.3   0.3   0.3   3.8   6.3   6.3   0.0   0.0   0.0   0.1   0.4   0.5   0.4   0.4  0.49  0.34  0.00  0.00  0.00   32.11   71.01    1.08    0.00    1.02
 1976 333   149    55     3    52.9   57.1    7808   50.9    6.2   0.1   0.3   0.3   0.3   3.8   6.3   6.3   0.0   0.0   0.0   0.1   0.3   0.5   0.4   0.4  0.49  0.34  0.00  0.00  0.00   32.30   71.25    1.08    0.00    1.03
[...]
 1995 289   105    55     3    58.6   60.1    7819   50.1   10.0  10.3   0.3   0.3   0.5   4.3   4.9   4.7   0.0   0.0   0.0   3.3   0.4   0.5   0.5   0.5  0.62  0.46  0.00  0.00  0.00   22.04   60.65    1.23    0.00    0.69
 1995 290   106    55     3    58.6   60.0    7818   50.6    9.4   4.7   3.2   0.5   0.4   4.3   4.9   4.7   0.0   0.0   0.0   2.5   0.4   0.5   0.5   0.5  0.62  0.45  0.00  0.00  0.00   22.25   61.42    1.23    0.00    0.73
 1995 291   107    55     3    58.6   55.0    7818   47.1    7.9   2.5   1.5   0.7   0.4   4.3   4.9   4.7   0.0   0.0   0.0   0.6   0.4   0.5   0.5   0.5  0.61  0.45  0.00  0.00  0.00   22.50   62.34    1.23    0.00    0.74
 1995 292   108    55     3    58.6   52.6    7818   45.0    7.7   1.5   0.8   0.5   0.4   4.3   4.9   4.7   0.0   0.0   0.0   0.3   0.4   0.5   0.5   0.5  0.61  0.45  0.00  0.00  0.00   22.73   62.76    1.23    0.00    0.78
 1995 293   109    55     3    58.6   51.4    7818   43.9    7.5   1.0   0.4   0.4   0.4   4.3   4.9   4.7   0.0   0.0   0.0   0.1   0.4   0.5   0.5   0.5  0.61  0.44  0.00  0.00  0.00   22.96   63.08    1.23    0.00    0.84
 1995 294   110    55     3    58.6   51.0    7817   43.6    7.4   0.4   0.5   0.4   0.3   4.3   4.9   4.7   0.0   0.0   0.0   0.0   0.4   0.5   0.5   0.5  0.60  0.44  0.00  0.00  0.00   23.17   63.36    1.24    0.00    0.90
 1995 295   111    55     3    58.6   50.5    7817   43.2    7.3   0.2   0.3   0.4   0.3   4.4   4.9   4.7   0.0   0.0   0.0   0.0   0.4   0.5   0.5   0.5  0.60  0.44  0.00  0.00  0.00   23.42   63.63    1.24    0.00    0.92
 1995 296   112    55     3    58.6   50.5    7817   43.2    7.3   0.1   0.3   0.4   0.3   4.4   4.9   4.7   0.0   0.0   0.0   0.0   0.4   0.5   0.5   0.5  0.59  0.43  0.00  0.00  0.00   23.68   63.92    1.24    0.00    0.93
 1995 297   113    55     3    58.6   50.4    7817   43.2    7.2   0.1   0.2   0.3   0.4   4.4   4.9   4.8   0.0   0.0   0.0   0.0   0.4   0.5   0.5   0.5  0.59  0.43  0.00  0.00  0.00   23.95   64.22    1.24    0.00    0.95
 1995 298   114    55     3    58.6   50.3    7816   43.2    7.2   0.1   0.2   0.3   0.4   4.4   5.0   4.8   0.0   0.0   0.0   0.0   0.4   0.5   0.5   0.5  0.59  0.43  0.00  0.00  0.00   24.23   64.49    1.24    0.00    0.97
 1995 299   115    55     3    59.8   49.2    7816   42.0    7.2   0.1   0.3   0.3   0.3   4.1   4.9   4.7   0.0   0.0   0.0   0.1   0.4   0.5   0.5   0.5  0.58  0.42  0.00  0.00  0.00   24.48   64.75    1.24    0.00    0.97
 1995 300   116    55     3    59.8   49.3    7816   42.1    7.2   0.1   0.3   0.3   0.3   4.1   4.9   4.8   0.0   0.0   0.0   0.1   0.4   0.5   0.5   0.5  0.58  0.42  0.00  0.00  0.00   24.72   64.99    1.25    0.00    0.97
 1995 301   117    55     3    59.8   49.3    7816   42.2    7.1   0.2   0.3   0.3   0.3   4.1   4.9   4.8   0.0   0.0   0.0   0.1   0.4   0.5   0.5   0.5  0.58  0.42  0.00  0.00  0.00   24.92   65.20    1.25    0.00    0.98
 1995 302   118    55     3    59.8   49.3    7815   42.2    7.1   0.2   0.3   0.3   0.3   4.1   4.9   4.8   0.0   0.0   0.0   0.1   0.4   0.5   0.5   0.5  0.58  0.41  0.00  0.00  0.00   25.11   65.41    1.25    0.00    0.98
 1995 303   119    55     3    59.8   49.4    7815   42.3    7.1   0.2   0.3   0.3   0.3   4.1   4.9   4.8   0.0   0.0   0.0   0.1   0.4   0.5   0.5   0.5  0.57  0.41  0.00  0.00  0.00   25.30   65.62    1.25    0.00    0.98
 1995 304   120    55     3    59.8   49.4    7815   42.4    7.0   0.1   0.3   0.3   0.3   4.1   4.9   4.8   0.0   0.0   0.0   0.1   0.4   0.5   0.5   0.5  0.57  0.41  0.00  0.00  0.00   25.49   65.85    1.25    0.00    0.99
 1995 305   121    55     3    59.8   49.4    7815   42.4    7.0   0.1   0.3   0.3   0.3   4.2   4.9   4.8   0.0   0.0   0.0   0.1   0.4   0.5   0.5   0.5  0.57  0.41  0.00  0.00  0.00   25.72   66.10    1.25    0.00    0.99
 1995 306   122    55     3    59.8   49.5    7815   42.6    6.9   0.1   0.3   0.3   0.3   4.2   4.9   4.8   0.0   0.0   0.0   0.1   0.4   0.5   0.5   0.5  0.56  0.40  0.00  0.00  0.00   25.97   66.39    1.25    0.00    0.99
 1995 307   123    55     3    59.8   49.6    7814   42.7    6.9   0.2   0.3   0.3   0.3   4.2   5.0   4.8   0.0   0.0   0.0   0.1   0.4   0.5   0.5   0.5  0.56  0.40  0.00  0.00  0.00   26.23   66.72    1.26    0.00    1.00
 1995 308   124    55     3    59.8   49.6    7814   42.9    6.8   0.1   0.3   0.3   0.3   4.2   5.0   4.8   0.0   0.0   0.0   0.1   0.3   0.5   0.4   0.4  0.56  0.40  0.00  0.00  0.00   26.46   67.05    1.26    0.00    1.00
 1995 309   125    55     3    59.8   49.6    7814   42.9    6.7   0.1   0.3   0.3   0.3   4.2   5.0   4.8   0.0   0.0   0.0   0.1   0.3   0.5   0.4   0.4  0.55  0.39  0.00  0.00  0.00   26.75   67.38    1.26    0.00    1.00
 1995 310   126    55     3    59.8   49.7    7813   43.0    6.7   0.1   0.2   0.3   0.3   4.2   5.0   4.8   0.0   0.0   0.0   0.1   0.3   0.5   0.4   0.4  0.55  0.39  0.00  0.00  0.00   27.03   67.70    1.26    0.00    1.01
 1995 311   127    55     3    61.5   48.1    7813   41.5    6.7   0.1   0.1   0.2   0.3   3.4   5.0   5.1   0.0   0.0   0.0   0.1   0.3   0.5   0.4   0.4  0.55  0.39  0.00  0.00  0.00   27.31   67.99    1.26    0.00    1.01
 1995 312   128    55     3    64.4   45.4    7813   38.7    6.7   0.1   0.2   0.2   0.2   2.7   4.7   5.1   0.0   0.0   0.0   0.1   0.4   0.5   0.4   0.4  0.55  0.39  0.00  0.00  0.00   27.58   68.21    1.28    0.00    1.01
 1995 313   129    55     3    71.4   38.5    7813   31.8    6.7   0.1   0.2   0.2   0.2   2.0   3.7   4.4   0.0   0.0   0.0   0.1   0.4   0.5   0.4   0.4  0.55  0.39  0.00  0.00  0.00   27.82   68.43    1.31    0.00    1.02
 1995 314   130    55     3    73.6   36.6    7812   29.9    6.7   0.1   0.2   0.2   0.2   1.8   3.5   4.1   0.0   0.0   0.0   0.1   0.4   0.5   0.4   0.5  0.54  0.38  0.00  0.00  0.00   28.06   68.66    1.32    0.00    1.02
 1995 315   131    55     3    74.1   36.2    7812   29.5    6.7   0.2   0.2   0.2   0.2   1.8   3.4   4.1   0.0   0.0   0.0   0.1   0.4   0.5   0.4   0.5  0.54  0.38  0.00  0.00  0.00   28.28   68.90    1.33    0.00    1.02
 1995 316   132    55     3    74.2   36.4    7812   29.7    6.7   0.2   0.3   0.2   0.3   1.8   3.4   4.1   0.0   0.0   0.0   0.1   0.4   0.5   0.4   0.5  0.54  0.38  0.00  0.00  0.00   28.51   69.14    1.33    0.00    1.03
 1995 317   133    55     3    74.2   36.5    7812   29.9    6.7   0.2   0.3   0.3   0.3   1.8   3.4   4.1   0.0   0.0   0.0   0.1   0.4   0.5   0.4   0.5  0.54  0.38  0.00  0.00  0.00   28.74   69.37    1.33    0.00    1.03
 1995 318   134    55     3    74.2   36.6    7811   30.0    6.6   0.2   0.3   0.3   0.3   1.8   3.4   4.1   0.0   0.0   0.0   0.1   0.4   0.5   0.4   0.5  0.53  0.37  0.00  0.00  0.00   28.95   69.61    1.33    0.00    1.03
 1995 319   135    55     3    74.2   36.7    7811   30.1    6.6   0.0   0.2   0.3   0.3   1.8   3.4   4.1   0.0   0.0   0.0   0.0   0.3   0.5   0.4   0.4  0.53  0.37  0.00  0.00  0.00   29.16   69.84    1.33    0.00    1.04
 1995 320   136    55     3    75.5   35.3    7811   28.8    6.6   0.1   0.2   0.2   0.3   1.7   3.3   4.0   0.0   0.0   0.0   0.1   0.3   0.5   0.4   0.4  0.53  0.37  0.00  0.00  0.00   29.40   70.07    1.33    0.00    1.04
 1995 321   137    55     3    75.5   35.5    7811   28.9    6.6   0.1   0.3   0.3   0.3   1.7   3.3   4.0   0.0   0.0   0.0   0.1   0.3   0.5   0.4   0.4  0.53  0.37  0.00  0.00  0.00   29.64   70.33    1.33    0.00    1.04
 1995 322   138    55     3    75.5   35.6    7810   29.1    6.5   0.1   0.3   0.3   0.3   1.7   3.3   4.0   0.0   0.0   0.0   0.1   0.3   0.5   0.4   0.4  0.53  0.36  0.00  0.00  0.00   29.88   70.58    1.34    0.00    1.05
 1995 323   139    55     3    75.5   35.7    7810   29.2    6.5   0.2   0.3   0.3   0.3   1.8   3.3   4.0   0.0   0.0   0.0   0.1   0.3   0.5   0.4   0.4  0.52  0.36  0.00  0.00  0.00   30.12   70.84    1.34    0.00    1.05
 1995 324   140    55     3    75.5   35.8    7810   29.3    6.5   0.2   0.3   0.3   0.3   1.8   3.3   4.0   0.0   0.0   0.0   0.1   0.3   0.5   0.4   0.4  0.52  0.36  0.00  0.00  0.00   30.35   71.08    1.34    0.00    1.05
 1995 325   141    55     3    75.5   35.8    7810   29.4    6.5   0.2   0.3   0.3   0.3   1.8   3.3   4.0   0.0   0.0   0.0   0.0   0.3   0.5   0.4   0.4  0.52  0.36  0.00  0.00  0.00   30.58   71.33    1.34    0.00    1.05
 1995 326   142    55     3    75.5   35.9    7809   29.5    6.4   0.2   0.3   0.3   0.3   1.8   3.3   4.0   0.0   0.0   0.0   0.1   0.3   0.5   0.4   0.4  0.52  0.36  0.00  0.00  0.00   30.81   71.59    1.34    0.00    1.06
 1995 327   143    55     3    75.5   35.9    7809   29.6    6.4   0.1   0.3   0.3   0.3   1.8   3.3   4.0   0.0   0.0   0.0   0.0   0.3   0.5   0.4   0.4  0.51  0.35  0.00  0.00  0.00   31.01   71.85    1.34    0.00    1.06
 1995 328   144    55     3    75.5   35.9    7809   29.6    6.3   0.1   0.3   0.3   0.3   1.8   3.4   4.0   0.0   0.0   0.0   0.1   0.3   0.5   0.4   0.4  0.51  0.35  0.00  0.00  0.00   31.24   72.11    1.34    0.00    1.06
 1995 329   145    55     3    75.5   36.0    7809   29.7    6.3   0.1   0.3   0.3   0.3   1.8   3.4   4.0   0.0   0.0   0.0   0.1   0.3   0.5   0.4   0.4  0.51  0.35  0.00  0.00  0.00   31.48   72.38    1.35    0.00    1.06
 1995 330   146    55     3    75.5   36.0    7808   29.8    6.3   0.1   0.3   0.3   0.3   1.9   3.4   4.0   0.0   0.0   0.0   0.1   0.3   0.5   0.4   0.4  0.51  0.35  0.00  0.00  0.00   31.70   72.63    1.35    0.00    1.07
 1995 331   147    55     3    75.5   36.0    7808   29.8    6.2   0.1   0.3   0.3   0.3   1.9   3.4   4.0   0.0   0.0   0.0   0.1   0.3   0.5   0.4   0.4  0.51  0.35  0.00  0.00  0.00   31.93   72.88    1.35    0.00    1.07
 1995 332   148    55     3    75.5   36.1    7808   29.9    6.2   0.1   0.3   0.3   0.3   1.9   3.4   4.1   0.0   0.0   0.0   0.1   0.3   0.5   0.4   0.4  0.50  0.35  0.00  0.00  0.00   32.16   73.15    1.35    0.00    1.07
 1995 333   149    55     3    75.5   36.2    7808   30.0    6.1   0.1   0.3   0.3   0.3   1.9   3.4   4.1   0.0   0.0   0.0   0.1   0.3   0.5   0.4   0.4  0.50  0.34  0.00  0.00  0.00   32.37   73.41    1.35    0.00    1.08
 1995 334   150    55     3    75.5   36.2    7807   30.0    6.1   0.1   0.3   0.3   0.3   1.9   3.4   4.1   0.0   0.0   0.0   0.1   0.3   0.5   0.4   0.4  0.50  0.34  0.00  0.00  0.00   32.61   73.67    1.35    0.00    1.08
 1995 335   151    55     3    75.5   36.3    7807   30.2    6.1   0.1   0.3   0.3   0.3   1.9   3.4   4.1   0.0   0.0   0.0   0.1   0.3   0.5   0.4   0.4  0.50  0.34  0.00  0.00  0.00   32.86   73.95    1.35    0.00    1.08
 1995 336   152    55     3    75.5   36.3    7807   30.3    6.1   0.2   0.3   0.3   0.3   2.0   3.4   4.1   0.0   0.0   0.0   0.1   0.3   0.5   0.4   0.4  0.50  0.34  0.00  0.00  0.00   33.11   74.23    1.36    0.00    1.09
 1995 337   153    55     3    75.5   36.4    7807   30.4    6.0   0.1   0.3   0.3   0.3   2.0   3.4   4.1   0.0   0.0   0.0   0.0   0.3   0.5   0.4   0.4  0.49  0.34  0.00  0.00  0.00   33.33   74.51    1.36    0.00    1.09
 1995 338   154    55     3    75.5   36.4    7806   30.4    6.0   0.1   0.3   0.3   0.3   2.0   3.4   4.1   0.0   0.0   0.0   0.1   0.3   0.5   0.3   0.4  0.49  0.33  0.00  0.00  0.00   33.59   74.79    1.36    0.00    1.09
 1995 339   155    55     3    75.5   36.4    7806   30.5    5.9   0.1   0.3   0.3   0.3   2.0   3.4   4.1   0.0   0.0   0.0   0.1   0.3   0.5   0.3   0.4  0.49  0.33  0.00  0.00  0.00   33.86   75.11    1.36    0.00    1.09
 1995 340   156    55     3    75.5   36.5    7806   30.7    5.8   0.1   0.3   0.3   0.3   2.0   3.5   4.1   0.0   0.0   0.0   0.0   0.3   0.5   0.3   0.4  0.49  0.33  0.00  0.00  0.00   34.11   75.42    1.36    0.00    1.10
 1995 341   157    55     3    75.5   36.5    7805   30.7    5.8   0.1   0.3   0.3   0.3   2.0   3.5   4.1   0.0   0.0   0.0   0.1   0.3   0.5   0.3   0.4  0.49  0.33  0.00  0.00  0.00   34.38   75.73    1.36    0.00    1.10
 1995 342   158    55     3    75.5   36.6    7805   30.8    5.8   0.2   0.3   0.3   0.3   2.1   3.5   4.1   0.0   0.0   0.0   0.1   0.3   0.5   0.3   0.4  0.48  0.33  0.00  0.00  0.00   34.65   76.02    1.36    0.00    1.10
 1995 343   159    55     3    75.5   36.6    7805   30.9    5.8   0.1   0.3   0.3   0.3   2.1   3.5   4.1   0.0   0.0   0.0   0.0   0.3   0.5   0.3   0.4  0.48  0.33  0.00  0.00  0.00   34.89   76.29    1.37    0.00    1.10
 1995 344   160    55     3    75.5   36.6    7805   30.9    5.7   0.1   0.3   0.3   0.3   2.1   3.5   4.1   0.0   0.0   0.0   0.1   0.3   0.5   0.3   0.4  0.48  0.32  0.00  0.00  0.00   35.14   76.55    1.37    0.00    1.11
 1995 345   161    55     3    75.5   36.7    7804   31.0    5.7   0.1   0.3   0.3   0.3   2.1   3.5   4.1   0.0   0.0   0.0   0.1   0.3   0.5   0.3   0.4  0.48  0.32  0.00  0.00  0.00   35.38   76.80    1.37    0.00    1.11
 1995 346   162    55     3    75.5   36.8    7804   31.1    5.7   0.1   0.3   0.3   0.3   2.1   3.5   4.1   0.0   0.0   0.0   0.0   0.3   0.5   0.3   0.4  0.48  0.32  0.00  0.00  0.00   35.61   77.06    1.37    0.00    1.11
 1995 347   163    55     3    75.5   36.8    7804   31.1    5.7   0.1   0.3   0.3   0.3   2.1   3.5   4.1   0.0   0.0   0.0   0.1   0.3   0.5   0.3   0.4  0.47  0.32  0.00  0.00  0.00   35.87   77.34    1.37    0.00    1.11
 1995 348   164    55     3    75.5   36.9    7804   31.3    5.6   0.1   0.3   0.3   0.3   2.1   3.5   4.1   0.0   0.0   0.0   0.1   0.3   0.5   0.3   0.4  0.47  0.32  0.00  0.00  0.00   36.14   77.63    1.37    0.00    1.12
 1995 349   165    55     3    75.5   37.0    7803   31.4    5.6   0.1   0.3   0.3   0.3   2.2   3.5   4.2   0.0   0.0   0.0   0.0   0.3   0.5   0.3   0.4  0.47  0.32  0.00  0.00  0.00   36.39   77.91    1.37    0.00    1.12
 1995 350   166    55     3    75.5   37.0    7803   31.4    5.6   0.1   0.3   0.3   0.3   2.2   3.5   4.2   0.0   0.0   0.0   0.1   0.3   0.5   0.3   0.4  0.47  0.32  0.00  0.00  0.00   36.67   78.21    1.37    0.00    1.12
 1995 351   167    55     3    75.5   37.1    7803   31.5    5.6   0.1   0.3   0.3   0.3   2.2   3.5   4.2   0.0   0.0   0.0   0.0   0.3   0.5   0.3   0.4  0.47  0.31  0.00  0.00  0.00   36.96   78.52    1.37    0.00    1.12
 1995 352   168    55     3    75.5   37.2    7802   31.6    5.5   0.1   0.3   0.3   0.3   2.2   3.6   4.2   0.0   0.0   0.0   0.0   0.3   0.5   0.3   0.4  0.47  0.31  0.00  0.00  0.00   37.23   78.83    1.38    0.00    1.13
 1995 353   169    55     3    75.5   37.2    7802   31.7    5.5   0.1   0.3   0.3   0.3   2.2   3.6   4.2   0.0   0.0   0.0   0.1   0.3   0.5   0.3   0.4  0.46  0.31  0.00  0.00  0.00   37.53   79.14    1.38    0.00    1.13
 1995 354   170    55     3    75.5   37.3    7802   31.8    5.5   0.2   0.3   0.3   0.3   2.2   3.6   4.2   0.0   0.0   0.0   0.0   0.3   0.5   0.3   0.4  0.46  0.31  0.00  0.00  0.00   37.84   79.47    1.38    0.00    1.13
 1995 355   171    55     3    75.5   37.4    7801   31.9    5.5   0.2   0.3   0.3   0.3   2.3   3.6   4.2   0.0   0.0   0.0   0.0   0.3   0.5   0.3   0.4  0.46  0.31  0.00  0.00  0.00   38.13   79.77    1.38    0.00    1.13
 1995 356   172    55     3    75.5   37.5    7801   32.0    5.5   0.1   0.2   0.3   0.3   2.3   3.6   4.2   0.0   0.0   0.0   0.1   0.3   0.5   0.2   0.4  0.46  0.31  0.00  0.00  0.00   38.41   80.05    1.38    0.00    1.14
 1995 357   173    55     3    75.5   37.5    7801   32.0    5.5   0.1   0.3   0.3   0.3   2.3   3.6   4.2   0.0   0.0   0.0   0.1   0.3   0.5   0.2   0.4  0.46  0.31  0.00  0.00  0.00   38.69   80.32    1.38    0.00    1.14
 1995 358   174    55     3    75.5   37.6    7801   32.1    5.5   0.2   0.3   0.3   0.3   2.3   3.6   4.2   0.0   0.0   0.0   0.1   0.3   0.5   0.2   0.4  0.46  0.31  0.00  0.00  0.00   38.95   80.59    1.38    0.00    1.14
 1995 359   175    55     3    75.5   37.7    7800   32.2    5.5   0.2   0.3   0.3   0.3   2.3   3.6   4.2   0.0   0.0   0.0   0.0   0.3   0.5   0.2   0.4  0.45  0.30  0.00  0.00  0.00   39.20   80.83    1.38    0.00    1.14
 1995 360   176    55     3    75.5   37.7    7800   32.2    5.5   0.2   0.3   0.3   0.3   2.3   3.6   4.2   0.0   0.0   0.0   0.0   0.3   0.5   0.2   0.4  0.45  0.30  0.00  0.00  0.00   39.45   81.07    1.38    0.00    1.15
 1995 361   177    55     3    75.5   37.8    7800   32.3    5.5   0.2   0.3   0.3   0.3   2.3   3.6   4.2   0.0   0.0   0.0   0.0   0.3   0.5   0.2   0.4  0.45  0.30  0.00  0.00  0.00   39.71   81.32    1.38    0.00    1.15
 1995 362   178    55     3    75.5   38.0    7800   32.4    5.5   0.2   0.3   0.3   0.3   2.4   3.6   4.2   0.0   0.0   0.0   0.0   0.3   0.5   0.2   0.4  0.45  0.30  0.00  0.00  0.00   39.98   81.58    1.38    0.00    1.15
 1995 363   179    55     3    75.5   38.1    7799   32.5    5.5   0.2   0.3   0.3   0.3   2.4   3.7   4.2   0.0   0.0   0.0   0.0   0.3   0.5   0.2   0.4  0.45  0.30  0.00  0.00  0.00   40.26   81.84    1.38    0.00    1.15
 1995 364   180    55     3    75.5   38.1    7799   32.6    5.5   0.3   0.3   0.3   0.3   2.4   3.7   4.2   0.0   0.0   0.0   0.0   0.3   0.5   0.3   0.4  0.44  0.30  0.00  0.00  0.00   40.52   82.10    1.38    0.00    1.15
 1995 365   181    55     3    75.5   38.2    7799   32.7    5.5   0.1   0.4   0.3   0.3   2.4   3.7   4.2   0.0   0.0   0.0   0.0   0.3   0.5   0.3   0.4  0.44  0.30  0.00  0.00  0.00   40.79   82.37    1.39    0.00    1.15
 1996 001   182    55     3    75.5   38.2    7798   32.7    5.5   0.1   0.3   0.3   0.3   2.4   3.7   4.2   0.0   0.0   0.0   0.1   0.3   0.5   0.3   0.4  0.44  0.30  0.00  0.00  0.00   41.09   82.65    1.39    0.00    1.16
 1996 002   183    55     3    75.5   38.3    7798   32.8    5.5   0.2   0.3   0.3   0.3   2.4   3.7   4.3   0.0   0.0   0.0   0.0   0.3   0.5   0.3   0.4  0.44  0.30  0.00  0.00  0.00   41.38   82.93    1.39    0.00    1.16
 1996 003   184    55     3    75.5   38.4    7798   32.9    5.5   0.2   0.3   0.3   0.3   2.4   3.7   4.3   0.0   0.0   0.0   0.0   0.3   0.5   0.3   0.4  0.44  0.29  0.00  0.00  0.00   41.67   83.21    1.39    0.00    1.16
 1996 004   185    55     3    75.5   38.5    7798   33.0    5.5   0.2   0.3   0.3   0.3   2.5   3.7   4.3   0.0   0.0   0.0   0.0   0.3   0.5   0.3   0.4  0.43  0.29  0.00  0.00  0.00   41.97   83.51    1.39    0.00    1.16
 1996 005   186    55     3    75.5   38.6    7797   33.1    5.5   0.1   0.3   0.3   0.3   2.5   3.7   4.3   0.0   0.0   0.0   0.0   0.3   0.5   0.3   0.4  0.43  0.29  0.00  0.00  0.00   42.27   83.81    1.39    0.00    1.16
 1996 006   187    55     3    75.5   38.6    7797   33.1    5.5   0.1   0.3   0.3   0.3   2.5   3.7   4.3   0.0   0.0   0.0   0.1   0.3   0.5   0.3   0.4  0.43  0.29  0.00  0.00  0.00   42.60   84.11    1.39    0.00    1.17
 1996 007   188    55     3    75.5   38.7    7797   33.2    5.5   0.1   0.3   0.3   0.3   2.5   3.7   4.3   0.0   0.0   0.0   0.0   0.3   0.5   0.3   0.4  0.43  0.29  0.00  0.00  0.00   42.92   84.43    1.39    0.00    1.17
 1996 008   189    55     3    75.5   38.8    7796   33.3    5.5   0.1   0.3   0.3   0.3   2.5   3.7   4.3   0.0   0.0   0.0   0.0   0.3   0.5   0.3   0.4  0.43  0.29  0.00  0.00  0.00   43.23   84.71    1.39    0.00    1.17
 1996 009   190    55     3    75.5   38.9    7796   33.4    5.5   0.2   0.3   0.3   0.3   2.5   3.8   4.3   0.0   0.0   0.0   0.0   0.3   0.5   0.3   0.4  0.43  0.29  0.00  0.00  0.00   43.53   84.99    1.39    0.00    1.17
 1996 010   191    55     3    75.5   39.2    7796   33.7    5.5   0.2   0.4   0.3   0.3   2.6   3.8   4.3   0.0   0.0   0.0   0.0   0.4   0.5   0.3   0.4  0.43  0.29  0.00  0.00  0.00   43.85   85.27    1.39    0.00    1.17
 1996 011   192    55     3    75.5   39.5    7795   33.9    5.6   0.2   0.4   0.3   0.3   2.6   3.8   4.3   0.0   0.0   0.0   0.0   0.4   0.5   0.3   0.4  0.42  0.29  0.00  0.00  0.00   44.17   85.56    1.39    0.00    1.18
