*SOIL WATER DAILY OUTPUT FILE

*DSSAT Cropping System Model Ver. 4.0.2.000               Jul 19, 2016; 11:52:45

*RUN   1        : UYMZ                    
 MODEL          : MZCER040 - Maize           
 EXPERIMENT     : UYMZ0003 MZ    late to create DSS                             
 TREATMENT  1   : UYMZ                    

@YEAR DOY   DAS  SWXD   ROFC   DRNC   PREC  IR#C  IRRC  DTWT   SW1D   SW2D   SW3D   SW4D   SW5D   SW6D   SW7D   SW8D   SW9D   SW10
 1990 184     0   117      0      0      0     0     0   125  0.378  0.394  0.394  0.335  0.375  0.419  0.408  0.395  0.000  0.000
 1990 185     1   116      0      0      0     0     0   125  0.359  0.393  0.394  0.335  0.376  0.418  0.408  0.395  0.000  0.000
 1990 186     2   115      0      0      0     0     0   125  0.345  0.393  0.394  0.336  0.376  0.418  0.408  0.395  0.000  0.000
 1990 187     3   114      0      0      0     0     0   125  0.323  0.391  0.394  0.336  0.377  0.417  0.408  0.395  0.000  0.000
 1990 188     4   113      0      0      0     0     0   125  0.310  0.390  0.394  0.337  0.377  0.417  0.408  0.395  0.000  0.000
 1990 189     5   112      0      0      0     0     0   125  0.294  0.389  0.394  0.337  0.378  0.416  0.408  0.395  0.000  0.000
 1990 190     6   114      0      0      3     0     0   125  0.328  0.387  0.394  0.338  0.378  0.416  0.408  0.395  0.000  0.000
 1990 191     7   113      0      0      3     0     0   125  0.310  0.386  0.394  0.338  0.378  0.415  0.408  0.395  0.000  0.000
 1990 192     8   112      0      0      3     0     0   125  0.295  0.385  0.394  0.339  0.378  0.415  0.408  0.395  0.000  0.000
 1990 193     9   111      0      0      3     0     0   125  0.281  0.384  0.394  0.339  0.379  0.415  0.408  0.395  0.000  0.000
 1990 194    10   111      0      0      3     0     0   125  0.269  0.383  0.394  0.340  0.379  0.414  0.408  0.395  0.000  0.000
 1990 195    11   110      0      0      3     0     0   125  0.258  0.382  0.393  0.340  0.379  0.414  0.407  0.395  0.000  0.000
 1990 196    12   109      0      0      3     0     0   125  0.248  0.382  0.393  0.340  0.380  0.414  0.407  0.395  0.000  0.000
 1990 197    13   116      0      0     11     0     0   125  0.383  0.381  0.393  0.341  0.380  0.413  0.407  0.395  0.000  0.000
 1990 198    14   114      0      0     11     0     0   125  0.354  0.381  0.393  0.341  0.380  0.413  0.407  0.395  0.000  0.000
 1990 199    15   119      0      0     18     0     0   125  0.451  0.381  0.393  0.342  0.380  0.413  0.407  0.395  0.000  0.000
 1990 200    16   117      0      0     18     0     0   125  0.405  0.384  0.393  0.342  0.380  0.412  0.407  0.395  0.000  0.000
 1990 201    17   115      0      0     18     0     0   125  0.365  0.385  0.393  0.343  0.381  0.412  0.407  0.395  0.000  0.000
 1990 202    18   114      0      0     18     0     0   125  0.340  0.384  0.393  0.343  0.381  0.412  0.407  0.395  0.000  0.000
 1990 203    19   113      0      0     18     0     0   125  0.321  0.383  0.393  0.344  0.381  0.411  0.407  0.395  0.000  0.000
 1990 204    20   112      0      0     18     0     0   125  0.305  0.383  0.393  0.344  0.381  0.411  0.407  0.395  0.000  0.000
 1990 205    21   111      0      0     18     0     0   125  0.292  0.382  0.393  0.344  0.381  0.411  0.407  0.395  0.000  0.000
 1990 206    22   111      0      0     18     0     0   125  0.279  0.381  0.393  0.345  0.381  0.411  0.407  0.395  0.000  0.000
 1990 207    23   110      0      0     18     0     0   125  0.268  0.380  0.393  0.345  0.381  0.410  0.406  0.395  0.000  0.000
 1990 208    24   109      0      0     18     0     0   125  0.258  0.379  0.393  0.346  0.382  0.410  0.406  0.395  0.000  0.000
 1990 209    25   109      0      0     18     0     0   125  0.248  0.379  0.393  0.346  0.382  0.410  0.406  0.395  0.000  0.000
 1990 210    26   108      0      0     18     0     0   125  0.239  0.378  0.393  0.346  0.382  0.410  0.406  0.395  0.000  0.000
 1990 211    27   108      0      0     18     0     0   125  0.230  0.377  0.393  0.347  0.382  0.409  0.406  0.395  0.000  0.000
 1990 212    28   107      0      0     18     0     0   125  0.222  0.377  0.393  0.347  0.382  0.409  0.406  0.395  0.000  0.000
 1990 213    29   107      0      0     18     0     0   125  0.221  0.376  0.393  0.347  0.382  0.409  0.406  0.394  0.000  0.000
 1990 214    30   107      0      0     18     0     0   125  0.221  0.375  0.393  0.348  0.382  0.409  0.406  0.394  0.000  0.000
 1990 215    31   107      0      0     18     0     0   125  0.221  0.375  0.393  0.348  0.382  0.408  0.406  0.394  0.000  0.000
 1990 216    32   107      0      0     18     0     0   125  0.221  0.374  0.393  0.348  0.382  0.408  0.406  0.394  0.000  0.000
 1990 217    33   107      0      0     18     0     0   125  0.221  0.374  0.393  0.349  0.382  0.408  0.406  0.394  0.000  0.000
 1990 218    34   106      0      0     18     0     0   125  0.221  0.373  0.393  0.349  0.382  0.408  0.405  0.394  0.000  0.000
 1990 219    35   106      0      0     18     0     0   125  0.221  0.373  0.393  0.349  0.383  0.408  0.405  0.394  0.000  0.000
 1990 220    36   106      0      0     18     0     0   125  0.221  0.372  0.393  0.350  0.383  0.407  0.405  0.394  0.000  0.000
 1990 221    37   108      0      0     20     0     0   125  0.261  0.372  0.393  0.350  0.383  0.407  0.405  0.394  0.000  0.000
 1990 222    38   108      0      0     20     0     0   125  0.252  0.371  0.393  0.350  0.383  0.407  0.405  0.394  0.000  0.000
 1990 223    39   107      0      0     20     0     0   125  0.243  0.371  0.393  0.351  0.383  0.407  0.405  0.394  0.000  0.000
 1990 224    40   107      0      0     20     0     0   125  0.235  0.371  0.393  0.351  0.383  0.407  0.405  0.394  0.000  0.000
 1990 225    41   106      0      0     20     0     0   125  0.227  0.370  0.393  0.351  0.383  0.406  0.405  0.394  0.000  0.000
 1990 226    42   106      0      0     20     0     0   125  0.221  0.370  0.393  0.351  0.383  0.406  0.405  0.394  0.000  0.000
 1990 227    43   134      0      0     48     0     0   125  0.568  0.476  0.393  0.352  0.383  0.406  0.405  0.394  0.000  0.000
 1990 228    44   130      0      0     48     0     0   125  0.465  0.491  0.396  0.352  0.383  0.406  0.404  0.394  0.000  0.000
 1990 229    45   127      0      0     48     0     0   125  0.407  0.482  0.398  0.352  0.383  0.406  0.404  0.394  0.000  0.000
 1990 230    46   124      0      0     48     0     0   125  0.363  0.470  0.401  0.353  0.383  0.405  0.404  0.394  0.000  0.000
 1990 231    47   122      0      0     48     0     0   125  0.349  0.459  0.402  0.353  0.383  0.405  0.404  0.394  0.000  0.000
 1990 232    48   121      0      0     48     0     0   125  0.340  0.449  0.404  0.353  0.383  0.405  0.404  0.394  0.000  0.000
 1990 233    49   120      0      0     48     0     0   125  0.332  0.440  0.405  0.353  0.383  0.405  0.404  0.393  0.000  0.000
 1990 234    50   119      0      0     48     0     0   125  0.325  0.433  0.405  0.354  0.383  0.405  0.404  0.393  0.000  0.000
 1990 235    51   118      0      0     48     0     0   125  0.318  0.426  0.406  0.354  0.383  0.405  0.404  0.393  0.000  0.000
 1990 236    52   117      0      0     48     0     0   125  0.311  0.421  0.406  0.354  0.383  0.404  0.404  0.393  0.000  0.000
 1990 237    53   116      0      0     48     0     0   125  0.305  0.416  0.406  0.355  0.383  0.404  0.404  0.393  0.000  0.000
 1990 238    54   115      0      0     48     0     0   125  0.298  0.411  0.406  0.355  0.383  0.404  0.404  0.393  0.000  0.000
 1990 239    55   156      0      0     90     0     0   125  0.548  0.564  0.491  0.355  0.383  0.404  0.403  0.393  0.000  0.000
 1990 240    56   155      0      0     92     0     0   125  0.509  0.551  0.503  0.358  0.383  0.404  0.403  0.393  0.000  0.000
 1990 241    57   151      0      0     92     0     0   125  0.477  0.526  0.506  0.360  0.383  0.404  0.403  0.393  0.000  0.000
 1990 242    58   149      0      0     92     0     0   125  0.461  0.511  0.504  0.363  0.383  0.404  0.403  0.393  0.000  0.000
 1990 243    59   148      0      0     92     0     0   125  0.463  0.501  0.502  0.365  0.383  0.403  0.403  0.393  0.000  0.000
 1990 244    60   150      0      0     95     0     0   125  0.515  0.494  0.499  0.368  0.383  0.403  0.403  0.393  0.000  0.000
 1990 245    61   147      0      0     95     0     0   125  0.452  0.498  0.497  0.369  0.384  0.403  0.403  0.393  0.000  0.000
 1990 246    62   146      0      0     95     0     0   125  0.440  0.491  0.495  0.371  0.384  0.403  0.403  0.393  0.000  0.000
 1990 247    63   145      0      0     95     0     0   125  0.433  0.485  0.492  0.373  0.384  0.403  0.403  0.393  0.000  0.000
 1990 248    64   144      0      0     95     0     0   125  0.428  0.479  0.490  0.374  0.384  0.403  0.403  0.392  0.000  0.000
 1990 249    65   143      0      0     96     0     0   125  0.436  0.475  0.488  0.376  0.384  0.403  0.402  0.392  0.000  0.000
 1990 250    66   150      0      0    104     0     0   125  0.556  0.486  0.485  0.377  0.385  0.402  0.402  0.392  0.000  0.000
 1990 251    67   167      0      0    122     0     0   125  0.517  0.580  0.545  0.380  0.385  0.402  0.402  0.392  0.000  0.000
 1990 252    68   163      0      0    122     0     0   125  0.452  0.553  0.539  0.395  0.385  0.402  0.402  0.392  0.000  0.000
 1990 253    69   160      0      0    122     0     0   125  0.457  0.525  0.536  0.398  0.386  0.402  0.402  0.392  0.000  0.000
 1990 254    70   182      0      0    146     0     0   125  0.544  0.563  0.562  0.454  0.396  0.402  0.402  0.392  0.000  0.000
 1990 255    71   179      0      0    146     0     0   125  0.485  0.553  0.553  0.446  0.417  0.402  0.402  0.392  0.000  0.000
 1990 256    72   176      0      0    146     0     0   125  0.480  0.529  0.546  0.442  0.428  0.402  0.402  0.392  0.000  0.000
 1990 257    73   173      0      0    146     0     0   125  0.456  0.519  0.539  0.440  0.431  0.403  0.402  0.392  0.000  0.000
 1990 258    74   171      0      0    146     0     0   125  0.455  0.510  0.533  0.440  0.430  0.403  0.402  0.392  0.000  0.000
 1990 259    75   170      0      0    146     0     0   125  0.455  0.504  0.529  0.439  0.430  0.403  0.402  0.392  0.000  0.000
 1990 260    76   169      0      0    146     0     0   125  0.455  0.500  0.525  0.438  0.430  0.404  0.402  0.392  0.000  0.000
 1990 261    77   199      0      0    178     0     0   125  0.549  0.564  0.565  0.468  0.460  0.416  0.401  0.392  0.000  0.000
 1990 262    78   192      0      3    178     0     0   125  0.496  0.554  0.554  0.456  0.448  0.419  0.408  0.395  0.000  0.000
 1990 263    79   188      0      7    178     0     0   125  0.507  0.532  0.547  0.449  0.441  0.419  0.408  0.395  0.000  0.000
 1990 264    80   185      0      8    178     0     0   125  0.505  0.527  0.541  0.444  0.437  0.419  0.408  0.395  0.000  0.000
 1990 265    81   180      0      9    178     0     0   125  0.453  0.521  0.535  0.441  0.435  0.419  0.408  0.395  0.000  0.000
 1990 266    82   177      0      9    178     0     0   125  0.454  0.509  0.530  0.439  0.433  0.419  0.408  0.395  0.000  0.000
 1990 267    83   175      0      9    178     0     0   125  0.452  0.501  0.524  0.437  0.433  0.419  0.408  0.395  0.000  0.000
 1990 268    84   173      0      9    178     0     0   125  0.449  0.494  0.518  0.435  0.433  0.419  0.408  0.395  0.000  0.000
 1990 269    85   171      0      9    178     0     0   125  0.445  0.488  0.513  0.433  0.433  0.419  0.408  0.395  0.000  0.000
 1990 270    86   169      0      9    178     0     0   125  0.441  0.482  0.508  0.431  0.433  0.419  0.408  0.395  0.000  0.000
 1990 271    87   168      0      9    178     0     0   125  0.438  0.479  0.505  0.430  0.432  0.419  0.408  0.395  0.000  0.000
 1990 272    88   166      0      9    178     0     0   125  0.434  0.474  0.500  0.428  0.432  0.419  0.408  0.395  0.000  0.000
 1990 273    89   164      0      9    178     0     0   125  0.429  0.468  0.495  0.425  0.431  0.419  0.408  0.395  0.000  0.000
 1990 274    90   162      0      9    178     0     0   125  0.424  0.461  0.488  0.423  0.431  0.419  0.408  0.395  0.000  0.000
 1990 275    91   159      0      9    178     0     0   125  0.419  0.453  0.481  0.420  0.430  0.419  0.408  0.395  0.000  0.000
 1990 276    92   156      0      9    178     0     0   125  0.413  0.446  0.473  0.417  0.429  0.419  0.408  0.395  0.000  0.000
 1990 277    93   154      0      9    178     0     0   125  0.407  0.439  0.466  0.414  0.427  0.419  0.408  0.395  0.000  0.000
 1990 278    94   152      0      9    178     0     0   125  0.401  0.436  0.464  0.412  0.427  0.419  0.408  0.395  0.000  0.000
 1990 279    95   174      0      9    202     0     0   125  0.553  0.564  0.477  0.410  0.426  0.419  0.408  0.395  0.000  0.000
 1990 280    96   178      0      9    207     0     0   125  0.553  0.555  0.507  0.409  0.425  0.419  0.408  0.395  0.000  0.000
 1990 281    97   213      1     10    246     0     0   125  0.547  0.556  0.568  0.470  0.459  0.445  0.426  0.403  0.000  0.000
 1990 282    98   198      1     21    246     0     0   125  0.506  0.545  0.547  0.453  0.447  0.435  0.419  0.400  0.000  0.000
 1990 283    99   188      1     26    246     0     0   125  0.500  0.527  0.534  0.444  0.439  0.428  0.414  0.398  0.000  0.000
 1990 284   100   184      1     29    246     0     0   125  0.503  0.518  0.529  0.439  0.435  0.425  0.412  0.398  0.000  0.000
 1990 285   101   215      1     30    284     0     0   125  0.541  0.557  0.557  0.464  0.459  0.447  0.439  0.411  0.000  0.000
 1990 286   102   198      1     42    284     0     0   125  0.507  0.541  0.541  0.448  0.446  0.436  0.427  0.404  0.000  0.000
 1990 287   103   188      1     47    284     0     0   125  0.501  0.522  0.530  0.438  0.438  0.429  0.419  0.401  0.000  0.000
 1990 288   104   180      1     50    284     0     0   125  0.484  0.510  0.520  0.432  0.432  0.425  0.415  0.398  0.000  0.000
 1990 289   105   174      1     52    284     0     0   125  0.476  0.499  0.511  0.425  0.428  0.422  0.412  0.397  0.000  0.000
 1990 290   106   170      1     52    284     0     0   125  0.469  0.493  0.506  0.420  0.424  0.420  0.410  0.397  0.000  0.000
 1990 291   107   165      1     52    284     0     0   125  0.449  0.483  0.498  0.413  0.419  0.420  0.410  0.397  0.000  0.000
 1990 292   108   169      1     52    292     0     0   125  0.559  0.496  0.491  0.408  0.415  0.419  0.410  0.397  0.000  0.000
 1990 293   109   170      1     52    297     0     0   125  0.525  0.548  0.488  0.403  0.411  0.418  0.410  0.397  0.000  0.000
 1990 294   110   166      1     52    297     0     0   125  0.520  0.523  0.489  0.397  0.405  0.417  0.410  0.397  0.000  0.000
 1990 295   111   160      1     52    297     0     0   125  0.498  0.509  0.484  0.390  0.398  0.416  0.410  0.397  0.000  0.000
 1990 296   112   155      1     52    297     0     0   125  0.486  0.497  0.479  0.385  0.392  0.415  0.410  0.397  0.000  0.000
 1990 297   113   151      1     52    297     0     0   125  0.475  0.487  0.473  0.381  0.387  0.413  0.410  0.397  0.000  0.000
 1990 298   114   148      1     52    297     0     0   125  0.469  0.479  0.469  0.379  0.384  0.412  0.410  0.397  0.000  0.000
 1990 299   115   142      1     52    297     0     0   125  0.453  0.467  0.459  0.374  0.379  0.409  0.410  0.397  0.000  0.000
 1990 300   116   138      1     52    297     0     0   125  0.443  0.457  0.451  0.371  0.376  0.406  0.410  0.397  0.000  0.000
 1990 301   117   136      1     52    297     0     0   125  0.440  0.452  0.448  0.370  0.375  0.405  0.410  0.397  0.000  0.000
 1990 302   118   139      1     52    302     0     0   125  0.541  0.447  0.442  0.368  0.373  0.403  0.409  0.397  0.000  0.000
 1990 303   119   153      1     52    323     0     0   125  0.521  0.570  0.481  0.364  0.369  0.400  0.409  0.397  0.000  0.000
 1990 304   120   148      1     52    323     0     0   125  0.524  0.529  0.483  0.363  0.366  0.396  0.409  0.397  0.000  0.000
 1990 305   121   145      1     52    325     0     0   125  0.546  0.515  0.475  0.362  0.364  0.392  0.409  0.397  0.000  0.000
 1990 306   122   140      1     52    325     0     0   125  0.514  0.510  0.470  0.361  0.363  0.389  0.408  0.397  0.000  0.000
 1990 307   123   138      1     52    325     0     0   125  0.505  0.501  0.466  0.360  0.362  0.387  0.408  0.397  0.000  0.000
 1990 308   124   166      1     52    358     0     0   125  0.555  0.556  0.560  0.412  0.360  0.384  0.407  0.397  0.000  0.000
 1990 309   125   161      1     52    358     0     0   125  0.537  0.542  0.542  0.417  0.360  0.382  0.405  0.397  0.000  0.000
 1990 310   126   158      1     52    358     0     0   125  0.533  0.535  0.535  0.413  0.360  0.381  0.403  0.397  0.000  0.000
 1990 311   127   155      1     52    360     0     0   125  0.550  0.533  0.526  0.406  0.360  0.379  0.400  0.397  0.000  0.000
 1990 312   128   153      1     52    360     0     0   125  0.535  0.534  0.524  0.405  0.361  0.378  0.398  0.397  0.000  0.000
 1990 313   129   150      1     52    360     0     0   125  0.525  0.527  0.519  0.401  0.361  0.377  0.395  0.396  0.000  0.000
 1990 314   130   146      1     52    361     0     0   125  0.525  0.518  0.512  0.395  0.361  0.376  0.391  0.396  0.000  0.000
 1990 315   131   141      1     52    361     0     0   125  0.507  0.512  0.504  0.389  0.360  0.374  0.386  0.396  0.000  0.000
 1990 316   132   138      1     52    361     0     0   125  0.502  0.506  0.500  0.386  0.360  0.373  0.384  0.395  0.000  0.000
 1990 317   133   132      1     52    361     0     0   125  0.486  0.494  0.490  0.380  0.359  0.371  0.377  0.395  0.000  0.000
 1990 318   134   130      1     52    363     0     0   125  0.518  0.486  0.483  0.377  0.358  0.370  0.374  0.394  0.000  0.000
 1990 319   135   128      1     52    363     0     0   125  0.498  0.489  0.479  0.376  0.358  0.370  0.373  0.394  0.000  0.000
 1990 320   136   177      1     52    416     0     0   125  0.553  0.562  0.562  0.467  0.443  0.373  0.371  0.393  0.000  0.000
 1990 321   137   171      1     52    416     0     0   125  0.533  0.547  0.546  0.448  0.430  0.387  0.368  0.392  0.000  0.000
 1990 322   138   165      1     52    416     0     0   125  0.525  0.533  0.537  0.437  0.423  0.387  0.366  0.392  0.000  0.000
 1990 323   139   158      1     52    416     0     0   125  0.514  0.524  0.529  0.428  0.415  0.384  0.364  0.391  0.000  0.000
 1990 324   140   155      1     52    416     0     0   125  0.514  0.519  0.524  0.425  0.412  0.382  0.363  0.390  0.000  0.000
 1990 325   141   150      1     52    417     0     0   125  0.529  0.510  0.515  0.416  0.403  0.379  0.361  0.390  0.000  0.000
 1990 326   142   143      1     52    417     0     0   125  0.501  0.508  0.507  0.408  0.396  0.377  0.360  0.388  0.000  0.000
 1990 327   143   137      1     52    417     0     0   125  0.487  0.499  0.499  0.401  0.388  0.374  0.358  0.386  0.000  0.000
 1990 328   144   131      1     52    417     0     0   125  0.476  0.489  0.491  0.393  0.383  0.372  0.357  0.384  0.000  0.000
 1990 329   145   126      1     52    417     0     0   125  0.468  0.481  0.484  0.388  0.380  0.370  0.356  0.381  0.000  0.000
 1990 330   146   142      1     52    438     0     0   125  0.558  0.559  0.523  0.382  0.376  0.369  0.355  0.379  0.000  0.000
 1990 331   147   136      1     52    438     0     0   125  0.534  0.539  0.522  0.379  0.373  0.366  0.353  0.375  0.000  0.000
 1990 332   148   130      1     52    438     0     0   125  0.520  0.524  0.512  0.377  0.370  0.364  0.352  0.371  0.000  0.000
 1990 333   149   123      1     52    438     0     0   125  0.502  0.510  0.500  0.374  0.366  0.362  0.350  0.366  0.000  0.000
 1990 334   150   120      1     52    438     0     0   125  0.496  0.501  0.494  0.373  0.365  0.361  0.350  0.363  0.000  0.000
 1990 335   151   115      1     52    438     0     0   125  0.482  0.490  0.484  0.371  0.363  0.359  0.348  0.360  0.000  0.000
 1990 336   152   113      1     52    438     0     0   125  0.479  0.485  0.480  0.370  0.362  0.359  0.348  0.359  0.000  0.000
 1990 337   153   117      1     52    448     0     0   125  0.550  0.528  0.469  0.367  0.360  0.357  0.347  0.356  0.000  0.000
 1990 338   154   111      1     52    448     0     0   125  0.514  0.515  0.462  0.364  0.358  0.355  0.345  0.353  0.000  0.000
 1990 339   155   106      1     52    448     0     0   125  0.501  0.501  0.457  0.363  0.357  0.354  0.344  0.351  0.000  0.000
 1990 340   156   145      1     52    490     0     0   125  0.555  0.556  0.562  0.453  0.366  0.353  0.343  0.349  0.000  0.000
 1990 341   157   199      3     52    553     0     0   125  0.550  0.558  0.558  0.459  0.460  0.446  0.411  0.350  0.000  0.000
 1990 342   158   192      3     53    553     0     0   125  0.532  0.547  0.547  0.445  0.443  0.430  0.405  0.395  0.000  0.000
 1990 343   159   188      3     55    553     0     0   125  0.537  0.539  0.544  0.441  0.437  0.424  0.407  0.394  0.000  0.000
 1990 344   160   222      6     87    623     0     0   125  0.565  0.567  0.566  0.468  0.459  0.446  0.438  0.431  0.000  0.000
 1990 345   161   202      6    101    623     0     0   125  0.541  0.554  0.554  0.450  0.445  0.433  0.419  0.413  0.000  0.000
 1990 346   162   193      6    108    623     0     0   125  0.535  0.547  0.547  0.442  0.437  0.425  0.412  0.404  0.000  0.000
 1990 347   163   186      6    111    623     0     0   125  0.531  0.539  0.542  0.437  0.432  0.420  0.407  0.398  0.000  0.000
 1990 348   164   180      6    111    623     0     0   125  0.523  0.533  0.537  0.432  0.427  0.415  0.402  0.394  0.000  0.000
 1990 349   165   173      6    111    623     0     0   125  0.513  0.526  0.531  0.427  0.422  0.410  0.397  0.391  0.000  0.000
 1990 350   166   167      6    111    623     0     0   125  0.505  0.519  0.524  0.423  0.417  0.405  0.392  0.388  0.000  0.000
 1990 351   167   163      6    111    623     0     0   125  0.504  0.514  0.520  0.420  0.414  0.403  0.390  0.386  0.000  0.000
 1990 352   168   193      6    111    659     0     0   125  0.557  0.562  0.562  0.465  0.456  0.416  0.388  0.383  0.000  0.000
 1990 353   169   187      6    111    659     0     0   125  0.532  0.549  0.549  0.449  0.441  0.414  0.403  0.385  0.000  0.000
 1990 354   170   180      6    111    659     0     0   125  0.521  0.536  0.541  0.440  0.431  0.414  0.400  0.382  0.000  0.000
 1990 355   171   174      6    111    659     0     0   125  0.516  0.529  0.535  0.435  0.427  0.409  0.395  0.379  0.000  0.000
 1990 356   172   199      6    111    687     0     0   125  0.570  0.564  0.565  0.468  0.459  0.424  0.401  0.378  0.000  0.000
 1990 357   173   192      6    114    687     0     0   125  0.544  0.552  0.554  0.452  0.444  0.418  0.404  0.393  0.000  0.000
 1990 358   174   204      6    114    702     0     0   125  0.558  0.566  0.566  0.468  0.458  0.426  0.410  0.394  0.000  0.000
 1990 359   175   191      6    120    702     0     0   125  0.531  0.553  0.554  0.453  0.444  0.417  0.403  0.391  0.000  0.000
 1990 360   176   183      6    121    702     0     0   125  0.514  0.540  0.545  0.442  0.434  0.413  0.402  0.391  0.000  0.000
 1990 361   177   175      6    121    702     0     0   125  0.507  0.528  0.537  0.435  0.428  0.409  0.396  0.387  0.000  0.000
 1990 362   178   169      6    121    702     0     0   125  0.497  0.520  0.530  0.430  0.423  0.405  0.392  0.385  0.000  0.000
 1990 363   179   163      6    121    702     0     0   125  0.486  0.513  0.524  0.426  0.419  0.401  0.388  0.382  0.000  0.000
 1990 364   180   156      6    121    702     0     0   125  0.476  0.505  0.517  0.421  0.414  0.396  0.383  0.379  0.000  0.000
 1990 365   181   149      6    121    702     0     0   125  0.457  0.497  0.510  0.415  0.409  0.391  0.379  0.375  0.000  0.000
 1991 001   182   143      6    121    702     0     0   125  0.444  0.488  0.504  0.411  0.404  0.388  0.376  0.372  0.000  0.000
 1991 002   183   137      6    121    702     0     0   125  0.429  0.480  0.497  0.406  0.400  0.385  0.373  0.369  0.000  0.000
 1991 003   184   131      6    121    702     0     0   125  0.411  0.471  0.490  0.401  0.394  0.382  0.371  0.366  0.000  0.000
 1991 004   185   125      6    121    702     0     0   125  0.400  0.462  0.483  0.395  0.388  0.379  0.368  0.363  0.000  0.000
 1991 005   186   118      6    121    702     0     0   125  0.391  0.452  0.474  0.388  0.383  0.376  0.365  0.361  0.000  0.000
 1991 006   187   112      6    121    702     0     0   125  0.382  0.442  0.465  0.382  0.379  0.373  0.362  0.358  0.000  0.000
 1991 007   188   106      6    121    702     0     0   125  0.374  0.431  0.455  0.376  0.375  0.370  0.360  0.355  0.000  0.000
 1991 008   189   100      6    121    702     0     0   125  0.366  0.422  0.444  0.372  0.371  0.367  0.357  0.352  0.000  0.000
 1991 009   190    98      6    121    702     0     0   125  0.358  0.419  0.440  0.370  0.370  0.366  0.356  0.352  0.000  0.000

*DSSAT Cropping System Model Ver. 4.0.2.000               Jul 19, 2016; 11:52:45

*RUN   2        : UYMZ                    
 MODEL          : MZCER040 - Maize           
 EXPERIMENT     : UYMZ0003 MZ    late to create DSS                             
 TREATMENT  1   : UYMZ                    

@YEAR DOY   DAS  SWXD   ROFC   DRNC   PREC  IR#C  IRRC  DTWT   SW1D   SW2D   SW3D   SW4D   SW5D   SW6D   SW7D   SW8D   SW9D   SW10
 1991 184     0   116      0      0      0     0     0   125  0.363  0.394  0.394  0.335  0.375  0.419  0.408  0.395  0.000  0.000
 1991 185     1   115      0      0      0     0     0   125  0.342  0.393  0.394  0.335  0.376  0.418  0.408  0.395  0.000  0.000
 1991 186     2   114      0      0      0     0     0   125  0.325  0.392  0.394  0.336  0.376  0.418  0.408  0.395  0.000  0.000
 1991 187     3   113      0      0      0     0     0   125  0.311  0.390  0.394  0.336  0.377  0.417  0.408  0.395  0.000  0.000
 1991 188     4   113      0      0      0     0     0   125  0.299  0.389  0.394  0.337  0.377  0.417  0.408  0.395  0.000  0.000
 1991 189     5   112      0      0      0     0     0   125  0.288  0.388  0.394  0.337  0.378  0.416  0.408  0.395  0.000  0.000
 1991 190     6   111      0      0      0     0     0   125  0.277  0.387  0.394  0.338  0.378  0.416  0.408  0.395  0.000  0.000
 1991 191     7   124      0      0     14     0     0   125  0.526  0.389  0.394  0.338  0.378  0.415  0.408  0.395  0.000  0.000
 1991 192     8   123      0      0     14     0     0   125  0.480  0.399  0.394  0.339  0.378  0.415  0.408  0.395  0.000  0.000
 1991 193     9   122      0      0     14     0     0   125  0.448  0.404  0.394  0.339  0.379  0.415  0.408  0.395  0.000  0.000
 1991 194    10   120      0      0     14     0     0   125  0.416  0.406  0.394  0.340  0.379  0.414  0.408  0.395  0.000  0.000
 1991 195    11   118      0      0     14     0     0   125  0.377  0.406  0.395  0.340  0.379  0.414  0.407  0.395  0.000  0.000
 1991 196    12   117      0      0     14     0     0   125  0.346  0.405  0.395  0.341  0.380  0.414  0.407  0.395  0.000  0.000
 1991 197    13   115      0      0     14     0     0   125  0.325  0.403  0.395  0.341  0.380  0.413  0.407  0.395  0.000  0.000
 1991 198    14   114      0      0     14     0     0   125  0.309  0.401  0.395  0.341  0.380  0.413  0.407  0.395  0.000  0.000
 1991 199    15   172      0      0     72     0     0   125  0.555  0.566  0.567  0.359  0.380  0.413  0.407  0.395  0.000  0.000
 1991 200    16   178      0      0     80     0     0   125  0.526  0.568  0.563  0.411  0.381  0.412  0.407  0.395  0.000  0.000
 1991 201    17   178      0      0     83     0     0   125  0.537  0.556  0.558  0.425  0.382  0.412  0.407  0.395  0.000  0.000
 1991 202    18   224     14     26    169     0     0   125  0.569  0.568  0.566  0.470  0.462  0.447  0.439  0.432  0.000  0.000
 1991 203    19   223     16     69    213     0     0   125  0.553  0.568  0.568  0.470  0.460  0.447  0.439  0.432  0.000  0.000
 1991 204    20   222     16     94    239     0     0   125  0.538  0.568  0.568  0.470  0.460  0.447  0.439  0.432  0.000  0.000
 1991 205    21   205     16    108    239     0     0   125  0.487  0.555  0.557  0.457  0.449  0.436  0.427  0.417  0.000  0.000
 1991 206    22   194     16    117    239     0     0   125  0.478  0.532  0.550  0.449  0.442  0.429  0.419  0.408  0.000  0.000
 1991 207    23   186     16    121    239     0     0   125  0.452  0.522  0.543  0.445  0.437  0.425  0.415  0.403  0.000  0.000
 1991 208    24   182     16    124    239     0     0   125  0.456  0.514  0.538  0.442  0.435  0.423  0.412  0.400  0.000  0.000
 1991 209    25   180     16    125    239     0     0   125  0.459  0.509  0.533  0.440  0.433  0.421  0.410  0.398  0.000  0.000
 1991 210    26   179     16    125    239     0     0   125  0.461  0.506  0.530  0.439  0.433  0.421  0.410  0.398  0.000  0.000
 1991 211    27   178     16    125    239     0     0   125  0.462  0.503  0.527  0.438  0.433  0.421  0.410  0.398  0.000  0.000
 1991 212    28   201     16    126    265     0     0   125  0.539  0.566  0.565  0.469  0.445  0.423  0.412  0.399  0.000  0.000
 1991 213    29   193     16    132    265     0     0   125  0.492  0.554  0.556  0.456  0.440  0.422  0.411  0.397  0.000  0.000
 1991 214    30   188     16    135    265     0     0   125  0.491  0.533  0.549  0.449  0.436  0.422  0.411  0.397  0.000  0.000
 1991 215    31   210     16    136    290     0     0   125  0.536  0.564  0.565  0.470  0.460  0.437  0.421  0.402  0.000  0.000
 1991 216    32   223     16    149    317     0     0   125  0.558  0.565  0.568  0.470  0.460  0.447  0.439  0.432  0.000  0.000
 1991 217    33   205     16    163    317     0     0   125  0.494  0.556  0.557  0.457  0.449  0.436  0.427  0.417  0.000  0.000
 1991 218    34   196     16    172    317     0     0   125  0.514  0.534  0.551  0.449  0.442  0.429  0.419  0.408  0.000  0.000
 1991 219    35   190     16    176    317     0     0   125  0.500  0.530  0.544  0.445  0.437  0.425  0.415  0.403  0.000  0.000
 1991 220    36   186     16    179    317     0     0   125  0.492  0.526  0.541  0.442  0.435  0.423  0.412  0.400  0.000  0.000
 1991 221    37   183     16    180    317     0     0   125  0.491  0.522  0.537  0.440  0.433  0.421  0.410  0.398  0.000  0.000
 1991 222    38   182     16    180    317     0     0   125  0.490  0.518  0.534  0.439  0.433  0.421  0.410  0.398  0.000  0.000
 1991 223    39   181     16    180    317     0     0   125  0.475  0.516  0.531  0.439  0.433  0.421  0.410  0.398  0.000  0.000
 1991 224    40   180     16    180    317     0     0   125  0.472  0.511  0.529  0.438  0.433  0.421  0.410  0.398  0.000  0.000
 1991 225    41   179     16    180    317     0     0   125  0.470  0.507  0.527  0.437  0.433  0.421  0.410  0.398  0.000  0.000
 1991 226    42   178     16    180    317     0     0   125  0.469  0.504  0.524  0.436  0.433  0.421  0.410  0.398  0.000  0.000
 1991 227    43   177     16    180    317     0     0   125  0.469  0.502  0.522  0.435  0.433  0.421  0.410  0.398  0.000  0.000
 1991 228    44   176     16    180    317     0     0   125  0.467  0.500  0.520  0.434  0.433  0.421  0.410  0.398  0.000  0.000
 1991 229    45   176     16    180    317     0     0   125  0.466  0.497  0.518  0.433  0.432  0.421  0.410  0.398  0.000  0.000
 1991 230    46   175     16    180    317     0     0   125  0.465  0.496  0.517  0.432  0.432  0.421  0.410  0.398  0.000  0.000
 1991 231    47   174     16    180    317     0     0   125  0.464  0.493  0.515  0.431  0.432  0.421  0.410  0.398  0.000  0.000
 1991 232    48   173     16    180    317     0     0   125  0.463  0.492  0.513  0.430  0.431  0.421  0.410  0.398  0.000  0.000
 1991 233    49   173     16    180    317     0     0   125  0.461  0.489  0.511  0.430  0.431  0.421  0.410  0.398  0.000  0.000
 1991 234    50   172     16    180    317     0     0   125  0.459  0.487  0.509  0.429  0.431  0.421  0.410  0.398  0.000  0.000
 1991 235    51   171     16    180    317     0     0   125  0.457  0.485  0.506  0.428  0.430  0.421  0.410  0.398  0.000  0.000
 1991 236    52   170     16    180    317     0     0   125  0.455  0.482  0.503  0.427  0.430  0.421  0.410  0.398  0.000  0.000
 1991 237    53   169     16    180    317     0     0   125  0.453  0.480  0.501  0.426  0.429  0.421  0.410  0.398  0.000  0.000
 1991 238    54   169     16    180    317     0     0   125  0.452  0.479  0.500  0.426  0.429  0.421  0.410  0.398  0.000  0.000
 1991 239    55   169     16    180    319     0     0   125  0.480  0.477  0.498  0.425  0.429  0.421  0.410  0.398  0.000  0.000
 1991 240    56   169     16    180    319     0     0   125  0.469  0.479  0.496  0.424  0.428  0.421  0.410  0.398  0.000  0.000
 1991 241    57   168     16    180    319     0     0   125  0.463  0.478  0.494  0.423  0.428  0.421  0.410  0.398  0.000  0.000
 1991 242    58   167     16    180    319     0     0   125  0.458  0.477  0.492  0.422  0.427  0.421  0.410  0.398  0.000  0.000
 1991 243    59   168     16    180    321     0     0   125  0.485  0.476  0.491  0.422  0.427  0.421  0.410  0.398  0.000  0.000
 1991 244    60   181     16    180    336     0     0   125  0.536  0.569  0.501  0.421  0.426  0.421  0.410  0.398  0.000  0.000
 1991 245    61   180     16    180    337     0     0   125  0.533  0.547  0.513  0.421  0.426  0.421  0.410  0.398  0.000  0.000
 1991 246    62   178     16    180    337     0     0   125  0.505  0.533  0.516  0.421  0.426  0.421  0.410  0.398  0.000  0.000
 1991 247    63   174     16    180    337     0     0   125  0.482  0.518  0.511  0.421  0.425  0.421  0.410  0.398  0.000  0.000
 1991 248    64   172     16    180    337     0     0   125  0.473  0.506  0.506  0.420  0.425  0.421  0.410  0.398  0.000  0.000
 1991 249    65   170     16    180    337     0     0   125  0.470  0.499  0.504  0.420  0.425  0.421  0.410  0.398  0.000  0.000
 1991 250    66   177     16    180    344     0     0   125  0.564  0.520  0.502  0.419  0.424  0.420  0.410  0.398  0.000  0.000
 1991 251    67   176     16    180    344     0     0   125  0.523  0.527  0.503  0.419  0.424  0.420  0.410  0.398  0.000  0.000
 1991 252    68   172     16    180    344     0     0   125  0.487  0.519  0.501  0.418  0.424  0.420  0.410  0.398  0.000  0.000
 1991 253    69   169     16    180    344     0     0   125  0.461  0.505  0.497  0.416  0.424  0.420  0.410  0.398  0.000  0.000
 1991 254    70   165     16    180    344     0     0   125  0.450  0.492  0.490  0.414  0.423  0.420  0.410  0.398  0.000  0.000
 1991 255    71   162     16    180    344     0     0   125  0.440  0.481  0.482  0.411  0.422  0.420  0.410  0.398  0.000  0.000
 1991 256    72   159     16    180    344     0     0   125  0.431  0.472  0.476  0.408  0.421  0.420  0.410  0.398  0.000  0.000
 1991 257    73   158     16    180    344     0     0   125  0.429  0.467  0.474  0.407  0.421  0.420  0.410  0.398  0.000  0.000
 1991 258    74   174     16    180    361     0     0   125  0.566  0.553  0.479  0.406  0.420  0.420  0.410  0.398  0.000  0.000
 1991 259    75   174     16    180    364     0     0   125  0.545  0.552  0.491  0.404  0.419  0.420  0.410  0.398  0.000  0.000
 1991 260    76   186     16    180    377     0     0   125  0.556  0.557  0.555  0.411  0.419  0.419  0.410  0.398  0.000  0.000
 1991 261    77   220     18    199    435     0     0   125  0.537  0.565  0.557  0.469  0.459  0.447  0.439  0.432  0.000  0.000
 1991 262    78   202     18    212    435     0     0   125  0.510  0.551  0.542  0.452  0.446  0.436  0.427  0.417  0.000  0.000
 1991 263    79   192     18    219    435     0     0   125  0.516  0.533  0.537  0.443  0.438  0.429  0.419  0.408  0.000  0.000
 1991 264    80   186     18    223    435     0     0   125  0.512  0.526  0.531  0.437  0.434  0.425  0.415  0.403  0.000  0.000
 1991 265    81   180     18    224    435     0     0   125  0.495  0.519  0.523  0.432  0.431  0.423  0.412  0.400  0.000  0.000
 1991 266    82   176     18    225    435     0     0   125  0.493  0.510  0.517  0.426  0.426  0.421  0.410  0.398  0.000  0.000
 1991 267    83   172     18    225    435     0     0   125  0.474  0.504  0.510  0.421  0.421  0.421  0.410  0.398  0.000  0.000
 1991 268    84   168     18    225    435     0     0   125  0.460  0.496  0.504  0.415  0.416  0.421  0.410  0.398  0.000  0.000
 1991 269    85   163     18    225    435     0     0   125  0.445  0.488  0.497  0.410  0.411  0.420  0.410  0.398  0.000  0.000
 1991 270    86   159     18    225    435     0     0   125  0.433  0.480  0.491  0.404  0.406  0.419  0.410  0.398  0.000  0.000
 1991 271    87   155     18    225    435     0     0   125  0.424  0.472  0.485  0.399  0.401  0.418  0.410  0.398  0.000  0.000
 1991 272    88   151     18    225    435     0     0   125  0.416  0.465  0.478  0.394  0.396  0.417  0.410  0.398  0.000  0.000
 1991 273    89   147     18    225    435     0     0   125  0.409  0.458  0.472  0.389  0.391  0.415  0.410  0.398  0.000  0.000
 1991 274    90   144     18    225    435     0     0   125  0.403  0.452  0.467  0.385  0.388  0.413  0.410  0.398  0.000  0.000
 1991 275    91   140     18    225    435     0     0   125  0.397  0.445  0.460  0.381  0.384  0.411  0.410  0.398  0.000  0.000
 1991 276    92   136     18    225    435     0     0   125  0.391  0.439  0.454  0.378  0.381  0.407  0.410  0.398  0.000  0.000
 1991 277    93   133     18    225    435     0     0   125  0.385  0.433  0.448  0.375  0.379  0.404  0.410  0.398  0.000  0.000
 1991 278    94   131     18    225    435     0     0   125  0.384  0.430  0.446  0.375  0.379  0.402  0.410  0.398  0.000  0.000
 1991 279    95   154     18    225    460     0     0   125  0.563  0.565  0.458  0.373  0.378  0.400  0.409  0.398  0.000  0.000
 1991 280    96   174     18    225    482     0     0   125  0.556  0.555  0.571  0.404  0.377  0.397  0.409  0.398  0.000  0.000
 1991 281    97   169     18    225    482     0     0   125  0.529  0.546  0.552  0.419  0.376  0.393  0.409  0.398  0.000  0.000
 1991 282    98   165     18    225    482     0     0   125  0.520  0.536  0.542  0.421  0.375  0.390  0.408  0.398  0.000  0.000
 1991 283    99   161     18    225    482     0     0   125  0.508  0.528  0.533  0.415  0.375  0.386  0.408  0.398  0.000  0.000
 1991 284   100   155     18    225    482     0     0   125  0.496  0.518  0.524  0.410  0.373  0.382  0.408  0.398  0.000  0.000
 1991 285   101   150     18    225    482     0     0   125  0.482  0.507  0.514  0.403  0.372  0.379  0.407  0.398  0.000  0.000
 1991 286   102   145     18    225    482     0     0   125  0.474  0.496  0.505  0.396  0.370  0.376  0.407  0.398  0.000  0.000
 1991 287   103   149     18    225    489     0     0   125  0.564  0.513  0.499  0.393  0.370  0.375  0.406  0.398  0.000  0.000
 1991 288   104   183     18    225    525     0     0   125  0.541  0.572  0.567  0.468  0.424  0.374  0.406  0.398  0.000  0.000
 1991 289   105   228     23    249    599     0     0   125  0.563  0.569  0.583  0.489  0.458  0.447  0.439  0.432  0.000  0.000
 1991 290   106   209     23    265    599     0     0   125  0.546  0.555  0.564  0.466  0.445  0.433  0.426  0.417  0.000  0.000
 1991 291   107   195     23    274    599     0     0   125  0.525  0.546  0.552  0.451  0.433  0.421  0.419  0.408  0.000  0.000
 1991 292   108   186     23    278    599     0     0   125  0.519  0.533  0.543  0.441  0.427  0.416  0.415  0.403  0.000  0.000
 1991 293   109   179     23    279    599     0     0   125  0.511  0.526  0.536  0.435  0.421  0.410  0.412  0.400  0.000  0.000
 1991 294   110   173     23    279    599     0     0   125  0.504  0.519  0.528  0.429  0.416  0.405  0.410  0.398  0.000  0.000
 1991 295   111   168     23    279    599     0     0   125  0.499  0.512  0.522  0.423  0.411  0.400  0.410  0.398  0.000  0.000
 1991 296   112   170     23    279    602     0     0   125  0.555  0.513  0.519  0.422  0.410  0.399  0.410  0.398  0.000  0.000
 1991 297   113   168     23    279    602     0     0   125  0.525  0.523  0.518  0.420  0.409  0.398  0.409  0.398  0.000  0.000
 1991 298   114   167     23    279    602     0     0   125  0.519  0.521  0.517  0.418  0.407  0.396  0.409  0.398  0.000  0.000
 1991 299   115   162     23    279    602     0     0   125  0.506  0.514  0.512  0.413  0.402  0.392  0.409  0.398  0.000  0.000
 1991 300   116   159     23    279    602     0     0   125  0.503  0.509  0.509  0.410  0.400  0.390  0.408  0.398  0.000  0.000
 1991 301   117   157     23    279    602     0     0   125  0.502  0.506  0.507  0.409  0.398  0.389  0.408  0.398  0.000  0.000
 1991 302   118   156     23    279    602     0     0   125  0.499  0.503  0.504  0.407  0.396  0.388  0.407  0.398  0.000  0.000
 1991 303   119   170     23    279    618     0     0   125  0.565  0.565  0.542  0.407  0.395  0.387  0.407  0.398  0.000  0.000
 1991 304   120   170     23    279    619     0     0   125  0.563  0.559  0.542  0.411  0.393  0.386  0.406  0.398  0.000  0.000
 1991 305   121   166     23    279    619     0     0   125  0.543  0.548  0.536  0.416  0.390  0.384  0.405  0.398  0.000  0.000
 1991 306   122   161     23    279    619     0     0   125  0.527  0.539  0.530  0.410  0.385  0.381  0.404  0.398  0.000  0.000
 1991 307   123   156     23    279    619     0     0   125  0.524  0.528  0.524  0.406  0.383  0.378  0.402  0.398  0.000  0.000
 1991 308   124   151     23    279    619     0     0   125  0.508  0.519  0.516  0.400  0.379  0.376  0.398  0.397  0.000  0.000
 1991 309   125   146     23    279    619     0     0   125  0.500  0.510  0.509  0.395  0.377  0.374  0.394  0.397  0.000  0.000
 1991 310   126   153     23    279    628     0     0   125  0.565  0.551  0.512  0.393  0.376  0.373  0.392  0.397  0.000  0.000
 1991 311   127   148     23    279    628     0     0   125  0.541  0.536  0.514  0.389  0.374  0.371  0.388  0.396  0.000  0.000
 1991 312   128   144     23    279    628     0     0   125  0.523  0.528  0.511  0.386  0.373  0.370  0.384  0.396  0.000  0.000
 1991 313   129   139     23    279    628     0     0   125  0.508  0.516  0.504  0.383  0.371  0.368  0.379  0.396  0.000  0.000
 1991 314   130   135     23    279    628     0     0   125  0.500  0.507  0.499  0.381  0.369  0.367  0.375  0.395  0.000  0.000
 1991 315   131   131     23    279    628     0     0   125  0.491  0.499  0.493  0.379  0.368  0.366  0.373  0.394  0.000  0.000
 1991 316   132   126     23    279    628     0     0   125  0.475  0.489  0.484  0.376  0.366  0.364  0.369  0.394  0.000  0.000
 1991 317   133   123     23    279    628     0     0   125  0.466  0.481  0.478  0.374  0.365  0.363  0.367  0.393  0.000  0.000
 1991 318   134   121     23    279    628     0     0   125  0.464  0.476  0.474  0.373  0.364  0.362  0.366  0.393  0.000  0.000
 1991 319   135   118     23    279    628     0     0   125  0.457  0.470  0.470  0.372  0.363  0.361  0.365  0.392  0.000  0.000
 1991 320   136   114     23    279    628     0     0   125  0.443  0.461  0.462  0.370  0.362  0.360  0.363  0.391  0.000  0.000
 1991 321   137   110     23    279    628     0     0   125  0.428  0.452  0.454  0.367  0.360  0.359  0.361  0.390  0.000  0.000
 1991 322   138   105     23    279    628     0     0   125  0.413  0.441  0.444  0.365  0.359  0.357  0.359  0.389  0.000  0.000
 1991 323   139    99     23    279    628     0     0   125  0.401  0.428  0.432  0.362  0.357  0.355  0.356  0.386  0.000  0.000
 1991 324   140    94     23    279    628     0     0   125  0.388  0.419  0.423  0.359  0.355  0.354  0.354  0.382  0.000  0.000
 1991 325   141    87     23    279    628     0     0   125  0.371  0.411  0.415  0.355  0.352  0.351  0.351  0.374  0.000  0.000
 1991 326   142    80     23    279    628     0     0   125  0.354  0.404  0.408  0.351  0.350  0.349  0.347  0.363  0.000  0.000
 1991 327   143    74     23    279    628     0     0   125  0.339  0.397  0.402  0.348  0.347  0.346  0.344  0.353  0.000  0.000
 1991 328   144    72     23    279    628     0     0   125  0.337  0.394  0.400  0.347  0.346  0.346  0.343  0.351  0.000  0.000
 1991 329   145   153     23    279    710     0     0   125  0.580  0.567  0.566  0.469  0.403  0.345  0.342  0.349  0.000  0.000
 1991 330   146   180     23    279    741     0     0   125  0.556  0.564  0.564  0.465  0.458  0.415  0.342  0.348  0.000  0.000
 1991 331   147   178     23    279    744     0     0   125  0.550  0.564  0.561  0.460  0.453  0.417  0.345  0.347  0.000  0.000
 1991 332   148   173     23    279    744     0     0   125  0.527  0.553  0.551  0.447  0.438  0.413  0.370  0.345  0.000  0.000
 1991 333   149   177     23    279    752     0     0   125  0.566  0.559  0.559  0.448  0.438  0.413  0.368  0.345  0.000  0.000
 1991 334   150   170     23    279    752     0     0   125  0.528  0.549  0.549  0.438  0.429  0.412  0.373  0.343  0.000  0.000
 1991 335   151   164     23    279    752     0     0   125  0.519  0.536  0.543  0.434  0.426  0.408  0.371  0.343  0.000  0.000
 1991 336   152   158     23    279    752     0     0   125  0.505  0.527  0.535  0.428  0.420  0.402  0.368  0.342  0.000  0.000
 1991 337   153   154     23    279    752     0     0   125  0.505  0.520  0.530  0.426  0.417  0.399  0.367  0.341  0.000  0.000
 1991 338   154   147     23    279    752     0     0   125  0.485  0.513  0.522  0.420  0.412  0.394  0.365  0.340  0.000  0.000
 1991 339   155   160     23    279    768     0     0   125  0.567  0.561  0.550  0.426  0.409  0.391  0.364  0.340  0.000  0.000
 1991 340   156   153     23    279    768     0     0   125  0.526  0.547  0.539  0.432  0.403  0.386  0.362  0.338  0.000  0.000
 1991 341   157   149     23    279    768     0     0   125  0.523  0.534  0.537  0.428  0.400  0.384  0.361  0.338  0.000  0.000
 1991 342   158   142     23    279    768     0     0   125  0.501  0.525  0.528  0.421  0.394  0.380  0.359  0.337  0.000  0.000
 1991 343   159   156     23    279    784     0     0   125  0.574  0.561  0.563  0.436  0.393  0.379  0.358  0.337  0.000  0.000
 1991 344   160   168     23    279    802     0     0   125  0.540  0.562  0.562  0.463  0.451  0.385  0.357  0.336  0.000  0.000
 1991 345   161   164     23    279    802     0     0   125  0.520  0.549  0.550  0.449  0.438  0.398  0.356  0.335  0.000  0.000
 1991 346   162   162     23    279    802     0     0   125  0.529  0.536  0.545  0.443  0.433  0.402  0.356  0.335  0.000  0.000
 1991 347   163   165     23    279    811     0     0   125  0.540  0.562  0.555  0.443  0.430  0.398  0.355  0.334  0.000  0.000
 1991 348   164   176     23    279    825     0     0   125  0.560  0.566  0.567  0.468  0.453  0.404  0.354  0.334  0.000  0.000
 1991 349   165   176     23    279    827     0     0   125  0.557  0.562  0.561  0.463  0.453  0.409  0.354  0.334  0.000  0.000
 1991 350   166   179     23    279    835     0     0   125  0.544  0.565  0.565  0.467  0.457  0.416  0.354  0.333  0.000  0.000
 1991 351   167   179     23    279    841     0     0   125  0.532  0.565  0.565  0.466  0.457  0.416  0.358  0.332  0.000  0.000
 1991 352   168   173     23    279    841     0     0   125  0.504  0.548  0.553  0.451  0.443  0.411  0.382  0.331  0.000  0.000
 1991 353   169   193     23    279    867     0     0   125  0.555  0.557  0.565  0.466  0.457  0.436  0.403  0.331  0.000  0.000
 1991 354   170   190     23    279    871     0     0   125  0.526  0.564  0.562  0.461  0.454  0.428  0.408  0.336  0.000  0.000
 1991 355   171   184     23    279    871     0     0   125  0.504  0.546  0.552  0.449  0.442  0.419  0.402  0.371  0.000  0.000
 1991 356   172   182     23    279    871     0     0   125  0.517  0.531  0.545  0.443  0.436  0.418  0.406  0.375  0.000  0.000
 1991 357   173   213     23    280    909     0     0   125  0.542  0.564  0.562  0.466  0.457  0.444  0.435  0.402  0.000  0.000
 1991 358   174   196     23    291    909     0     0   125  0.497  0.549  0.552  0.452  0.444  0.431  0.419  0.394  0.000  0.000
 1991 359   175   186     23    296    909     0     0   125  0.499  0.529  0.544  0.444  0.437  0.424  0.411  0.392  0.000  0.000
 1991 360   176   186     23    296    914     0     0   125  0.550  0.538  0.538  0.439  0.433  0.420  0.410  0.392  0.000  0.000
 1991 361   177   180     23    296    914     0     0   125  0.497  0.537  0.535  0.435  0.430  0.417  0.406  0.389  0.000  0.000
 1991 362   178   173     23    296    914     0     0   125  0.479  0.522  0.530  0.431  0.426  0.414  0.402  0.385  0.000  0.000
 1991 363   179   167     23    296    914     0     0   125  0.468  0.511  0.524  0.427  0.422  0.410  0.398  0.382  0.000  0.000
 1991 364   180   161     23    296    914     0     0   125  0.443  0.502  0.518  0.424  0.419  0.407  0.395  0.379  0.000  0.000
 1991 365   181   157     23    296    914     0     0   125  0.432  0.494  0.513  0.421  0.416  0.404  0.393  0.376  0.000  0.000
 1992 001   182   154     23    296    914     0     0   125  0.429  0.488  0.510  0.419  0.415  0.403  0.391  0.375  0.000  0.000
 1992 002   183   170     23    296    935     0     0   125  0.546  0.562  0.540  0.418  0.413  0.401  0.389  0.373  0.000  0.000
 1992 003   184   164     23    296    935     0     0   125  0.492  0.550  0.538  0.421  0.410  0.398  0.386  0.370  0.000  0.000
 1992 004   185   157     23    296    935     0     0   125  0.476  0.527  0.534  0.419  0.406  0.394  0.383  0.367  0.000  0.000
 1992 005   186   150     23    296    935     0     0   125  0.444  0.514  0.526  0.416  0.403  0.391  0.379  0.364  0.000  0.000
 1992 006   187   146     23    296    935     0     0   125  0.440  0.502  0.520  0.414  0.401  0.389  0.377  0.363  0.000  0.000

*DSSAT Cropping System Model Ver. 4.0.2.000               Jul 19, 2016; 11:52:45

*RUN   3        : UYMZ                    
 MODEL          : MZCER040 - Maize           
 EXPERIMENT     : UYMZ0003 MZ    late to create DSS                             
 TREATMENT  1   : UYMZ                    

@YEAR DOY   DAS  SWXD   ROFC   DRNC   PREC  IR#C  IRRC  DTWT   SW1D   SW2D   SW3D   SW4D   SW5D   SW6D   SW7D   SW8D   SW9D   SW10
 1992 184     0   117      0      0      1     0     0   125  0.371  0.394  0.394  0.335  0.375  0.419  0.408  0.395  0.000  0.000
 1992 185     1   115      0      0      1     0     0   125  0.328  0.393  0.394  0.335  0.376  0.418  0.408  0.395  0.000  0.000
 1992 186     2   114      0      0      1     0     0   125  0.316  0.392  0.394  0.336  0.376  0.418  0.408  0.395  0.000  0.000
 1992 187     3   112      0      0      1     0     0   125  0.288  0.390  0.394  0.336  0.377  0.417  0.408  0.395  0.000  0.000
 1992 188     4   111      0      0      1     0     0   125  0.268  0.389  0.394  0.337  0.377  0.417  0.408  0.395  0.000  0.000
 1992 189     5   110      0      0      1     0     0   125  0.251  0.388  0.394  0.337  0.378  0.416  0.408  0.395  0.000  0.000
 1992 190     6   109      0      0      1     0     0   125  0.237  0.387  0.394  0.338  0.378  0.416  0.408  0.395  0.000  0.000
 1992 191     7   109      0      0      1     0     0   125  0.225  0.386  0.394  0.338  0.378  0.415  0.408  0.395  0.000  0.000
 1992 192     8   108      0      0      1     0     0   125  0.222  0.385  0.394  0.339  0.378  0.415  0.408  0.395  0.000  0.000
 1992 193     9   108      0      0      1     0     0   125  0.222  0.384  0.394  0.339  0.379  0.415  0.408  0.395  0.000  0.000
 1992 194    10   108      0      0      1     0     0   125  0.222  0.383  0.393  0.340  0.379  0.414  0.408  0.395  0.000  0.000
 1992 195    11   108      0      0      1     0     0   125  0.222  0.382  0.393  0.340  0.379  0.414  0.407  0.395  0.000  0.000
 1992 196    12   154      0      0     48     0     0   125  0.568  0.567  0.465  0.340  0.380  0.414  0.407  0.395  0.000  0.000
 1992 197    13   153      0      0     48     0     0   125  0.523  0.551  0.478  0.342  0.380  0.413  0.407  0.395  0.000  0.000
 1992 198    14   152      0      0     48     0     0   125  0.517  0.529  0.485  0.344  0.380  0.413  0.407  0.395  0.000  0.000
 1992 199    15   150      0      0     48     0     0   125  0.492  0.519  0.487  0.347  0.380  0.413  0.407  0.395  0.000  0.000
 1992 200    16   148      0      0     48     0     0   125  0.477  0.508  0.488  0.349  0.381  0.412  0.407  0.395  0.000  0.000
 1992 201    17   148      0      0     49     0     0   125  0.479  0.500  0.487  0.351  0.381  0.412  0.407  0.395  0.000  0.000
 1992 202    18   145      0      0     49     0     0   125  0.438  0.494  0.486  0.353  0.381  0.412  0.407  0.395  0.000  0.000
 1992 203    19   144      0      0     49     0     0   125  0.425  0.486  0.485  0.355  0.381  0.411  0.407  0.395  0.000  0.000
 1992 204    20   143      0      0     49     0     0   125  0.418  0.479  0.483  0.357  0.382  0.411  0.407  0.395  0.000  0.000
 1992 205    21   142      0      0     49     0     0   125  0.413  0.473  0.481  0.359  0.382  0.411  0.407  0.395  0.000  0.000
 1992 206    22   141      0      0     49     0     0   125  0.408  0.468  0.479  0.360  0.382  0.411  0.407  0.395  0.000  0.000
 1992 207    23   140      0      0     49     0     0   125  0.404  0.464  0.477  0.362  0.382  0.410  0.406  0.395  0.000  0.000
 1992 208    24   140      0      0     49     0     0   125  0.401  0.460  0.475  0.363  0.383  0.410  0.406  0.395  0.000  0.000
 1992 209    25   142      0      0     54     0     0   125  0.462  0.457  0.473  0.364  0.383  0.410  0.406  0.395  0.000  0.000
 1992 210    26   141      0      0     54     0     0   125  0.445  0.459  0.471  0.365  0.383  0.410  0.406  0.395  0.000  0.000
 1992 211    27   142      0      0     55     0     0   125  0.454  0.458  0.470  0.366  0.383  0.409  0.406  0.395  0.000  0.000
 1992 212    28   144      0      0     59     0     0   125  0.508  0.459  0.469  0.367  0.384  0.409  0.406  0.395  0.000  0.000
 1992 213    29   143      0      0     59     0     0   125  0.471  0.466  0.468  0.368  0.384  0.409  0.406  0.394  0.000  0.000
 1992 214    30   142      0      0     59     0     0   125  0.449  0.467  0.467  0.369  0.384  0.409  0.406  0.394  0.000  0.000
 1992 215    31   141      0      0     59     0     0   125  0.436  0.465  0.467  0.370  0.385  0.408  0.406  0.394  0.000  0.000
 1992 216    32   140      0      0     59     0     0   125  0.427  0.462  0.466  0.371  0.385  0.408  0.406  0.394  0.000  0.000
 1992 217    33   140      0      0     59     0     0   125  0.419  0.459  0.465  0.372  0.385  0.408  0.406  0.394  0.000  0.000
 1992 218    34   139      0      0     59     0     0   125  0.413  0.457  0.464  0.372  0.385  0.408  0.405  0.394  0.000  0.000
 1992 219    35   139      0      0     59     0     0   125  0.408  0.454  0.464  0.373  0.386  0.408  0.405  0.394  0.000  0.000
 1992 220    36   138      0      0     59     0     0   125  0.404  0.451  0.463  0.374  0.386  0.407  0.405  0.394  0.000  0.000
 1992 221    37   138      0      0     61     0     0   125  0.420  0.449  0.462  0.374  0.386  0.407  0.405  0.394  0.000  0.000
 1992 222    38   138      0      0     61     0     0   125  0.413  0.447  0.461  0.375  0.386  0.407  0.405  0.394  0.000  0.000
 1992 223    39   137      0      0     61     0     0   125  0.408  0.446  0.460  0.375  0.387  0.407  0.405  0.394  0.000  0.000
 1992 224    40   137      0      0     61     0     0   125  0.403  0.444  0.459  0.376  0.387  0.407  0.405  0.394  0.000  0.000
 1992 225    41   136      0      0     61     0     0   125  0.398  0.442  0.458  0.376  0.387  0.407  0.405  0.394  0.000  0.000
 1992 226    42   136      0      0     61     0     0   125  0.394  0.441  0.457  0.376  0.387  0.406  0.405  0.394  0.000  0.000
 1992 227    43   135      0      0     61     0     0   125  0.391  0.439  0.457  0.377  0.387  0.406  0.405  0.394  0.000  0.000
 1992 228    44   135      0      0     61     0     0   125  0.387  0.437  0.456  0.377  0.388  0.406  0.405  0.394  0.000  0.000
 1992 229    45   134      0      0     61     0     0   125  0.384  0.435  0.455  0.377  0.388  0.406  0.404  0.394  0.000  0.000
 1992 230    46   134      0      0     61     0     0   125  0.382  0.434  0.454  0.378  0.388  0.406  0.404  0.394  0.000  0.000
 1992 231    47   134      0      0     61     0     0   125  0.379  0.432  0.454  0.378  0.388  0.406  0.404  0.394  0.000  0.000
 1992 232    48   133      0      0     61     0     0   125  0.376  0.431  0.453  0.378  0.388  0.406  0.404  0.394  0.000  0.000
 1992 233    49   133      0      0     61     0     0   125  0.374  0.429  0.452  0.378  0.389  0.405  0.404  0.393  0.000  0.000
 1992 234    50   132      0      0     61     0     0   125  0.372  0.427  0.451  0.378  0.389  0.405  0.404  0.393  0.000  0.000
 1992 235    51   133      0      0     62     0     0   125  0.383  0.426  0.451  0.379  0.389  0.405  0.404  0.393  0.000  0.000
 1992 236    52   135      0      0     68     0     0   125  0.431  0.425  0.450  0.379  0.389  0.405  0.404  0.393  0.000  0.000
 1992 237    53   134      0      0     68     0     0   125  0.421  0.426  0.449  0.379  0.389  0.405  0.404  0.393  0.000  0.000
 1992 238    54   134      0      0     68     0     0   125  0.413  0.427  0.449  0.379  0.389  0.405  0.404  0.393  0.000  0.000
 1992 239    55   133      0      0     68     0     0   125  0.406  0.427  0.448  0.379  0.389  0.405  0.403  0.393  0.000  0.000
 1992 240    56   133      0      0     68     0     0   125  0.400  0.426  0.447  0.379  0.390  0.405  0.403  0.393  0.000  0.000
 1992 241    57   132      0      0     68     0     0   125  0.395  0.425  0.447  0.379  0.390  0.404  0.403  0.393  0.000  0.000
 1992 242    58   132      0      0     68     0     0   125  0.390  0.424  0.446  0.379  0.390  0.404  0.403  0.393  0.000  0.000
 1992 243    59   131      0      0     68     0     0   125  0.386  0.423  0.445  0.379  0.390  0.404  0.403  0.393  0.000  0.000
 1992 244    60   136      0      0     74     0     0   125  0.482  0.422  0.445  0.379  0.390  0.404  0.403  0.393  0.000  0.000
 1992 245    61   135      0      0     74     0     0   125  0.461  0.428  0.444  0.379  0.390  0.404  0.403  0.393  0.000  0.000
 1992 246    62   135      0      0     74     0     0   125  0.445  0.431  0.444  0.379  0.390  0.404  0.403  0.393  0.000  0.000
 1992 247    63   134      0      0     74     0     0   125  0.432  0.432  0.444  0.379  0.390  0.404  0.403  0.393  0.000  0.000
 1992 248    64   133      0      0     74     0     0   125  0.421  0.431  0.443  0.379  0.390  0.404  0.403  0.393  0.000  0.000
 1992 249    65   133      0      0     74     0     0   125  0.413  0.430  0.442  0.379  0.390  0.404  0.403  0.392  0.000  0.000
 1992 250    66   132      0      0     74     0     0   125  0.406  0.428  0.441  0.379  0.390  0.403  0.403  0.392  0.000  0.000
 1992 251    67   131      0      0     74     0     0   125  0.399  0.426  0.440  0.379  0.391  0.403  0.402  0.392  0.000  0.000
 1992 252    68   131      0      0     74     0     0   125  0.394  0.424  0.439  0.379  0.391  0.403  0.402  0.392  0.000  0.000
 1992 253    69   130      0      0     74     0     0   125  0.389  0.422  0.438  0.379  0.391  0.403  0.402  0.392  0.000  0.000
 1992 254    70   129      0      0     74     0     0   125  0.384  0.420  0.436  0.379  0.391  0.403  0.402  0.392  0.000  0.000
 1992 255    71   131      0      0     78     0     0   125  0.434  0.418  0.435  0.379  0.391  0.403  0.402  0.392  0.000  0.000
 1992 256    72   131      0      0     80     0     0   125  0.434  0.418  0.433  0.379  0.391  0.403  0.402  0.392  0.000  0.000
 1992 257    73   130      0      0     80     0     0   125  0.421  0.419  0.432  0.379  0.391  0.403  0.402  0.392  0.000  0.000
 1992 258    74   129      0      0     80     0     0   125  0.410  0.418  0.430  0.379  0.391  0.403  0.402  0.392  0.000  0.000
 1992 259    75   128      0      0     80     0     0   125  0.401  0.415  0.427  0.379  0.391  0.403  0.402  0.392  0.000  0.000
 1992 260    76   127      0      0     80     0     0   125  0.393  0.413  0.425  0.378  0.391  0.402  0.402  0.392  0.000  0.000
 1992 261    77   126      0      0     80     0     0   125  0.386  0.410  0.422  0.378  0.391  0.402  0.402  0.392  0.000  0.000
 1992 262    78   125      0      0     84     0     0   125  0.407  0.406  0.418  0.378  0.391  0.402  0.402  0.392  0.000  0.000
 1992 263    79   124      0      0     84     0     0   125  0.395  0.403  0.414  0.377  0.391  0.402  0.401  0.391  0.000  0.000
 1992 264    80   122      0      0     84     0     0   125  0.385  0.400  0.409  0.376  0.391  0.402  0.401  0.391  0.000  0.000
 1992 265    81   120      0      0     84     0     0   125  0.376  0.395  0.404  0.375  0.391  0.402  0.401  0.391  0.000  0.000
 1992 266    82   131      0      0     96     0     0   125  0.552  0.418  0.403  0.375  0.391  0.402  0.401  0.391  0.000  0.000
 1992 267    83   138      0      0    106     0     0   125  0.488  0.517  0.403  0.374  0.391  0.402  0.401  0.391  0.000  0.000
 1992 268    84   136      0      0    106     0     0   125  0.485  0.501  0.407  0.374  0.391  0.402  0.401  0.391  0.000  0.000
 1992 269    85   150      0      0    123     0     0   125  0.520  0.552  0.450  0.373  0.391  0.402  0.401  0.391  0.000  0.000
 1992 270    86   146      0      0    123     0     0   125  0.488  0.524  0.455  0.374  0.391  0.402  0.401  0.391  0.000  0.000
 1992 271    87   142      0      0    123     0     0   125  0.456  0.504  0.455  0.374  0.390  0.402  0.401  0.391  0.000  0.000
 1992 272    88   138      0      0    123     0     0   125  0.419  0.487  0.453  0.374  0.390  0.401  0.401  0.391  0.000  0.000
 1992 273    89   135      0      0    123     0     0   125  0.405  0.471  0.448  0.374  0.390  0.401  0.401  0.391  0.000  0.000
 1992 274    90   133      0      0    123     0     0   125  0.394  0.457  0.443  0.374  0.390  0.401  0.401  0.391  0.000  0.000
 1992 275    91   131      0      0    123     0     0   125  0.385  0.448  0.439  0.374  0.390  0.401  0.400  0.391  0.000  0.000
 1992 276    92   130      0      0    125     0     0   125  0.402  0.440  0.436  0.374  0.390  0.401  0.400  0.391  0.000  0.000
 1992 277    93   127      0      0    125     0     0   125  0.388  0.431  0.430  0.373  0.390  0.401  0.400  0.391  0.000  0.000
 1992 278    94   125      0      0    125     0     0   125  0.376  0.422  0.424  0.372  0.390  0.401  0.400  0.390  0.000  0.000
 1992 279    95   123      0      0    125     0     0   125  0.366  0.418  0.422  0.371  0.390  0.401  0.400  0.390  0.000  0.000
 1992 280    96   131      0      0    137     0     0   125  0.526  0.428  0.414  0.369  0.389  0.401  0.400  0.390  0.000  0.000
 1992 281    97   127      0      0    137     0     0   125  0.464  0.432  0.412  0.368  0.389  0.401  0.400  0.390  0.000  0.000
 1992 282    98   123      0      0    137     0     0   125  0.401  0.425  0.409  0.366  0.388  0.401  0.400  0.390  0.000  0.000
 1992 283    99   119      0      0    137     0     0   125  0.367  0.413  0.405  0.364  0.387  0.401  0.400  0.390  0.000  0.000
 1992 284   100   115      0      0    137     0     0   125  0.346  0.402  0.399  0.360  0.385  0.400  0.400  0.390  0.000  0.000
 1992 285   101   112      0      0    137     0     0   125  0.330  0.395  0.395  0.356  0.383  0.400  0.400  0.390  0.000  0.000
 1992 286   102   108      0      0    137     0     0   125  0.316  0.387  0.389  0.351  0.379  0.400  0.400  0.390  0.000  0.000
 1992 287   103   104      0      0    137     0     0   125  0.303  0.380  0.382  0.345  0.374  0.400  0.400  0.390  0.000  0.000
 1992 288   104    99      0      0    137     0     0   125  0.291  0.373  0.376  0.339  0.368  0.400  0.399  0.390  0.000  0.000
 1992 289   105    98      0      0    137     0     0   125  0.280  0.370  0.374  0.336  0.366  0.400  0.399  0.390  0.000  0.000
 1992 290   106   126      0      0    167     0     0   125  0.557  0.527  0.372  0.334  0.363  0.399  0.399  0.390  0.000  0.000
 1992 291   107   121      0      0    167     0     0   125  0.490  0.509  0.376  0.333  0.362  0.399  0.399  0.390  0.000  0.000
 1992 292   108   116      0      0    167     0     0   125  0.450  0.479  0.378  0.332  0.361  0.399  0.399  0.389  0.000  0.000
 1992 293   109   114      0      0    167     0     0   125  0.440  0.464  0.380  0.332  0.361  0.399  0.399  0.389  0.000  0.000
 1992 294   110   124      0      0    181     0     0   125  0.529  0.520  0.381  0.331  0.360  0.398  0.399  0.389  0.000  0.000
 1992 295   111   119      0      0    181     0     0   125  0.477  0.496  0.384  0.330  0.359  0.398  0.399  0.389  0.000  0.000
 1992 296   112   114      0      0    181     0     0   125  0.439  0.468  0.385  0.330  0.357  0.397  0.399  0.389  0.000  0.000
 1992 297   113   108      0      0    181     0     0   125  0.398  0.440  0.385  0.329  0.355  0.397  0.399  0.389  0.000  0.000
 1992 298   114   103      0      0    181     0     0   125  0.376  0.406  0.383  0.328  0.353  0.396  0.399  0.389  0.000  0.000
 1992 299   115   100      0      0    181     0     0   125  0.368  0.398  0.381  0.327  0.351  0.395  0.398  0.389  0.000  0.000
 1992 300   116    94      0      0    181     0     0   125  0.344  0.383  0.375  0.323  0.345  0.392  0.398  0.389  0.000  0.000
 1992 301   117    88      0      0    181     0     0   125  0.325  0.372  0.368  0.319  0.337  0.387  0.398  0.389  0.000  0.000
 1992 302   118    88      0      0    183     0     0   125  0.352  0.369  0.366  0.317  0.335  0.386  0.398  0.389  0.000  0.000
 1992 303   119    85      0      0    184     0     0   125  0.358  0.363  0.362  0.314  0.331  0.382  0.398  0.389  0.000  0.000
 1992 304   120    80      0      0    184     0     0   125  0.342  0.359  0.358  0.311  0.327  0.377  0.398  0.389  0.000  0.000
 1992 305   121    76      0      0    184     0     0   125  0.330  0.356  0.355  0.309  0.323  0.372  0.397  0.388  0.000  0.000
 1992 306   122    72      0      0    184     0     0   125  0.317  0.352  0.352  0.306  0.319  0.366  0.397  0.388  0.000  0.000
 1992 307   123    68      0      0    184     0     0   125  0.303  0.350  0.350  0.304  0.316  0.361  0.397  0.388  0.000  0.000
 1992 308   124    83      0      0    201     0     0   125  0.558  0.388  0.348  0.303  0.313  0.356  0.396  0.388  0.000  0.000
 1992 309   125    78      0      0    201     0     0   125  0.462  0.397  0.347  0.302  0.312  0.355  0.396  0.388  0.000  0.000
 1992 310   126    74      0      0    201     0     0   125  0.400  0.393  0.347  0.301  0.312  0.353  0.396  0.388  0.000  0.000
 1992 311   127    69      0      0    201     0     0   125  0.365  0.379  0.346  0.300  0.310  0.350  0.395  0.388  0.000  0.000
 1992 312   128    65      0      0    201     0     0   125  0.345  0.370  0.344  0.298  0.308  0.346  0.395  0.388  0.000  0.000
 1992 313   129    62      0      0    201     0     0   125  0.328  0.364  0.343  0.297  0.306  0.343  0.395  0.388  0.000  0.000
 1992 314   130    59      0      0    201     0     0   125  0.309  0.359  0.341  0.296  0.304  0.341  0.394  0.387  0.000  0.000
 1992 315   131    57      0      0    201     0     0   125  0.304  0.355  0.340  0.295  0.303  0.339  0.394  0.387  0.000  0.000
 1992 316   132    58      0      0    205     0     0   125  0.367  0.352  0.339  0.294  0.302  0.336  0.394  0.387  0.000  0.000
 1992 317   133    56      0      0    205     0     0   125  0.339  0.350  0.337  0.293  0.300  0.335  0.393  0.387  0.000  0.000
 1992 318   134    53      0      0    205     0     0   125  0.317  0.347  0.336  0.292  0.299  0.333  0.393  0.387  0.000  0.000
 1992 319   135    51      0      0    205     0     0   125  0.300  0.345  0.335  0.291  0.298  0.331  0.391  0.387  0.000  0.000
 1992 320   136    75      0      0    232     0     0   125  0.548  0.479  0.334  0.290  0.297  0.329  0.387  0.387  0.000  0.000
 1992 321   137    69      0      0    232     0     0   125  0.465  0.464  0.336  0.290  0.297  0.329  0.385  0.386  0.000  0.000
 1992 322   138    63      0      0    232     0     0   125  0.420  0.439  0.337  0.290  0.296  0.329  0.380  0.386  0.000  0.000
 1992 323   139    58      0      0    232     0     0   125  0.389  0.410  0.338  0.290  0.296  0.329  0.373  0.386  0.000  0.000
 1992 324   140    51      0      0    232     0     0   125  0.360  0.393  0.338  0.290  0.296  0.328  0.357  0.385  0.000  0.000
 1992 325   141    46      0      0    232     0     0   125  0.345  0.381  0.338  0.290  0.295  0.326  0.344  0.385  0.000  0.000
 1992 326   142    45      0      0    232     0     0   125  0.340  0.377  0.338  0.290  0.295  0.326  0.341  0.384  0.000  0.000
 1992 327   143    40      0      0    232     0     0   125  0.324  0.368  0.337  0.290  0.294  0.324  0.332  0.383  0.000  0.000
 1992 328   144    37      0      0    232     0     0   125  0.310  0.362  0.336  0.290  0.293  0.322  0.325  0.383  0.000  0.000
 1992 329   145    33      0      0    232     0     0   125  0.292  0.358  0.335  0.290  0.292  0.319  0.320  0.382  0.000  0.000
 1992 330   146    31      0      0    232     0     0   125  0.275  0.354  0.334  0.290  0.292  0.318  0.317  0.381  0.000  0.000
 1992 331   147    28      0      0    232     0     0   125  0.259  0.351  0.333  0.290  0.292  0.316  0.313  0.380  0.000  0.000
 1992 332   148    26      0      0    232     0     0   125  0.238  0.348  0.332  0.290  0.292  0.314  0.311  0.380  0.000  0.000
 1992 333   149    23      0      0    232     0     0   125  0.220  0.346  0.331  0.290  0.292  0.312  0.309  0.379  0.000  0.000
 1992 334   150    22      0      0    232     0     0   125  0.220  0.343  0.331  0.290  0.292  0.311  0.307  0.378  0.000  0.000
 1992 335   151    55      0      0    266     0     0   125  0.568  0.507  0.331  0.290  0.292  0.309  0.305  0.378  0.000  0.000
 1992 336   152    49      0      0    266     0     0   125  0.473  0.489  0.334  0.290  0.292  0.309  0.305  0.377  0.000  0.000
 1992 337   153    42      0      0    266     0     0   125  0.418  0.454  0.336  0.290  0.292  0.308  0.305  0.376  0.000  0.000
 1992 338   154    37      0      0    266     0     0   125  0.383  0.418  0.337  0.290  0.292  0.308  0.305  0.373  0.000  0.000
 1992 339   155    30      0      0    266     0     0   125  0.348  0.385  0.337  0.290  0.292  0.307  0.304  0.366  0.000  0.000
 1992 340   156    26      0      0    266     0     0   125  0.328  0.375  0.337  0.290  0.292  0.306  0.303  0.358  0.000  0.000
 1992 341   157    51      0      0    296     0     0   125  0.539  0.542  0.339  0.290  0.292  0.304  0.301  0.351  0.000  0.000
 1992 342   158    46      0      0    296     0     0   125  0.491  0.511  0.343  0.290  0.292  0.304  0.301  0.349  0.000  0.000
 1992 343   159    40      0      0    296     0     0   125  0.445  0.476  0.346  0.290  0.292  0.304  0.301  0.348  0.000  0.000
 1992 344   160    36      0      0    296     0     0   125  0.407  0.448  0.347  0.290  0.292  0.303  0.301  0.346  0.000  0.000
 1992 345   161    31      0      0    296     0     0   125  0.387  0.413  0.348  0.290  0.292  0.303  0.301  0.344  0.000  0.000
 1992 346   162    26      0      0    296     0     0   125  0.355  0.389  0.347  0.290  0.292  0.302  0.300  0.340  0.000  0.000
 1992 347   163    21      0      0    296     0     0   125  0.322  0.375  0.346  0.290  0.292  0.301  0.299  0.334  0.000  0.000
 1992 348   164    17      0      0    296     0     0   125  0.296  0.367  0.344  0.290  0.292  0.299  0.297  0.329  0.000  0.000
 1992 349   165    14      0      0    296     0     0   125  0.276  0.361  0.343  0.290  0.292  0.298  0.296  0.326  0.000  0.000
 1992 350   166    11      0      0    296     0     0   125  0.259  0.357  0.341  0.290  0.292  0.297  0.294  0.322  0.000  0.000
 1992 351   167     9      0      0    296     0     0   125  0.243  0.353  0.340  0.290  0.292  0.296  0.293  0.320  0.000  0.000
 1992 352   168     7      0      0    296     0     0   125  0.229  0.350  0.338  0.290  0.292  0.295  0.292  0.317  0.000  0.000
 1992 353   169     5      0      0    296     0     0   125  0.220  0.348  0.337  0.290  0.292  0.294  0.291  0.315  0.000  0.000
 1992 354   170     4      0      0    296     0     0   125  0.220  0.345  0.336  0.290  0.292  0.293  0.290  0.313  0.000  0.000
 1992 355   171     3      0      0    296     0     0   125  0.220  0.343  0.335  0.290  0.292  0.293  0.289  0.311  0.000  0.000
 1992 356   172     2      0      0    296     0     0   125  0.220  0.341  0.334  0.290  0.292  0.293  0.288  0.310  0.000  0.000
 1992 357   173     7      0      0    302     0     0   125  0.340  0.340  0.333  0.290  0.292  0.293  0.287  0.308  0.000  0.000
 1992 358   174     6      0      0    302     0     0   125  0.319  0.338  0.332  0.290  0.292  0.293  0.286  0.307  0.000  0.000
 1992 359   175    33      0      0    333     0     0   125  0.517  0.523  0.331  0.290  0.292  0.293  0.286  0.306  0.000  0.000
 1992 360   176    28      0      0    333     0     0   125  0.458  0.495  0.334  0.290  0.292  0.293  0.286  0.305  0.000  0.000
 1992 361   177    22      0      0    333     0     0   125  0.398  0.457  0.336  0.290  0.292  0.293  0.286  0.305  0.000  0.000
 1992 362   178    15      0      0    333     0     0   125  0.347  0.413  0.337  0.290  0.292  0.293  0.286  0.305  0.000  0.000
 1992 363   179     9      0      0    333     0     0   125  0.323  0.374  0.337  0.290  0.292  0.293  0.286  0.303  0.000  0.000
 1992 364   180     8      0      0    333     0     0   125  0.308  0.367  0.336  0.290  0.292  0.293  0.286  0.302  0.000  0.000
 1992 365   181    11      0      0    338     0     0   125  0.392  0.361  0.335  0.290  0.292  0.293  0.286  0.301  0.000  0.000
 1992 366   182    66      0      0    395     0     0   125  0.540  0.566  0.518  0.290  0.292  0.293  0.286  0.300  0.000  0.000
 1993 001   183   136     17      0    484     0     0   125  0.564  0.558  0.564  0.473  0.460  0.325  0.286  0.300  0.000  0.000
 1993 002   184   139     17      0    490     0     0   125  0.548  0.566  0.566  0.468  0.458  0.340  0.286  0.300  0.000  0.000
 1993 003   185   146     17      0    498     0     0   125  0.548  0.567  0.566  0.468  0.458  0.361  0.287  0.300  0.000  0.000
 1993 004   186   159     17      0    515     0     0   125  0.531  0.565  0.565  0.467  0.457  0.410  0.287  0.300  0.000  0.000
 1993 005   187   153     17      0    515     0     0   125  0.482  0.549  0.554  0.453  0.444  0.413  0.303  0.300  0.000  0.000
 1993 006   188   146     17      0    515     0     0   125  0.463  0.525  0.543  0.443  0.435  0.413  0.309  0.300  0.000  0.000
 1993 007   189   143     17      0    515     0     0   125  0.464  0.515  0.536  0.439  0.431  0.412  0.309  0.300  0.000  0.000
 1993 008   190   164     17      0    541     0     0   125  0.537  0.563  0.561  0.466  0.453  0.417  0.310  0.300  0.000  0.000
 1993 009   191   157     17      0    541     0     0   125  0.469  0.547  0.551  0.450  0.442  0.413  0.336  0.300  0.000  0.000
 1993 010   192   151     17      0    541     0     0   125  0.464  0.521  0.541  0.441  0.434  0.414  0.338  0.300  0.000  0.000
 1993 011   193   145     17      0    541     0     0   125  0.446  0.510  0.532  0.436  0.429  0.409  0.338  0.300  0.000  0.000
 1993 012   194   139     17      0    541     0     0   125  0.440  0.500  0.524  0.431  0.425  0.404  0.338  0.300  0.000  0.000
 1993 013   195   135     17      0    541     0     0   125  0.435  0.492  0.517  0.427  0.421  0.400  0.338  0.300  0.000  0.000
 1993 014   196   132     17      0    541     0     0   125  0.431  0.486  0.512  0.424  0.419  0.398  0.338  0.300  0.000  0.000
