*SOIL-PLANT-ATMOSPHERE MODULE OUTPUT FILE

*DSSAT Cropping System Model Ver. 4.0.2.000               Aug 11, 2016; 20:55:34

*RUN   1        : UYMZ                    
 MODEL          : MZCER040 - Maize           
 EXPERIMENT     : UYMZ0183 MZ    late to create DSS                             
 TREATMENT  1   : UYMZ                    

@YEAR DOY   DAS   SRAA   TMXA   TMNA   EOAA   ETAA   EPAA   ESAA   EFAD   ETAC   EPAC   ESAC   EFAC
 1992 220     0   4.50  21.40   8.20  1.002  1.002  0.000  1.002  0.000    1.0    0.0    1.0    0.0
 1992 221     1  14.50  10.40   1.40  2.562  1.920  0.000  1.920  0.000    2.9    0.0    2.9    0.0
 1992 222     2  10.20  13.40  -0.60  1.852  1.852  0.000  1.852  0.000    4.8    0.0    4.8    0.0
 1992 223     3   9.40  15.40   7.80  1.919  1.919  0.000  1.919  0.000    6.7    0.0    6.7    0.0
 1992 224     4  15.10  14.90   3.90  2.943  2.943  0.000  2.943  0.000    9.6    0.0    9.6    0.0
 1992 225     5  14.50  15.90   6.10  2.932  2.215  0.000  2.215  0.000   11.9    0.0   11.9    0.0
 1992 226     6  15.60  18.00   2.80  3.150  2.585  0.000  2.585  0.000   14.4    0.0   14.4    0.0
 1992 227     7  14.70  18.40   3.00  2.992  1.404  0.000  1.404  0.000   15.8    0.0   15.8    0.0
 1992 228     8   9.50  19.20   5.70  2.007  1.092  0.000  1.092  0.000   16.9    0.0   16.9    0.0
 1992 229     9  15.30  22.20   8.70  3.458  0.925  0.000  0.925  0.000   17.9    0.0   17.9    0.0
 1992 230    10  12.30  23.20   9.70  2.841  0.818  0.000  0.818  0.000   18.7    0.0   18.7    0.0
 1992 231    11  14.00  20.80   9.20  3.120  0.741  0.000  0.741  0.000   19.4    0.0   19.4    0.0
 1992 232    12  13.40  19.60   7.90  2.904  0.682  0.000  0.682  0.000   20.1    0.0   20.1    0.0
 1992 233    13  13.30  19.40   6.20  2.830  0.635  0.000  0.635  0.000   20.7    0.0   20.7    0.0
 1992 234    14  16.90  23.10   9.50  3.891  0.597  0.000  0.597  0.000   21.3    0.0   21.3    0.0
 1992 235    15   7.80  20.10  13.90  1.794  1.203  0.003  1.200  0.000   22.5    0.0   22.5    0.0
 1992 236    16  17.00  19.30   9.60  3.725  3.725  0.011  3.714  0.000   26.3    0.0   26.2    0.0
 1992 237    17  17.80  21.00   7.10  3.901  0.743  0.016  0.726  0.000   27.0    0.0   27.0    0.0
 1992 238    18  18.00  21.20   5.80  3.909  0.692  0.021  0.671  0.000   27.7    0.1   27.6    0.0
 1992 239    19  17.90  20.30   6.20  3.853  0.652  0.025  0.626  0.000   28.3    0.1   28.3    0.0
 1992 240    20  17.60  25.40   6.30  4.057  0.621  0.032  0.590  0.000   29.0    0.1   28.9    0.0
 1992 241    21  11.50  18.80  11.40  2.541  0.583  0.025  0.559  0.000   29.5    0.1   29.4    0.0
 1992 242    22  14.20  24.40  11.00  3.361  0.570  0.038  0.532  0.000   30.1    0.2   29.9    0.0
 1992 243    23   5.50  20.90  15.20  1.290  0.527  0.018  0.509  0.000   30.6    0.2   30.5    0.0
 1992 244    24   7.20  13.80   9.60  1.456  1.456  0.031  1.425  0.000   32.1    0.2   31.9    0.0
 1992 245    25   7.50  14.00   7.20  1.485  0.793  0.036  0.757  0.000   32.9    0.3   32.6    0.0
 1992 246    26   5.70  14.80   8.60  1.158  0.726  0.031  0.695  0.000   33.6    0.3   33.3    0.0
 1992 247    27  14.90  17.40   7.30  3.101  0.737  0.092  0.646  0.000   34.4    0.4   34.0    0.0
 1992 248    28  18.80  18.80   6.80  3.969  0.739  0.133  0.606  0.000   35.1    0.5   34.6    0.0
 1992 249    29  18.30  21.20   6.10  3.965  0.726  0.153  0.573  0.000   35.8    0.7   35.2    0.0
 1992 250    30  18.30  18.80   8.70  3.925  0.721  0.177  0.544  0.000   36.5    0.8   35.7    0.0
 1992 251    31  17.80  20.60   9.70  3.943  0.723  0.204  0.520  0.000   37.3    1.0   36.2    0.0
 1992 252    32   5.90  20.10  13.60  1.342  0.579  0.081  0.498  0.000   37.8    1.1   36.7    0.0
 1992 253    33  11.20  20.00  13.40  2.536  0.657  0.178  0.479  0.000   38.5    1.3   37.2    0.0
 1992 254    34  12.60  21.60  13.10  2.900  0.697  0.235  0.462  0.000   39.2    1.5   37.7    0.0
 1992 255    35   8.60  21.20  14.90  1.996  1.996  0.186  1.810  0.000   41.2    1.7   39.5    0.0
 1992 256    36  16.90  19.30  12.30  3.734  1.519  0.399  1.120  0.000   42.7    2.1   40.6    0.0
 1992 257    37  10.20  16.70   8.80  2.104  0.792  0.249  0.543  0.000   43.5    2.4   41.1    0.0
 1992 258    38  17.10  20.10   6.20  3.606  0.971  0.453  0.518  0.000   44.5    2.8   41.7    0.0
 1992 259    39  19.70  21.30   9.00  4.324  1.079  0.582  0.497  0.000   45.6    3.4   42.1    0.0
 1992 260    40  12.60  22.60  12.60  2.895  0.905  0.427  0.478  0.000   46.5    3.8   42.6    0.0
 1992 261    41  14.90  26.70  15.20  3.666  3.666  0.601  3.065  0.000   50.1    4.4   45.7    0.0
 1992 262    42  19.80  16.60   9.30  4.054  4.054  0.762  3.292  0.000   54.2    5.2   49.0    0.0
 1992 263    43  21.60  19.30   5.20  4.414  4.081  0.874  3.207  0.000   58.3    6.1   52.2    0.0
 1992 264    44  21.40  25.60   5.90  4.783  4.027  0.991  3.036  0.000   62.3    7.1   55.2    0.0
 1992 265    45  21.20  30.00  10.20  5.166  2.607  1.167  1.439  0.000   64.9    8.2   56.7    0.0
 1992 266    46   6.50  12.70   8.80  1.239  1.239  0.315  0.924  0.000   66.1    8.5   57.6    0.0
 1992 267    47  16.00  18.60   6.50  3.247  3.247  0.843  2.404  0.000   69.4    9.4   60.0    0.0
 1992 268    48   6.60  13.20  10.60  1.287  1.287  0.348  0.939  0.000   70.7    9.7   60.9    0.0
 1992 269    49  21.20  12.50   4.50  3.842  3.842  1.071  2.772  0.000   74.5   10.8   63.7    0.0
 1992 270    50  20.60  14.20   0.80  3.690  3.690  1.018  2.672  0.000   78.2   11.8   66.4    0.0
 1992 271    51  21.70  20.00   4.50  4.439  3.263  0.943  2.320  0.000   81.5   12.8   68.7    0.0
 1992 272    52  23.00  21.40   5.30  4.827  3.223  1.067  2.155  0.000   84.7   13.8   70.9    0.0
 1992 273    53  23.30  23.20   6.10  5.033  2.530  1.194  1.335  0.000   87.2   15.0   72.2    0.0
 1992 274    54  22.50  26.20  10.30  5.216  2.407  1.348  1.059  0.000   89.6   16.4   73.2    0.0
 1992 275    55  12.50  26.40  11.00  2.906  1.760  0.855  0.905  0.000   91.4   17.2   74.2    0.0
 1992 276    56  11.80  21.80  13.00  2.620  2.461  0.861  1.600  0.000   93.8   18.1   75.8    0.0
 1992 277    57  17.90  20.60  11.10  3.833  2.219  1.374  0.846  0.000   96.1   19.5   76.6    0.0
 1992 278    58  18.00  25.50  11.70  4.106  2.340  1.578  0.761  0.000   98.4   21.0   77.4    0.0
 1992 279    59   7.10  18.20  11.80  1.469  1.307  0.609  0.698  0.000   99.7   21.7   78.1    0.0
 1992 280    60  24.40  15.90   7.40  4.681  4.681  2.030  2.651  0.000  104.4   23.7   80.7    0.0
 1992 281    61  21.30  15.60   4.20  3.937  3.150  1.745  1.405  0.000  107.5   25.4   82.1    0.0
 1992 282    62  24.30  19.00   3.40  4.686  4.579  2.065  2.514  0.000  112.1   27.5   84.6    0.0
 1992 283    63  24.30  21.00   6.60  4.972  3.535  2.140  1.395  0.000  115.7   29.6   86.0    0.0
 1992 284    64  25.10  25.30   7.30  5.454  3.528  2.440  1.088  0.000  119.2   32.1   87.1    0.0
 1992 285    65  16.70  27.20   9.20  3.761  2.697  1.774  0.923  0.000  121.9   33.8   88.0    0.0
 1992 286    66  22.70  24.00  12.40  5.023  3.333  2.517  0.816  0.000  125.2   36.4   88.8    0.0
 1992 287    67  25.10  25.60   8.60  5.463  3.656  2.917  0.739  0.000  128.9   39.3   89.6    0.0
 1992 288    68  24.70  29.50  11.40  5.741  5.741  3.222  2.519  0.000  134.6   42.5   92.1    0.0
 1992 289    69   7.60  31.50  15.50  1.855  1.855  1.106  0.749  0.000  136.5   43.6   92.9    0.0
 1992 290    70   9.30  20.50  15.70  1.988  1.988  1.239  0.749  0.000  138.5   44.8   93.6    0.0
 1992 291    71  23.40  21.20  12.00  4.873  4.873  3.155  1.718  0.000  143.3   48.0   95.3    0.0
 1992 292    72  25.90  21.20   7.50  5.170  5.170  3.447  1.723  0.000  148.5   51.5   97.0    0.0
 1992 293    73   9.10  19.80  11.20  1.839  1.839  1.251  0.588  0.000  150.3   52.7   97.6    0.0
 1992 294    74  24.10  18.60  10.30  4.743  4.743  3.297  1.446  0.000  155.1   56.0   99.1    0.0
 1992 295    75  26.10  21.30   5.50  5.092  5.092  3.603  1.490  0.000  160.2   59.6  100.6    0.0
 1992 296    76  24.90  24.50   7.60  5.155  5.155  3.701  1.454  0.000  165.3   63.3  102.0    0.0
 1992 297    77  25.00  27.30  12.00  5.545  5.545  4.061  1.485  0.000  170.9   67.4  103.5    0.0
 1992 298    78  24.60  30.90  14.60  5.788  5.264  4.352  0.912  0.000  176.1   71.7  104.4    0.0
 1992 299    79   9.50  26.40  17.60  2.165  2.165  1.678  0.487  0.000  178.3   73.4  104.9    0.0
 1992 300    80  26.70  27.40  17.30  6.127  6.127  4.845  1.281  0.000  184.4   78.2  106.2    0.0
 1992 301    81  27.40  30.00  15.80  6.385  6.385  5.170  1.215  0.000  190.8   83.4  107.4    0.0
 1992 302    82  10.50  15.30   6.40  1.865  1.865  1.543  0.322  0.000  192.7   85.0  107.7    0.0
 1992 303    83  27.70  21.90   3.90  5.275  5.275  4.379  0.895  0.000  198.0   89.3  108.6    0.0
 1992 304    84  26.80  21.80   6.40  5.218  5.218  4.296  0.922  0.000  203.2   93.6  109.5    0.0
 1992 305    85  26.90  23.80   6.80  5.392  5.392  4.475  0.917  0.000  208.6   98.1  110.5    0.0
 1992 306    86  27.10  27.10   9.00  5.764  5.764  4.828  0.936  0.000  214.3  102.9  111.4    0.0
 1992 307    87  27.30  30.20  13.00  6.209  6.209  5.263  0.946  0.000  220.5  108.2  112.3    0.0
 1992 308    88  21.90  19.80   9.40  4.242  4.242  3.650  0.591  0.000  224.8  111.8  112.9    0.0
 1992 309    89  27.20  14.10   6.50  4.724  4.724  4.091  0.633  0.000  229.5  115.9  113.6    0.0
 1992 310    90  24.50  16.40   2.70  4.239  4.239  3.677  0.562  0.000  233.7  119.6  114.1    0.0
 1992 311    91  27.00  19.20   4.80  4.988  4.988  4.178  0.810  0.000  238.7  123.8  114.9    0.0
 1992 312    92  27.40  21.50   7.30  5.345  5.345  4.481  0.864  0.000  244.1  128.3  115.8    0.0
 1992 313    93  28.00  25.20   8.30  5.777  5.777  4.876  0.901  0.000  249.8  133.1  116.7    0.0
 1992 314    94  28.20  29.80  10.00  6.233  6.233  5.309  0.925  0.000  256.1  138.5  117.6    0.0
 1992 315    95   8.60  22.00  16.00  1.813  1.813  1.562  0.251  0.000  257.9  140.0  117.9    0.0
 1992 316    96  23.60  28.40  16.10  5.367  5.367  4.669  0.698  0.000  263.3  144.7  118.6    0.0
 1992 317    97  28.00  29.50  15.30  6.395  6.395  5.657  0.738  0.000  269.7  150.3  119.3    0.0
 1992 318    98  28.50  27.90  12.90  6.264  6.264  5.603  0.661  0.000  275.9  155.9  120.0    0.0
 1992 319    99  19.40  31.40  14.40  4.487  4.487  4.038  0.449  0.000  280.4  160.0  120.4    0.0
 1992 320   100  23.00  25.50  17.30  5.080  5.080  4.597  0.483  0.000  285.5  164.6  120.9    0.0
 1992 321   101  28.80  20.40  11.50  5.691  5.691  5.166  0.525  0.000  291.2  169.7  121.4    0.0
 1992 322   102  28.20  21.50   7.70  5.467  5.467  4.964  0.503  0.000  296.6  174.7  121.9    0.0
 1992 323   103  28.80  23.90   7.20  5.738  5.738  5.206  0.532  0.000  302.4  179.9  122.5    0.0
 1992 324   104  29.50  28.10  11.20  6.402  6.402  5.805  0.597  0.000  308.8  185.7  123.1    0.0
 1992 325   105  22.20  30.00  13.80  5.026  5.026  4.561  0.465  0.000  313.8  190.3  123.5    0.0
 1992 326   106   8.70  21.20  13.60  1.768  1.768  1.606  0.162  0.000  315.6  191.9  123.7    0.0
 1992 327   107  25.70  19.30  10.00  4.938  4.938  4.483  0.456  0.000  320.5  196.4  124.1    0.0
 1992 328   108  22.10  20.60   6.40  4.185  4.185  3.792  0.392  0.000  324.7  200.2  124.5    0.0
 1992 329   109  24.00  26.00  11.10  5.075  5.075  4.591  0.485  0.000  329.8  204.8  125.0    0.0
 1992 330   110  21.90  23.90  15.40  4.675  4.675  4.226  0.450  0.000  334.5  209.0  125.5    0.0
 1992 331   111  19.00  26.00  14.30  4.124  4.124  3.725  0.398  0.000  338.6  212.7  125.9    0.0
 1992 332   112  30.10  27.20  12.90  6.554  6.521  5.919  0.602  0.000  345.1  218.6  126.5    0.0
 1992 333   113  21.00  27.70  13.50  4.621  4.621  4.172  0.450  0.000  349.7  222.8  126.9    0.0
 1992 334   114  19.80  29.80  16.90  4.581  4.581  4.134  0.448  0.000  354.3  226.9  127.4    0.0
 1992 335   115  21.90  28.00  18.70  5.033  5.033  4.542  0.491  0.000  359.3  231.5  127.9    0.0
 1992 336   116  29.50  23.90  14.00  6.228  6.228  5.620  0.608  0.000  365.6  237.1  128.5    0.0
 1992 337   117  30.20  24.80   8.90  6.183  6.183  5.556  0.628  0.000  371.7  242.6  129.1    0.0
 1992 338   118  26.20  27.40   9.70  5.580  5.580  4.991  0.589  0.000  377.3  247.6  129.7    0.0
 1992 339   119  30.30  29.10  13.50  6.789  6.789  6.050  0.739  0.000  384.1  253.7  130.4    0.0
 1992 340   120  18.70  28.20  13.80  4.158  4.158  3.692  0.465  0.000  388.3  257.4  130.9    0.0
 1992 341   121  25.20  29.60  18.90  5.919  5.919  5.239  0.679  0.000  394.2  262.6  131.6    0.0
 1992 342   122  23.30  26.40  15.40  5.140  5.140  4.536  0.604  0.000  399.3  267.2  132.2    0.0
 1992 343   123  25.40  27.90  14.80  5.678  5.678  4.996  0.682  0.000  405.0  272.2  132.9    0.0
 1992 344   124  21.00  26.70  16.50  4.692  4.692  4.117  0.576  0.000  409.7  276.3  133.4    0.0
 1992 345   125  22.70  27.30  18.10  5.172  5.172  4.525  0.647  0.000  414.9  280.8  134.1    0.0
 1992 346   126  23.20  26.50  15.70  5.143  5.143  4.488  0.655  0.000  420.0  285.3  134.7    0.0
 1992 347   127  29.50  27.30  13.40  6.485  6.485  5.646  0.839  0.000  426.5  290.9  135.6    0.0
 1992 348   128  30.90  30.20  14.90  7.108  7.108  6.175  0.934  0.000  433.6  297.1  136.5    0.0
 1992 349   129  28.90  28.40  15.70  6.555  6.360  5.682  0.678  0.000  440.0  302.8  137.2    0.0
 1992 350   130  30.30  28.00  10.00  6.544  6.544  5.651  0.893  0.000  446.5  308.4  138.1    0.0
 1992 351   131  24.80  29.80  12.50  5.583  5.583  4.800  0.783  0.000  452.1  313.2  138.9    0.0
 1992 352   132  19.40  27.60  17.70  4.434  4.434  3.795  0.639  0.000  456.5  317.0  139.5    0.0
 1992 353   133  29.70  30.40  14.50  6.843  6.843  5.829  1.014  0.000  463.4  322.9  140.5    0.0
 1992 354   134  18.00  30.80  14.60  4.172  4.172  3.535  0.637  0.000  467.5  326.4  141.1    0.0
 1992 355   135  31.80  33.80  18.10  7.818  7.818  6.589  1.229  0.000  475.4  333.0  142.4    0.0
 1992 356   136  25.50  32.40  15.70  6.074  6.074  5.089  0.985  0.000  481.4  338.1  143.4    0.0
 1992 357   137  11.20  29.40  18.60  2.639  2.639  2.197  0.442  0.000  484.1  340.3  143.8    0.0
 1992 358   138  11.20  27.70  20.80  2.634  2.634  2.178  0.456  0.000  486.7  342.4  144.3    0.0
 1992 359   139  27.80  28.90  17.70  6.480  6.480  5.320  1.160  0.000  493.2  347.8  145.4    0.0
 1992 360   140  22.90  27.40  15.10  5.148  5.148  4.195  0.953  0.000  498.3  352.0  146.4    0.0
 1992 361   141  31.40  27.40  13.20  6.962  6.962  5.629  1.333  0.000  505.3  357.6  147.7    0.0
 1992 362   142  31.00  28.00  12.60  6.896  6.896  5.529  1.367  0.000  512.2  363.1  149.1    0.0
 1992 363   143  30.00  32.00  13.10  7.022  6.919  5.578  1.341  0.000  519.1  368.7  150.4    0.0
 1992 364   144   9.10  25.60  19.70  2.085  2.085  1.640  0.445  0.000  521.2  370.3  150.9    0.0
 1992 365   145   9.10  23.30  19.60  2.030  2.030  1.580  0.450  0.000  523.2  371.9  151.3    0.0
 1992 366   146   9.10  20.20  19.20  1.952  1.952  1.502  0.450  0.000  525.2  373.4  151.8    0.0
 1993 001   147   9.10  21.20  19.60  1.985  1.985  1.510  0.475  0.000  527.2  374.9  152.2    0.0
 1993 002   148   9.10  21.80  19.40  1.999  1.999  1.503  0.496  0.000  529.2  376.4  152.7    0.0
 1993 003   149   9.10  21.90  19.70  2.009  2.009  1.492  0.517  0.000  531.2  377.9  153.2    0.0
 1993 004   150  14.90  28.90  19.80  3.573  3.573  2.620  0.954  0.000  534.7  380.5  154.2    0.0
 1993 005   151  23.60  30.80  21.50  5.858  5.858  4.238  1.620  0.000  540.6  384.8  155.8    0.0
 1993 006   152  29.90  32.00  19.70  7.432  7.432  5.303  2.130  0.000  548.0  390.1  158.0    0.0
 1993 007   153  12.50  27.20  20.30  2.965  2.965  2.085  0.880  0.000  551.0  392.2  158.8    0.0
 1993 008   154  20.20  26.60  20.10  4.760  4.760  3.295  1.465  0.000  555.8  395.5  160.3    0.0
 1993 009   155  30.70  26.90  16.00  7.048  7.048  4.796  2.252  0.000  562.8  400.3  162.5    0.0
 1993 010   156  30.90  31.10  16.00  7.454  7.379  4.983  2.395  0.000  570.2  405.2  164.9    0.0
 1993 011   157  31.30  32.20  17.60  7.746  7.746  5.083  2.663  0.000  577.9  410.3  167.6    0.0
 1993 012   158  30.90  32.70  19.60  7.814  6.719  5.027  1.692  0.000  584.7  415.4  169.3    0.0
 1993 013   159  22.70  33.00  20.70  5.815  4.871  3.663  1.208  0.000  589.5  419.0  170.5    0.0
 1993 014   160  17.40  30.10  22.30  4.381  3.692  2.699  0.993  0.000  593.2  421.7  171.5    0.0
 1993 015   161  26.90  30.80  22.50  6.847  6.847  4.121  2.726  0.000  600.1  425.8  174.2    0.0
 1993 016   162  17.50  28.50  22.00  4.339  4.339  2.550  1.790  0.000  604.4  428.4  176.0    0.0
 1993 017   163  25.50  23.30  16.60  5.727  5.343  3.282  2.061  0.000  609.7  431.7  178.1    0.0
 1993 018   164  25.10  24.80  11.70  5.529  5.529  3.090  2.439  0.000  615.3  434.8  180.5    0.0
 1993 019   165  26.40  26.50  15.60  6.137  4.949  3.344  1.605  0.000  620.2  438.1  182.1    0.0
 1993 020   166  29.90  30.10  16.60  7.299  5.153  3.977  1.176  0.000  625.4  442.1  183.3    0.0
 1993 021   167  30.10  31.80  16.50  7.481  5.052  4.077  0.975  0.000  630.4  446.2  184.3    0.0
 1993 022   168  30.00  33.20  19.80  7.751  5.075  4.224  0.851  0.000  635.5  450.4  185.1    0.0

*DSSAT Cropping System Model Ver. 4.0.2.000               Aug 11, 2016; 20:55:34

*RUN   2        : UYMZ                    
 MODEL          : MZCER040 - Maize           
 EXPERIMENT     : UYMZ0183 MZ    late to create DSS                             
 TREATMENT  1   : UYMZ                    

@YEAR DOY   DAS   SRAA   TMXA   TMNA   EOAA   ETAA   EPAA   ESAA   EFAD   ETAC   EPAC   ESAC   EFAC
 1993 220     0   4.50  13.00   6.10  0.871  0.860  0.000  0.860  0.000    0.9    0.0    0.9    0.0
 1993 221     1  14.40  11.40   0.40  2.558  2.558  0.000  2.558  0.000    3.4    0.0    3.4    0.0
 1993 222     2  15.00  14.20   0.50  2.792  2.792  0.000  2.792  0.000    6.2    0.0    6.2    0.0
 1993 223     3  13.60  17.80   2.40  2.728  2.728  0.000  2.728  0.000    8.9    0.0    8.9    0.0
 1993 224     4   9.10  19.80   4.40  1.915  1.915  0.000  1.915  0.000   10.9    0.0   10.9    0.0
 1993 225     5  13.40  21.40   5.20  2.904  2.286  0.000  2.286  0.000   13.1    0.0   13.1    0.0
 1993 226     6   9.50  22.60   4.30  2.076  2.076  0.000  2.076  0.000   15.2    0.0   15.2    0.0
 1993 227     7  16.00  24.00   7.40  3.661  1.608  0.000  1.608  0.000   16.8    0.0   16.8    0.0
 1993 228     8  12.00  20.80   7.40  2.632  1.178  0.000  1.178  0.000   18.0    0.0   18.0    0.0
 1993 229     9  14.40  11.40   4.70  2.680  2.680  0.000  2.680  0.000   20.7    0.0   20.7    0.0
 1993 230    10  16.10  15.50  -0.20  3.037  1.458  0.000  1.458  0.000   22.1    0.0   22.1    0.0
 1993 231    11  16.70  18.70   1.60  3.367  1.116  0.000  1.116  0.000   23.3    0.0   23.3    0.0
 1993 232    12  16.40  19.00   2.00  3.334  0.940  0.000  0.940  0.000   24.2    0.0   24.2    0.0
 1993 233    13  15.00  18.60   2.30  3.041  0.828  0.000  0.828  0.000   25.0    0.0   25.0    0.0
 1993 234    14  11.80  20.00   6.40  2.537  0.748  0.000  0.748  0.000   25.8    0.0   25.8    0.0
 1993 235    15  11.00  20.00   5.50  2.345  0.688  0.000  0.688  0.000   26.5    0.0   26.5    0.0
 1993 236    16  17.00  22.60   6.10  3.775  0.640  0.000  0.640  0.000   27.1    0.0   27.1    0.0
 1993 237    17  16.20  24.20   8.80  3.761  0.601  0.000  0.601  0.000   27.7    0.0   27.7    0.0
 1993 238    18  15.20  26.40  10.40  3.675  0.575  0.006  0.568  0.000   28.3    0.0   28.3    0.0
 1993 239    19  14.70  29.20  12.50  3.735  0.554  0.013  0.541  0.000   28.8    0.0   28.8    0.0
 1993 240    20  13.50  31.30  18.70  3.678  0.538  0.022  0.517  0.000   29.4    0.0   29.3    0.0
 1993 241    21   5.40  19.00  15.40  1.239  0.507  0.012  0.495  0.000   29.9    0.1   29.8    0.0
 1993 242    22   5.40  16.30  13.10  1.171  1.171  0.014  1.157  0.000   31.0    0.1   31.0    0.0
 1993 243    23   5.50  12.20   9.20  1.084  1.084  0.014  1.069  0.000   32.1    0.1   32.0    0.0
 1993 244    24   6.30  13.60  10.20  1.280  1.280  0.018  1.262  0.000   33.4    0.1   33.3    0.0
 1993 245    25  14.50  13.00   8.40  2.867  2.867  0.044  2.823  0.000   36.3    0.1   36.1    0.0
 1993 246    26  19.30  17.00   4.50  3.895  3.634  0.066  3.569  0.000   39.9    0.2   39.7    0.0
 1993 247    27  19.40  24.10   5.80  4.370  3.213  0.083  3.130  0.000   43.1    0.3   42.8    0.0
 1993 248    28  19.60  22.00   7.00  4.336  1.555  0.112  1.443  0.000   44.7    0.4   44.3    0.0
 1993 249    29  17.90  23.50   6.30  4.010  1.240  0.130  1.110  0.000   45.9    0.5   45.4    0.0
 1993 250    30  18.40  15.80   7.90  3.758  1.087  0.151  0.936  0.000   47.0    0.7   46.3    0.0
 1993 251    31  19.70  16.90   4.60  3.958  1.001  0.176  0.825  0.000   48.0    0.9   47.1    0.0
 1993 252    32  20.00  19.90   3.90  4.165  0.943  0.197  0.746  0.000   49.0    1.1   47.9    0.0
 1993 253    33  20.10  21.50   4.90  4.318  0.904  0.218  0.686  0.000   49.9    1.3   48.6    0.0
 1993 254    34  17.10  15.00   5.20  3.353  0.830  0.191  0.639  0.000   50.7    1.5   49.2    0.0
 1993 255    35  19.80  19.10   4.00  4.073  0.843  0.243  0.600  0.000   51.5    1.7   49.8    0.0
 1993 256    36   7.30  18.00   5.60  1.500  0.662  0.094  0.568  0.000   52.2    1.8   50.4    0.0
 1993 257    37  13.10  18.20   9.90  2.808  0.729  0.189  0.540  0.000   52.9    2.0   50.9    0.0
 1993 258    38  15.70  22.40   9.20  3.533  0.782  0.266  0.516  0.000   53.7    2.3   51.4    0.0
 1993 259    39  20.70  25.60   7.80  4.788  0.908  0.414  0.495  0.000   54.6    2.7   51.9    0.0
 1993 260    40  21.10  23.00  10.90  4.837  0.962  0.486  0.476  0.000   55.6    3.2   52.4    0.0
 1993 261    41  11.60  24.00  12.20  2.716  0.773  0.313  0.459  0.000   56.3    3.5   52.9    0.0
 1993 262    42  15.70  23.00  10.90  3.582  0.917  0.472  0.444  0.000   57.3    3.9   53.3    0.0
 1993 263    43  16.50  19.10   8.80  3.503  3.503  0.518  2.985  0.000   60.8    4.5   56.3    0.0
 1993 264    44   8.70  11.40   4.10  1.571  0.750  0.250  0.500  0.000   61.5    4.7   56.8    0.0
 1993 265    45   6.50  12.20   4.50  1.195  0.666  0.185  0.481  0.000   62.2    4.9   57.3    0.0
 1993 266    46   6.50  14.90  10.00  1.315  0.665  0.201  0.464  0.000   62.8    5.1   57.7    0.0
 1993 267    47   7.00  17.00  12.00  1.484  0.687  0.238  0.448  0.000   63.5    5.3   58.2    0.0
 1993 268    48   7.80  19.00  12.10  1.697  0.727  0.293  0.434  0.000   64.3    5.6   58.6    0.0
 1993 269    49   9.00  14.90  10.60  1.821  1.821  0.341  1.481  0.000   66.1    6.0   60.1    0.0
 1993 270    50  18.40  21.50  10.30  4.057  4.057  0.797  3.261  0.000   70.1    6.8   63.4    0.0
 1993 271    51  21.60  22.10   8.50  4.713  4.327  1.008  3.319  0.000   74.5    7.8   66.7    0.0
 1993 272    52  15.50  19.80   7.80  3.251  3.251  0.752  2.498  0.000   77.7    8.5   69.2    0.0
 1993 273    53   7.70  20.60  14.30  1.724  1.724  0.422  1.302  0.000   79.4    8.9   70.5    0.0
 1993 274    54   9.30  23.30  15.60  2.170  1.803  0.577  1.227  0.000   81.2    9.5   71.7    0.0
 1993 275    55   6.90  18.60  16.00  1.517  1.517  0.443  1.074  0.000   82.8   10.0   72.8    0.0
 1993 276    56  11.30  19.80  13.40  2.460  2.460  0.770  1.689  0.000   85.2   10.7   74.5    0.0
 1993 277    57   7.30  19.40  12.80  1.567  1.567  0.528  1.039  0.000   86.8   11.3   75.5    0.0
 1993 278    58  22.90  17.40   9.50  4.629  4.629  1.663  2.966  0.000   91.4   12.9   78.5    0.0
 1993 279    59  24.10  20.10   5.30  4.852  3.764  1.826  1.938  0.000   95.2   14.8   80.4    0.0
 1993 280    60  24.80  23.70   7.20  5.318  4.314  2.085  2.230  0.000   99.5   16.8   82.7    0.0
 1993 281    61  19.60  27.50  12.30  4.583  3.242  1.892  1.350  0.000  102.7   18.7   84.0    0.0
 1993 282    62  18.00  29.20  13.10  4.298  2.986  1.920  1.066  0.000  105.7   20.7   85.1    0.0
 1993 283    63  24.70  31.80  17.30  6.232  3.925  3.015  0.910  0.000  109.6   23.7   86.0    0.0
 1993 284    64  23.70  33.30  17.60  6.052  3.994  3.187  0.807  0.000  113.6   26.9   86.8    0.0
 1993 285    65   7.40  23.60  17.20  1.677  1.677  0.957  0.719  0.000  115.3   27.8   87.5    0.0
 1993 286    66   7.40  18.30  16.80  1.558  1.558  0.935  0.622  0.000  116.9   28.7   88.1    0.0
 1993 287    67   9.00  22.10  16.40  1.973  1.973  1.233  0.740  0.000  118.8   30.0   88.9    0.0
 1993 288    68  18.60  24.90  13.90  4.119  4.119  2.684  1.434  0.000  123.0   32.7   90.3    0.0
 1993 289    69  25.30  31.60  14.90  6.079  6.079  4.116  1.964  0.000  129.0   36.8   92.3    0.0
 1993 290    70   9.20  25.70  13.30  2.030  2.030  1.437  0.592  0.000  131.1   38.2   92.9    0.0
 1993 291    71  18.70  21.10   8.70  3.733  3.733  2.723  1.010  0.000  134.8   40.9   93.9    0.0
 1993 292    72  18.30  22.60  12.30  3.836  3.836  2.842  0.994  0.000  138.6   43.8   94.9    0.0
 1993 293    73  16.80  24.50  16.60  3.725  3.725  2.817  0.908  0.000  142.4   46.6   95.8    0.0
 1993 294    74  18.20  26.80  17.30  4.157  4.157  3.221  0.936  0.000  146.5   49.8   96.7    0.0
 1993 295    75   7.80  18.50  12.60  1.542  1.542  1.226  0.317  0.000  148.1   51.0   97.0    0.0
 1993 296    76   7.80  16.40  12.10  1.490  1.490  1.198  0.292  0.000  149.6   52.2   97.3    0.0
 1993 297    77   8.20  17.30  11.60  1.577  1.577  1.278  0.299  0.000  151.1   53.5   97.6    0.0
 1993 298    78  12.90  17.90  10.80  2.481  2.481  2.028  0.453  0.000  153.6   55.6   98.1    0.0
 1993 299    79  27.40  20.00   6.30  5.201  5.201  4.285  0.916  0.000  158.8   59.8   99.0    0.0
 1993 300    80  24.90  22.00   9.00  4.970  4.970  4.122  0.848  0.000  163.8   64.0   99.8    0.0
 1993 301    81  28.20  28.00  11.50  6.187  6.187  5.180  1.007  0.000  170.0   69.1  100.8    0.0
 1993 302    82  15.30  28.40  17.40  3.524  3.524  2.992  0.532  0.000  173.5   72.1  101.4    0.0
 1993 303    83   8.10  22.30  17.50  1.735  1.735  1.497  0.238  0.000  175.2   73.6  101.6    0.0
 1993 304    84   8.10  20.70  15.10  1.666  1.666  1.449  0.217  0.000  176.9   75.1  101.8    0.0
 1993 305    85  25.40  19.10   9.80  4.881  4.881  4.273  0.608  0.000  181.8   79.4  102.4    0.0
 1993 306    86  28.60  24.90   9.40  5.903  5.903  5.194  0.709  0.000  187.7   84.5  103.1    0.0
 1993 307    87  28.20  28.70  12.90  6.264  6.264  5.551  0.713  0.000  193.9   90.1  103.9    0.0
 1993 308    88  28.70  29.00  14.90  6.489  6.489  5.808  0.680  0.000  200.4   95.9  104.5    0.0
 1993 309    89   8.90  21.20  13.80  1.809  1.809  1.667  0.142  0.000  202.2   97.6  104.7    0.0
 1993 310    90  12.90  16.60  10.70  2.398  2.398  2.220  0.178  0.000  204.6   99.8  104.9    0.0
 1993 311    91  28.50  22.70   8.50  5.637  5.637  5.238  0.399  0.000  210.3  105.0  105.3    0.0
 1993 312    92  29.10  27.70   8.60  6.133  6.133  5.721  0.412  0.000  216.4  110.7  105.7    0.0
 1993 313    93  28.70  30.00  12.90  6.428  6.428  6.020  0.408  0.000  222.8  116.8  106.1    0.0
 1993 314    94  22.60  32.30  16.20  5.321  5.321  5.004  0.317  0.000  228.2  121.8  106.4    0.0
 1993 315    95   9.80  28.20  20.20  2.270  2.270  2.143  0.127  0.000  230.4  123.9  106.5    0.0
 1993 316    96  18.70  26.00  17.50  4.138  4.138  3.911  0.227  0.000  234.6  127.8  106.7    0.0
 1993 317    97   8.50  23.70  15.30  1.798  1.798  1.702  0.096  0.000  236.4  129.5  106.8    0.0
 1993 318    98   8.50  19.10  14.90  1.692  1.692  1.602  0.090  0.000  238.1  131.1  106.9    0.0
 1993 319    99   8.60  21.10  15.90  1.771  1.771  1.677  0.094  0.000  239.8  132.8  107.0    0.0
 1993 320   100  10.60  21.80  17.60  2.233  2.233  2.114  0.119  0.000  242.1  134.9  107.1    0.0
 1993 321   101  10.60  20.40  13.50  2.120  2.120  2.007  0.113  0.000  244.2  136.9  107.3    0.0
 1993 322   102  18.70  20.80  12.20  3.718  3.718  3.517  0.201  0.000  247.9  140.4  107.5    0.0
 1993 323   103  29.60  25.10  11.00  6.152  6.152  5.817  0.334  0.000  254.1  146.3  107.8    0.0
 1993 324   104  30.00  27.20  11.70  6.433  6.433  6.084  0.349  0.000  260.5  152.3  108.1    0.0
 1993 325   105  29.90  30.00  13.50  6.719  6.719  6.356  0.363  0.000  267.2  158.7  108.5    0.0
 1993 326   106  28.60  27.40  15.70  6.343  6.343  6.003  0.339  0.000  273.5  164.7  108.8    0.0
 1993 327   107  20.70  28.20  13.80  4.566  4.566  4.323  0.242  0.000  278.1  169.0  109.1    0.0
 1993 328   108  16.20  27.20  19.00  3.676  3.676  3.482  0.194  0.000  281.8  172.5  109.3    0.0
 1993 329   109   9.20  25.20  18.30  2.030  2.030  1.919  0.111  0.000  283.8  174.4  109.4    0.0
 1993 330   110  16.40  21.20  16.40  3.397  3.397  3.204  0.192  0.000  287.2  177.6  109.6    0.0
 1993 331   111  12.80  20.50  14.80  2.593  2.593  2.443  0.151  0.000  289.8  180.1  109.7    0.0
 1993 332   112  23.50  22.20  13.00  4.792  4.792  4.507  0.285  0.000  294.6  184.6  110.0    0.0
 1993 333   113  27.20  26.10  10.30  5.695  5.695  5.349  0.346  0.000  300.3  189.9  110.4    0.0
 1993 334   114   9.80  18.00  14.60  1.920  1.920  1.801  0.119  0.000  302.2  191.7  110.5    0.0
 1993 335   115  29.40  21.90   9.30  5.789  5.789  5.422  0.367  0.000  308.0  197.2  110.8    0.0
 1993 336   116  31.10  28.30  10.40  6.696  6.696  6.264  0.432  0.000  314.7  203.4  111.3    0.0
 1993 337   117  16.80  28.50  19.10  3.878  3.878  3.623  0.255  0.000  318.6  207.0  111.5    0.0
 1993 338   118   9.00  24.80  16.90  1.958  1.958  1.827  0.131  0.000  320.5  208.9  111.7    0.0
 1993 339   119  27.20  21.00  13.50  5.492  5.492  5.120  0.372  0.000  326.0  214.0  112.0    0.0
 1993 340   120  10.90  24.40  13.50  2.297  2.297  2.139  0.158  0.000  328.3  216.1  112.2    0.0
 1993 341   121  20.10  28.00  19.00  4.612  4.612  4.291  0.321  0.000  332.9  220.4  112.5    0.0
 1993 342   122  21.40  28.50  17.80  4.895  4.895  4.550  0.345  0.000  337.8  225.0  112.9    0.0
 1993 343   123  30.00  29.90  16.00  6.878  6.878  6.388  0.489  0.000  344.7  231.4  113.4    0.0
 1993 344   124  26.90  28.00  18.10  6.133  6.133  5.692  0.441  0.000  350.8  237.1  113.8    0.0
 1993 345   125  30.40  30.30  15.50  6.977  6.977  6.467  0.509  0.000  357.8  243.5  114.3    0.0
 1993 346   126  28.20  32.20  19.90  6.824  6.824  6.318  0.506  0.000  364.6  249.8  114.8    0.0
 1993 347   127   9.40  25.40  20.00  2.112  2.112  1.953  0.159  0.000  366.8  251.8  115.0    0.0
 1993 348   128  22.00  27.20  20.30  5.057  5.057  4.669  0.388  0.000  371.8  256.5  115.4    0.0
 1993 349   129   9.10  21.50  15.80  1.888  1.888  1.740  0.148  0.000  373.7  258.2  115.5    0.0
 1993 350   130  28.10  23.10  14.90  5.903  5.903  5.431  0.472  0.000  379.6  263.6  116.0    0.0
 1993 351   131  31.30  28.30  12.90  6.890  6.890  6.325  0.564  0.000  386.5  270.0  116.5    0.0
 1993 352   132  26.60  29.10  16.40  6.072  6.072  5.563  0.509  0.000  392.6  275.5  117.1    0.0
 1993 353   133  29.30  29.90  16.50  6.756  6.756  6.175  0.581  0.000  399.3  281.7  117.6    0.0
 1993 354   134  27.60  21.40  13.60  5.622  5.622  5.125  0.497  0.000  404.9  286.8  118.1    0.0
 1993 355   135  31.80  23.30   8.40  6.351  6.351  5.773  0.577  0.000  411.3  292.6  118.7    0.0
 1993 356   136  29.40  29.30  12.90  6.558  6.558  5.944  0.614  0.000  417.9  298.5  119.3    0.0
 1993 357   137  29.30  32.50  16.50  6.963  6.963  6.292  0.671  0.000  424.8  304.8  120.0    0.0
 1993 358   138  30.60  31.80  18.50  7.325  7.325  6.598  0.727  0.000  432.1  311.4  120.7    0.0
 1993 359   139  20.10  32.40  21.00  4.931  4.931  4.427  0.505  0.000  437.1  315.8  121.2    0.0
 1993 360   140  23.00  29.20  20.60  5.439  5.439  4.864  0.575  0.000  442.5  320.7  121.8    0.0
 1993 361   141   9.10  23.20  19.30  1.991  1.991  1.773  0.218  0.000  444.5  322.5  122.0    0.0
 1993 362   142  23.00  26.50  15.70  5.089  5.089  4.512  0.577  0.000  449.6  327.0  122.6    0.0
 1993 363   143  22.50  21.30  14.60  4.635  4.635  4.090  0.545  0.000  454.2  331.1  123.1    0.0
 1993 364   144  31.30  25.40  11.00  6.589  6.589  5.785  0.805  0.000  460.8  336.9  123.9    0.0
 1993 365   145  31.30  27.90  13.10  6.911  6.911  6.034  0.878  0.000  467.7  342.9  124.8    0.0
 1994 001   146  31.50  28.20  15.80  7.132  7.132  6.190  0.942  0.000  474.9  349.1  125.8    0.0
 1994 002   147  30.40  24.20  12.90  6.419  6.419  5.537  0.882  0.000  481.3  354.6  126.6    0.0
 1994 003   148  31.50  24.90  10.40  6.578  6.578  5.635  0.943  0.000  487.9  360.3  127.6    0.0
 1994 004   149  30.10  27.50  12.70  6.615  6.391  5.626  0.765  0.000  494.2  365.9  128.4    0.0
 1994 005   150  29.60  30.00  15.20  6.833  6.833  5.768  1.065  0.000  501.1  371.7  129.4    0.0
 1994 006   151  12.50  31.30  18.80  3.009  3.009  2.520  0.490  0.000  504.1  374.2  129.9    0.0
 1994 007   152  18.50  30.30  18.80  4.410  4.410  3.660  0.749  0.000  508.5  377.8  130.7    0.0
 1994 008   153  19.30  25.50  18.50  4.353  4.353  3.579  0.773  0.000  512.9  381.4  131.4    0.0
 1994 009   154  30.40  23.60  16.40  6.602  6.602  5.374  1.227  0.000  519.5  386.8  132.7    0.0
 1994 010   155  31.30  24.20  11.20  6.570  6.570  5.290  1.280  0.000  526.0  392.1  133.9    0.0
 1994 011   156  31.30  28.20  11.50  6.925  6.925  5.510  1.415  0.000  532.9  397.6  135.4    0.0
 1994 012   157  28.90  29.20  14.40  6.626  6.626  5.208  1.419  0.000  539.6  402.8  136.8    0.0
 1994 013   158  26.50  28.10  17.00  6.129  5.843  4.754  1.089  0.000  545.4  407.6  137.9    0.0
 1994 014   159  28.10  29.80  15.20  6.546  6.546  5.008  1.539  0.000  552.0  412.6  139.4    0.0
 1994 015   160  30.60  30.60  14.10  7.146  7.146  5.386  1.760  0.000  559.1  418.0  141.2    0.0
 1994 016   161  26.20  26.50  14.30  5.854  5.727  4.342  1.385  0.000  564.8  422.3  142.5    0.0
 1994 017   162  29.50  28.00  13.80  6.695  5.965  4.882  1.083  0.000  570.8  427.2  143.6    0.0
 1994 018   163  30.70  30.00  18.20  7.383  6.208  5.288  0.920  0.000  577.0  432.5  144.5    0.0
 1994 019   164  29.80  31.60  18.40  7.304  6.045  5.231  0.814  0.000  583.1  437.7  145.4    0.0
 1994 020   165  27.90  35.00  18.80  7.110  7.110  5.092  2.018  0.000  590.2  442.8  147.4    0.0

*DSSAT Cropping System Model Ver. 4.0.2.000               Aug 11, 2016; 20:55:34

*RUN   3        : UYMZ                    
 MODEL          : MZCER040 - Maize           
 EXPERIMENT     : UYMZ0183 MZ    late to create DSS                             
 TREATMENT  1   : UYMZ                    

@YEAR DOY   DAS   SRAA   TMXA   TMNA   EOAA   ETAA   EPAA   ESAA   EFAD   ETAC   EPAC   ESAC   EFAC
 1994 220     0   5.50  19.10   9.90  1.206  1.206  0.000  1.206  0.000    1.2    0.0    1.2    0.0
 1994 221     1   4.50  14.00   8.70  0.908  0.908  0.000  0.908  0.000    2.1    0.0    2.1    0.0
 1994 222     2  16.20  15.00   4.20  3.172  3.172  0.000  3.172  0.000    5.3    0.0    5.3    0.0
 1994 223     3  16.30  20.70   6.50  3.541  3.541  0.000  3.541  0.000    8.8    0.0    8.8    0.0
 1994 224     4  16.10  23.40   7.40  3.655  3.177  0.000  3.177  0.000   12.0    0.0   12.0    0.0
 1994 225     5  14.20  23.20   8.40  3.243  2.855  0.000  2.855  0.000   14.9    0.0   14.9    0.0
 1994 226     6   9.00  15.50   9.10  1.863  1.429  0.000  1.429  0.000   16.3    0.0   16.3    0.0
 1994 227     7   7.50  10.80   5.30  1.392  1.103  0.000  1.103  0.000   17.4    0.0   17.4    0.0
 1994 228     8  16.50  12.00   2.30  3.023  0.932  0.000  0.932  0.000   18.3    0.0   18.3    0.0
 1994 229     9  13.90  13.10   0.20  2.534  0.822  0.000  0.822  0.000   19.1    0.0   19.1    0.0
 1994 230    10  11.80  21.00   0.40  2.432  0.744  0.000  0.744  0.000   19.9    0.0   19.9    0.0
 1994 231    11   9.90  21.10  11.90  2.268  0.685  0.000  0.685  0.000   20.6    0.0   20.6    0.0
 1994 232    12   9.80  16.80  10.80  2.099  0.638  0.000  0.638  0.000   21.2    0.0   21.2    0.0
 1994 233    13   5.30  22.00  12.00  1.229  0.599  0.000  0.599  0.000   21.8    0.0   21.8    0.0
 1994 234    14   5.80  18.00   5.70  1.204  0.567  0.000  0.567  0.000   22.4    0.0   22.4    0.0
 1994 235    15  17.00  14.00   1.40  3.185  0.739  0.000  0.739  0.000   23.1    0.0   23.1    0.0
 1994 236    16  17.70  17.30   2.80  3.538  0.515  0.000  0.515  0.000   23.6    0.0   23.6    0.0
 1994 237    17   9.50  17.40   4.20  1.928  0.494  0.000  0.494  0.000   24.1    0.0   24.1    0.0
 1994 238    18  16.60  17.00   6.00  3.408  0.476  0.000  0.476  0.000   24.6    0.0   24.6    0.0
 1994 239    19  10.90  16.70   3.10  2.166  0.459  0.000  0.459  0.000   25.1    0.0   25.1    0.0
 1994 240    20   7.40  17.20  10.80  1.593  1.593  0.001  1.592  0.000   26.7    0.0   26.7    0.0
 1994 241    21   9.20  23.00  12.80  2.175  1.953  0.003  1.950  0.000   28.6    0.0   28.6    0.0
 1994 242    22   5.40  15.70  12.60  1.158  1.158  0.003  1.154  0.000   29.8    0.0   29.8    0.0
 1994 243    23   5.50  16.50  12.30  1.189  1.189  0.005  1.184  0.000   31.0    0.0   30.9    0.0
 1994 244    24   5.50  17.10   9.90  1.172  1.172  0.006  1.166  0.000   32.1    0.0   32.1    0.0
 1994 245    25   9.20  12.00   5.30  1.738  1.738  0.011  1.728  0.000   33.9    0.0   33.8    0.0
 1994 246    26  19.40  17.40   3.90  3.922  3.922  0.024  3.897  0.000   37.8    0.1   37.7    0.0
 1994 247    27  19.60  18.60   4.00  4.035  2.582  0.026  2.556  0.000   40.4    0.1   40.3    0.0
 1994 248    28  13.40  22.80   4.50  2.938  1.964  0.021  1.943  0.000   42.3    0.1   42.2    0.0
 1994 249    29  17.60  25.20  13.00  4.278  1.320  0.035  1.285  0.000   43.7    0.1   43.5    0.0
 1994 250    30  18.40  15.10   3.80  3.588  1.072  0.039  1.034  0.000   44.7    0.2   44.5    0.0
 1994 251    31  15.20  11.30   1.20  2.716  0.919  0.029  0.889  0.000   45.6    0.2   45.4    0.0
 1994 252    32  18.20  13.30   1.00  3.353  0.821  0.028  0.793  0.000   46.5    0.2   46.2    0.0
 1994 253    33  14.60  19.00   3.70  3.015  0.741  0.020  0.722  0.000   47.2    0.3   47.0    0.0
 1994 254    34  17.50  22.40  12.80  4.103  0.696  0.029  0.667  0.000   47.9    0.3   47.6    0.0
 1994 255    35   6.30  18.20  13.00  1.400  1.400  0.021  1.379  0.000   49.3    0.3   49.0    0.0
 1994 256    36  12.40  25.00  15.50  3.062  2.152  0.065  2.087  0.000   51.5    0.4   51.1    0.0
 1994 257    37   6.10  15.80  13.20  1.311  1.311  0.043  1.267  0.000   52.8    0.4   52.4    0.0
 1994 258    38  16.60  16.30   8.40  3.432  3.215  0.136  3.079  0.000   56.0    0.5   55.4    0.0
 1994 259    39  20.40  18.20   4.60  4.177  3.372  0.183  3.190  0.000   59.3    0.7   58.6    0.0
 1994 260    40  20.40  20.70   6.10  4.384  1.654  0.209  1.445  0.000   61.0    0.9   60.1    0.0
 1994 261    41  21.10  29.60  12.50  5.346  1.404  0.293  1.110  0.000   62.4    1.2   61.2    0.0
 1994 262    42  20.20  31.40  18.80  5.459  1.334  0.397  0.937  0.000   63.7    1.6   62.1    0.0
 1994 263    43  19.60  32.70  23.80  5.542  1.366  0.541  0.825  0.000   65.1    2.2   62.9    0.0
 1994 264    44  11.40  27.20  15.90  2.851  1.117  0.370  0.746  0.000   66.2    2.5   63.7    0.0
 1994 265    45  13.80  26.70  15.40  3.406  1.207  0.521  0.686  0.000   67.4    3.1   64.4    0.0
 1994 266    46  20.90  34.00  18.80  5.717  1.651  1.012  0.639  0.000   69.1    4.1   65.0    0.0
 1994 267    47   6.60  29.80  15.40  1.673  1.673  0.360  1.313  0.000   70.8    4.4   66.3    0.0
 1994 268    48   8.80  15.30   9.40  1.755  1.755  0.431  1.325  0.000   72.5    4.9   67.6    0.0
 1994 269    49  23.40  20.90   6.50  4.906  4.788  1.248  3.540  0.000   77.3    6.1   71.2    0.0
 1994 270    50  23.40  17.20   3.10  4.499  4.499  1.204  3.294  0.000   81.8    7.3   74.5    0.0
 1994 271    51  19.80  22.00   7.10  4.235  3.185  1.081  2.104  0.000   85.0    8.4   76.6    0.0
 1994 272    52   7.10  20.30  13.50  1.566  1.281  0.427  0.854  0.000   86.3    8.8   77.4    0.0
 1994 273    53  17.50  20.80  13.10  3.861  3.861  1.132  2.729  0.000   90.1   10.0   80.2    0.0
 1994 274    54  15.10  21.40   9.20  3.233  2.587  1.031  1.556  0.000   92.7   11.0   81.7    0.0
 1994 275    55  19.60  23.90  13.00  4.460  3.398  1.520  1.879  0.000   96.1   12.5   83.6    0.0
 1994 276    56  17.90  22.30  13.30  3.984  3.736  1.483  2.253  0.000   99.8   14.0   85.9    0.0
 1994 277    57   7.00  16.90  12.10  1.430  1.430  0.574  0.856  0.000  101.3   14.6   86.7    0.0
 1994 278    58  15.80  21.80  12.20  3.439  2.588  1.429  1.160  0.000  103.9   16.0   87.9    0.0
 1994 279    59  22.30  22.90  11.40  4.871  3.108  2.143  0.966  0.000  107.0   18.1   88.8    0.0
 1994 280    60  20.40  24.00  13.60  4.583  2.981  2.136  0.845  0.000  110.0   20.3   89.7    0.0
 1994 281    61  11.90  25.80  15.00  2.751  2.125  1.365  0.761  0.000  112.1   21.6   90.4    0.0
 1994 282    62   7.40  21.10  17.30  1.638  1.638  0.865  0.774  0.000  113.7   22.5   91.2    0.0
 1994 283    63   7.30  19.00  12.10  1.499  1.499  0.833  0.665  0.000  115.2   23.3   91.9    0.0
 1994 284    64  15.80  20.20  11.40  3.265  3.265  1.885  1.380  0.000  118.5   25.2   93.3    0.0
 1994 285    65   7.40  18.10  14.60  1.525  1.525  0.911  0.614  0.000  120.0   26.1   93.9    0.0
 1994 286    66  24.50  22.10  15.00  5.318  5.318  3.272  2.046  0.000  125.3   29.4   95.9    0.0
 1994 287    67  25.90  23.00  11.40  5.500  5.500  3.501  1.999  0.000  130.8   32.9   97.9    0.0
 1994 288    68  25.20  28.20  14.30  5.816  5.556  3.826  1.730  0.000  136.4   36.7   99.7    0.0
 1994 289    69  17.90  30.10  13.40  4.176  4.176  2.867  1.309  0.000  140.6   39.6  101.0    0.0
 1994 290    70   7.60  18.20  14.30  1.537  1.537  1.097  0.441  0.000  142.1   40.7  101.4    0.0
 1994 291    71  17.10  21.00  10.70  3.470  3.470  2.527  0.943  0.000  145.6   43.2  102.3    0.0
 1994 292    72   7.70  19.90  11.90  1.553  1.553  1.151  0.402  0.000  147.1   44.4  102.7    0.0
 1994 293    73  24.00  23.10  11.70  5.027  5.027  3.790  1.237  0.000  152.1   48.2  104.0    0.0
 1994 294    74  22.00  24.00  14.00  4.740  4.740  3.642  1.097  0.000  156.9   51.8  105.1    0.0
 1994 295    75  18.90  23.60  11.10  3.946  3.946  3.096  0.851  0.000  160.8   54.9  105.9    0.0
 1994 296    76   7.80  17.40  13.10  1.526  1.526  1.216  0.310  0.000  162.4   56.1  106.2    0.0
 1994 297    77   9.50  20.00  14.10  1.937  1.937  1.562  0.376  0.000  164.3   57.7  106.6    0.0
 1994 298    78  23.10  22.10  13.10  4.791  4.791  3.913  0.877  0.000  169.1   61.6  107.5    0.0
 1994 299    79  24.80  24.70  11.70  5.243  5.243  4.340  0.903  0.000  174.3   65.9  108.4    0.0
 1994 300    80  27.10  23.20  11.90  5.624  5.624  4.716  0.907  0.000  179.9   70.6  109.3    0.0
 1994 301    81  24.10  16.20   5.20  4.274  4.274  3.625  0.649  0.000  184.2   74.3  110.0    0.0
 1994 302    82  27.10  16.00   2.40  4.659  4.659  3.959  0.700  0.000  188.9   78.2  110.7    0.0
 1994 303    83   8.10  18.70   5.90  1.507  1.507  1.222  0.285  0.000  190.4   79.5  110.9    0.0
 1994 304    84   8.10  20.60  15.30  1.679  1.679  1.371  0.309  0.000  192.1   80.8  111.2    0.0
 1994 305    85  22.50  23.20  14.20  4.769  4.769  3.934  0.834  0.000  196.8   84.8  112.1    0.0
 1994 306    86  28.60  26.80  12.80  6.252  6.252  5.223  1.028  0.000  203.1   90.0  113.1    0.0
 1994 307    87  27.80  27.40  13.30  6.134  6.134  5.199  0.935  0.000  209.2   95.2  114.0    0.0
 1994 308    88  16.40  26.80  13.60  3.595  3.595  3.089  0.506  0.000  212.8   98.3  114.5    0.0
 1994 309    89  22.30  26.00  17.10  4.971  4.971  4.323  0.648  0.000  217.8  102.6  115.2    0.0
 1994 310    90  27.30  23.00  12.60  5.651  5.651  4.973  0.678  0.000  223.4  107.6  115.9    0.0
 1994 311    91  28.30  25.50  10.10  5.908  5.908  5.282  0.626  0.000  229.3  112.8  116.5    0.0
 1994 312    92  17.00  27.40  16.10  3.805  3.805  3.432  0.373  0.000  233.1  116.3  116.9    0.0
 1994 313    93  30.20  22.80  14.60  6.316  6.316  5.734  0.581  0.000  239.5  122.0  117.5    0.0
 1994 314    94  15.60  22.50  11.30  3.160  3.160  2.881  0.279  0.000  242.6  124.9  117.7    0.0
 1994 315    95  23.40  26.00  12.30  4.991  4.991  4.560  0.431  0.000  247.6  129.5  118.2    0.0
 1994 316    96  18.20  26.50  17.10  4.055  4.055  3.713  0.341  0.000  251.7  133.2  118.5    0.0
 1994 317    97  24.00  26.70  16.00  5.312  5.312  4.877  0.434  0.000  257.0  138.0  118.9    0.0
 1994 318    98  22.70  28.20  16.90  5.146  5.146  4.734  0.412  0.000  262.1  142.8  119.4    0.0
 1994 319    99  16.40  26.30  19.20  3.702  3.702  3.410  0.291  0.000  265.8  146.2  119.6    0.0
 1994 320   100  19.50  28.00  16.90  4.409  4.409  4.067  0.342  0.000  270.2  150.3  120.0    0.0
 1994 321   101  15.50  20.40  10.30  3.024  3.024  2.792  0.233  0.000  273.3  153.0  120.2    0.0
 1994 322   102  29.70  22.80   7.90  5.857  5.857  5.400  0.457  0.000  279.1  158.4  120.7    0.0
 1994 323   103  29.10  23.80   9.60  5.900  5.900  5.432  0.468  0.000  285.0  163.9  121.1    0.0
 1994 324   104  29.30  22.40  10.00  5.856  5.856  5.385  0.471  0.000  290.9  169.3  121.6    0.0
 1994 325   105  30.00  24.60   9.90  6.162  6.162  5.660  0.502  0.000  297.0  174.9  122.1    0.0
 1994 326   106  29.20  26.90  10.60  6.207  6.207  5.695  0.512  0.000  303.2  180.6  122.6    0.0
 1994 327   107  27.80  27.00  12.10  5.989  5.989  5.491  0.497  0.000  309.2  186.1  123.1    0.0
 1994 328   108  30.50  29.40  12.60  6.786  6.786  6.219  0.567  0.000  316.0  192.3  123.7    0.0
 1994 329   109  28.70  32.00  15.40  6.717  6.717  6.155  0.562  0.000  322.7  198.5  124.3    0.0
 1994 330   110  10.50  21.40  15.20  2.167  2.167  1.979  0.188  0.000  324.9  200.5  124.4    0.0
 1994 331   111  30.90  25.20  10.40  6.429  6.429  5.849  0.580  0.000  331.3  206.3  125.0    0.0
 1994 332   112   8.90  20.30  13.50  1.787  1.787  1.621  0.166  0.000  333.1  207.9  125.2    0.0
 1994 333   113  28.40  23.50  13.90  5.959  5.959  5.391  0.568  0.000  339.1  213.3  125.8    0.0
 1994 334   114  31.00  31.00  13.30  7.077  7.077  6.385  0.691  0.000  346.2  219.7  126.4    0.0
 1994 335   115  30.60  32.00  16.10  7.215  7.215  6.493  0.721  0.000  353.4  226.2  127.2    0.0
 1994 336   116  14.80  31.60  17.60  3.513  3.513  3.155  0.359  0.000  356.9  229.4  127.5    0.0
 1994 337   117   9.00  20.50  15.90  1.852  1.852  1.659  0.193  0.000  358.7  231.0  127.7    0.0
 1994 338   118  23.80  22.00  11.90  4.827  4.827  4.315  0.512  0.000  363.6  235.3  128.2    0.0
 1994 339   119  29.60  24.90  10.10  6.135  6.135  5.472  0.663  0.000  369.7  240.8  128.9    0.0
 1994 340   120  30.30  28.60  13.10  6.729  6.729  5.991  0.739  0.000  376.4  246.8  129.6    0.0
 1994 341   121  31.60  28.00  15.60  7.107  7.107  6.315  0.792  0.000  383.5  253.1  130.4    0.0
 1994 342   122  30.30  30.00  14.50  6.916  6.916  6.134  0.781  0.000  390.4  259.2  131.2    0.0
 1994 343   123  29.30  35.40  16.10  7.311  7.311  6.475  0.836  0.000  397.8  265.7  132.0    0.0
 1994 344   124  30.20  35.40  20.00  7.745  7.745  6.841  0.904  0.000  405.5  272.6  132.9    0.0
 1994 345   125  20.70  36.40  21.70  5.670  5.670  4.993  0.677  0.000  411.2  277.5  133.6    0.0
 1994 346   126  20.50  36.90  22.80  5.809  5.809  5.098  0.710  0.000  417.0  282.6  134.3    0.0
 1994 347   127  12.10  30.80  20.90  2.926  2.926  2.559  0.367  0.000  419.9  285.2  134.7    0.0
 1994 348   128  12.50  28.90  20.40  2.951  2.951  2.571  0.380  0.000  422.9  287.8  135.1    0.0
 1994 349   129  29.60  30.00  17.30  6.918  6.918  6.002  0.916  0.000  429.8  293.8  136.0    0.0
 1994 350   130  11.70  27.10  17.90  2.660  2.660  2.298  0.362  0.000  432.4  296.1  136.4    0.0
 1994 351   131  30.50  28.00  16.60  6.940  6.940  5.967  0.973  0.000  439.4  302.0  137.3    0.0
 1994 352   132  31.90  25.10  12.20  6.779  6.779  5.797  0.982  0.000  446.2  307.8  138.3    0.0
 1994 353   133  24.40  27.40  15.50  5.475  5.475  4.655  0.820  0.000  451.6  312.5  139.1    0.0
 1994 354   134  27.50  29.70  17.00  6.412  6.412  5.418  0.994  0.000  458.0  317.9  140.1    0.0
 1994 355   135  24.90  29.00  18.90  5.847  5.847  4.907  0.940  0.000  463.9  322.8  141.1    0.0
 1994 356   136  23.90  30.90  16.10  5.619  5.619  4.682  0.937  0.000  469.5  327.5  142.0    0.0
 1994 357   137  29.90  32.60  18.70  7.305  7.305  6.039  1.267  0.000  476.8  333.5  143.3    0.0
 1994 358   138  26.10  33.90  18.80  6.477  6.477  5.309  1.168  0.000  483.3  338.9  144.4    0.0
 1994 359   139  29.70  35.10  21.10  7.625  7.625  6.193  1.432  0.000  490.9  345.0  145.9    0.0
 1994 360   140  28.50  31.50  18.50  6.894  6.832  5.544  1.288  0.000  497.8  350.6  147.2    0.0
 1994 361   141  24.90  32.20  17.80  6.045  6.045  4.811  1.235  0.000  503.8  355.4  148.4    0.0
 1994 362   142  17.70  33.20  20.00  4.418  4.418  3.476  0.942  0.000  508.2  358.9  149.3    0.0
 1994 363   143  27.40  32.90  20.60  6.856  6.856  5.329  1.526  0.000  515.1  364.2  150.9    0.0
 1994 364   144  26.20  32.10  22.20  6.583  6.583  5.051  1.532  0.000  521.7  369.3  152.4    0.0
 1994 365   145  29.10  33.20  18.60  7.223  6.827  5.467  1.360  0.000  528.5  374.7  153.8    0.0
 1995 001   146  30.60  35.90  20.70  8.265  8.265  6.163  2.102  0.000  536.7  380.9  155.9    0.0
 1995 002   147  24.60  36.00  21.80  6.742  6.742  4.948  1.794  0.000  543.5  385.8  157.7    0.0
 1995 003   148  25.80  34.80  21.60  6.684  6.684  4.823  1.861  0.000  550.2  390.7  159.5    0.0
 1995 004   149  21.00  33.30  20.80  5.337  5.337  3.782  1.555  0.000  555.5  394.4  161.1    0.0
 1995 005   150  25.30  32.30  21.50  6.407  6.407  4.454  1.953  0.000  561.9  398.9  163.0    0.0
 1995 006   151  27.00  30.40  19.00  6.595  6.595  4.492  2.102  0.000  568.5  403.4  165.1    0.0
 1995 007   152  31.60  32.20  15.50  7.689  6.821  5.128  1.693  0.000  575.3  408.5  166.8    0.0
 1995 008   153  20.20  33.50  20.20  5.166  5.166  3.370  1.796  0.000  580.5  411.9  168.6    0.0
 1995 009   154  15.00  24.20  15.50  3.343  3.343  2.131  1.212  0.000  583.8  414.0  169.8    0.0
 1995 010   155  29.20  24.50  12.00  6.363  6.363  3.959  2.404  0.000  590.2  418.0  172.2    0.0
 1995 011   156  16.70  24.40  14.80  3.719  3.391  2.314  1.078  0.000  593.6  420.3  173.3    0.0
 1995 012   157  24.80  28.40  11.80  5.656  5.656  3.519  2.137  0.000  599.3  423.8  175.4    0.0
 1995 013   158  20.10  30.20  17.80  4.899  4.796  3.048  1.749  0.000  604.0  426.9  177.2    0.0

*DSSAT Cropping System Model Ver. 4.0.2.000               Aug 11, 2016; 20:55:34

*RUN   4        : UYMZ                    
 MODEL          : MZCER040 - Maize           
 EXPERIMENT     : UYMZ0183 MZ    late to create DSS                             
 TREATMENT  1   : UYMZ                    

@YEAR DOY   DAS   SRAA   TMXA   TMNA   EOAA   ETAA   EPAA   ESAA   EFAD   ETAC   EPAC   ESAC   EFAC
 1995 220     0  15.60  18.10   0.60  3.087  1.519  0.000  1.519  0.000    1.5    0.0    1.5    0.0
 1995 221     1   6.20  15.20   5.50  1.234  1.142  0.000  1.142  0.000    2.7    0.0    2.7    0.0
 1995 222     2  13.80  12.40  -0.30  2.473  0.955  0.000  0.955  0.000    3.6    0.0    3.6    0.0
 1995 223     3   4.60  11.50   4.80  0.859  0.859  0.000  0.859  0.000    4.5    0.0    4.5    0.0
 1995 224     4  11.50  21.50  11.20  2.632  2.632  0.000  2.632  0.000    7.1    0.0    7.1    0.0
 1995 225     5   5.60  24.00  13.00  1.343  1.343  0.000  1.343  0.000    8.4    0.0    8.4    0.0
 1995 226     6   4.70  20.00  13.50  1.076  1.076  0.000  1.076  0.000    9.5    0.0    9.5    0.0
 1995 227     7  13.50  13.60   3.60  2.572  1.579  0.000  1.579  0.000   11.1    0.0   11.1    0.0
 1995 228     8  14.80  11.10   1.70  2.654  2.315  0.000  2.315  0.000   13.4    0.0   13.4    0.0
 1995 229     9   7.50  10.50   0.60  1.315  1.315  0.000  1.315  0.000   14.7    0.0   14.7    0.0
 1995 230    10  14.30  12.00   2.30  2.620  1.082  0.000  1.082  0.000   15.8    0.0   15.8    0.0
 1995 231    11  16.40  13.20  -0.70  2.965  0.920  0.000  0.920  0.000   16.7    0.0   16.7    0.0
 1995 232    12  15.80  15.00  -1.10  2.929  0.814  0.000  0.814  0.000   17.6    0.0   17.6    0.0
 1995 233    13  11.10  19.70   3.20  2.306  0.738  0.000  0.738  0.000   18.3    0.0   18.3    0.0
 1995 234    14  16.60  23.00   6.30  3.713  0.680  0.000  0.680  0.000   19.0    0.0   19.0    0.0
 1995 235    15  16.70  31.80  14.30  4.434  0.634  0.000  0.634  0.000   19.6    0.0   19.6    0.0
 1995 236    16  14.60  30.40  19.30  3.960  0.596  0.000  0.596  0.000   20.2    0.0   20.2    0.0
 1995 237    17   8.70  29.00  18.30  2.305  0.571  0.007  0.564  0.000   20.8    0.0   20.8    0.0
 1995 238    18  11.70  30.40  18.30  3.147  0.556  0.019  0.537  0.000   21.3    0.0   21.3    0.0
 1995 239    19  12.20  28.30  15.20  3.130  0.543  0.030  0.513  0.000   21.9    0.1   21.8    0.0
 1995 240    20   7.90  20.00  13.40  1.804  0.515  0.023  0.492  0.000   22.4    0.1   22.3    0.0
 1995 241    21   6.50  24.60   9.70  1.525  0.496  0.022  0.474  0.000   22.9    0.1   22.8    0.0
 1995 242    22  17.50  20.00  11.00  3.908  0.543  0.085  0.457  0.000   23.4    0.2   23.2    0.0
 1995 243    23  12.20  25.30   9.40  2.874  0.525  0.082  0.443  0.000   23.9    0.3   23.7    0.0
 1995 244    24  13.10  20.60   6.00  2.813  0.534  0.105  0.429  0.000   24.5    0.4   24.1    0.0
 1995 245    25  19.80  15.20   3.00  3.817  0.581  0.164  0.417  0.000   25.1    0.5   24.5    0.0
 1995 246    26  18.60  18.10   1.60  3.695  0.558  0.153  0.405  0.000   25.6    0.7   24.9    0.0
 1995 247    27  14.80  22.20   7.00  3.278  0.513  0.118  0.395  0.000   26.1    0.8   25.3    0.0
 1995 248    28  18.00  28.80  13.60  4.564  4.564  0.201  4.363  0.000   30.7    1.0   29.7    0.0
 1995 249    29  19.60  30.80  14.20  5.095  3.836  0.312  3.525  0.000   34.5    1.3   33.2    0.0
 1995 250    30  19.10  32.00  13.60  4.994  2.498  0.409  2.089  0.000   37.0    1.7   35.3    0.0
 1995 251    31   8.00  24.30  15.80  1.939  1.939  0.204  1.735  0.000   39.0    1.9   37.0    0.0
 1995 252    32   5.90  18.40  12.90  1.292  1.292  0.160  1.132  0.000   40.3    2.1   38.2    0.0
 1995 253    33   5.90  16.90  12.90  1.264  1.264  0.172  1.091  0.000   41.5    2.3   39.3    0.0
 1995 254    34  12.10  20.00   9.10  2.610  2.610  0.369  2.240  0.000   44.1    2.6   41.5    0.0
 1995 255    35  20.20  12.30   3.30  3.675  3.572  0.550  3.022  0.000   47.7    3.2   44.5    0.0
 1995 256    36   6.10  10.10   7.50  1.122  1.122  0.158  0.963  0.000   48.8    3.3   45.5    0.0
 1995 257    37   7.50  13.90   7.40  1.460  1.460  0.208  1.252  0.000   50.3    3.6   46.7    0.0
 1995 258    38  20.00  19.00   6.60  4.156  4.156  0.608  3.548  0.000   54.4    4.2   50.3    0.0
 1995 259    39  21.50  21.80   7.40  4.669  3.186  0.724  2.462  0.000   57.6    4.9   52.7    0.0
 1995 260    40  18.90  26.00   8.80  4.375  2.664  0.742  1.922  0.000   60.3    5.6   54.7    0.0
 1995 261    41  21.10  24.40   8.60  4.763  2.190  0.911  1.279  0.000   62.5    6.5   55.9    0.0
 1995 262    42  19.10  13.80   5.50  3.605  1.795  0.764  1.031  0.000   64.3    7.3   57.0    0.0
 1995 263    43  21.30  14.10   1.50  3.873  1.725  0.838  0.888  0.000   66.0    8.1   57.9    0.0
 1995 264    44  21.40  18.00   3.10  4.219  1.550  0.759  0.791  0.000   67.6    8.9   58.7    0.0
 1995 265    45   6.50  14.50   8.10  1.279  1.279  0.223  1.056  0.000   68.8    9.1   59.7    0.0
 1995 266    46  14.50  17.90   8.90  3.015  1.618  0.549  1.069  0.000   70.5    9.7   60.8    0.0
 1995 267    47  18.90  22.20   8.10  4.126  1.718  0.807  0.912  0.000   72.2   10.5   61.7    0.0
 1995 268    48  19.80  23.30   9.00  4.406  4.149  0.949  3.200  0.000   76.3   11.4   64.9    0.0
 1995 269    49  18.90  23.00  12.90  4.316  1.927  1.029  0.898  0.000   78.2   12.5   65.8    0.0
 1995 270    50  10.40  17.60   8.30  2.114  1.361  0.562  0.798  0.000   79.6   13.0   66.6    0.0
 1995 271    51   6.90  15.20   7.90  1.347  1.105  0.379  0.726  0.000   80.7   13.4   67.3    0.0
 1995 272    52   6.80  13.70  11.10  1.338  1.338  0.391  0.947  0.000   82.1   13.8   68.3    0.0
 1995 273    53  17.50  19.40  11.40  3.728  1.875  1.139  0.737  0.000   83.9   14.9   69.0    0.0
 1995 274    54  17.60  20.80   8.50  3.709  1.901  1.222  0.679  0.000   85.8   16.1   69.7    0.0
 1995 275    55   6.90  22.50  12.80  1.539  1.168  0.535  0.633  0.000   87.0   16.7   70.3    0.0
 1995 276    56   7.00  18.00  12.60  1.464  1.464  0.549  0.915  0.000   88.5   17.2   71.2    0.0
 1995 277    57  11.50  22.00  14.20  2.560  2.560  1.013  1.547  0.000   91.0   18.2   72.8    0.0
 1995 278    58   8.40  21.80  15.40  1.876  1.876  0.797  1.079  0.000   92.9   19.0   73.9    0.0
 1995 279    59  12.40  23.80  16.50  2.854  2.854  1.274  1.580  0.000   95.7   20.3   75.4    0.0
 1995 280    60  20.30  22.60  13.60  4.482  4.482  2.089  2.394  0.000  100.2   22.4   77.8    0.0
 1995 281    61  24.00  21.10  10.70  5.054  5.054  2.476  2.577  0.000  105.3   24.9   80.4    0.0
 1995 282    62  24.90  18.30   7.80  4.900  4.900  2.528  2.372  0.000  110.2   27.4   82.8    0.0
 1995 283    63  25.70  20.20   7.10  5.146  4.213  2.735  1.477  0.000  114.4   30.1   84.3    0.0
 1995 284    64  22.80  22.00   7.20  4.669  4.669  2.562  2.107  0.000  119.1   32.7   86.4    0.0
 1995 285    65   7.40  16.80  11.50  1.464  1.464  0.832  0.633  0.000  120.5   33.5   87.0    0.0
 1995 286    66  21.40  15.00   6.90  3.941  3.941  2.305  1.636  0.000  124.5   35.8   88.6    0.0
 1995 287    67  25.90  20.90   4.40  5.061  5.061  3.000  2.061  0.000  129.5   38.8   90.7    0.0
 1995 288    68  25.80  26.30   9.70  5.661  5.419  3.385  2.034  0.000  135.0   42.2   92.7    0.0
 1995 289    69  25.60  23.00   9.90  5.377  5.377  3.354  2.023  0.000  140.3   45.6   94.7    0.0
 1995 290    70  16.60  19.00   6.00  3.182  3.182  2.049  1.133  0.000  143.5   47.6   95.9    0.0
 1995 291    71  26.30  22.20   7.10  5.311  4.920  3.476  1.444  0.000  148.4   51.1   97.3    0.0
 1995 292    72  19.20  22.80   8.30  3.941  3.747  2.637  1.110  0.000  152.2   53.7   98.4    0.0
 1995 293    73  25.20  22.10   8.80  5.135  4.454  3.518  0.936  0.000  156.6   57.3   99.4    0.0
 1995 294    74  25.70  23.00   6.00  5.159  4.436  3.610  0.825  0.000  161.1   60.9  100.2    0.0
 1995 295    75  26.90  26.10  11.10  5.855  4.918  4.172  0.746  0.000  166.0   65.0  100.9    0.0
 1995 296    76  26.20  30.10  12.80  6.043  6.043  4.422  1.621  0.000  172.0   69.5  102.6    0.0
 1995 297    77  24.80  31.00  15.20  5.865  5.865  4.426  1.440  0.000  177.9   73.9  104.0    0.0
 1995 298    78  10.30  24.70  18.10  2.309  2.309  1.796  0.513  0.000  180.2   75.7  104.5    0.0
 1995 299    79   7.90  18.30  10.80  1.533  1.533  1.217  0.316  0.000  181.7   76.9  104.8    0.0
 1995 300    80  11.40  14.40   9.10  2.059  2.059  1.652  0.407  0.000  183.8   78.6  105.2    0.0
 1995 301    81  27.50  18.00   5.80  5.066  5.066  4.077  0.988  0.000  188.9   82.6  106.2    0.0
 1995 302    82  27.50  17.40   5.30  4.995  4.995  4.042  0.953  0.000  193.9   86.7  107.2    0.0
 1995 303    83  27.70  19.70   6.20  5.240  5.240  4.258  0.981  0.000  199.1   90.9  108.2    0.0
 1995 304    84  27.80  23.80  10.10  5.742  5.742  4.700  1.042  0.000  204.8   95.6  109.2    0.0
 1995 305    85  27.90  27.00  12.10  6.085  6.085  5.042  1.044  0.000  210.9  100.7  110.2    0.0
 1995 306    86  27.80  28.20  14.70  6.266  6.100  5.268  0.832  0.000  217.0  105.9  111.1    0.0
 1995 307    87  27.30  30.10  15.70  6.324  6.324  5.401  0.922  0.000  223.3  111.3  112.0    0.0
 1995 308    88  27.90  33.00  18.10  6.777  6.777  5.880  0.897  0.000  230.1  117.2  112.9    0.0
 1995 309    89  28.20  33.20  21.00  6.984  6.984  6.221  0.763  0.000  237.1  123.4  113.7    0.0
 1995 310    90  18.70  31.50  19.50  4.492  4.492  4.064  0.428  0.000  241.6  127.5  114.1    0.0
 1995 311    91   8.40  22.80  18.90  1.818  1.818  1.656  0.162  0.000  243.4  129.2  114.3    0.0
 1995 312    92   8.70  22.80  18.60  1.878  1.878  1.714  0.165  0.000  245.3  130.9  114.4    0.0
 1995 313    93   8.80  24.10  18.00  1.920  1.920  1.753  0.167  0.000  247.2  132.6  114.6    0.0
 1995 314    94  21.60  23.10  14.80  4.538  4.538  4.146  0.392  0.000  251.8  136.8  115.0    0.0
 1995 315    95  27.10  25.00  11.80  5.685  5.685  5.203  0.482  0.000  257.4  142.0  115.5    0.0
 1995 316    96  18.50  22.40  11.70  3.753  3.753  3.439  0.314  0.000  261.2  145.4  115.8    0.0
 1995 317    97  26.90  24.80  11.70  5.624  5.624  5.154  0.469  0.000  266.8  150.6  116.2    0.0
 1995 318    98  23.50  25.80  15.80  5.139  5.139  4.712  0.427  0.000  272.0  155.3  116.7    0.0
 1995 319    99  21.10  25.60  16.20  4.618  4.618  4.238  0.380  0.000  276.6  159.5  117.0    0.0
 1995 320   100  13.80  23.80  13.80  2.899  2.899  2.662  0.237  0.000  279.5  162.2  117.3    0.0
 1995 321   101  20.50  22.90  12.70  4.219  4.219  3.875  0.344  0.000  283.7  166.1  117.6    0.0
 1995 322   102  27.80  22.50  13.00  5.708  5.708  5.240  0.468  0.000  289.4  171.3  118.1    0.0
 1995 323   103  29.10  24.30  11.30  6.025  6.025  5.528  0.497  0.000  295.4  176.8  118.6    0.0
 1995 324   104  29.80  25.00  13.00  6.312  6.312  5.787  0.525  0.000  301.7  182.6  119.1    0.0
 1995 325   105  20.50  28.20  13.90  4.544  4.544  4.164  0.380  0.000  306.3  186.8  119.5    0.0
 1995 326   106  12.90  26.90  19.20  2.934  2.934  2.689  0.245  0.000  309.2  189.5  119.7    0.0
 1995 327   107  18.70  24.30  17.20  4.062  4.062  3.723  0.339  0.000  313.3  193.2  120.1    0.0
 1995 328   108  22.60  25.10  13.80  4.826  4.826  4.408  0.418  0.000  318.1  197.6  120.5    0.0
 1995 329   109  22.30  26.00  12.20  4.754  4.754  4.328  0.426  0.000  322.9  201.9  120.9    0.0
 1995 330   110  27.10  28.60  17.50  6.210  6.210  5.638  0.572  0.000  329.1  207.6  121.5    0.0
 1995 331   111  28.80  20.10  12.30  5.710  5.710  5.171  0.539  0.000  334.8  212.7  122.0    0.0
 1995 332   112  30.10  24.40   7.40  6.050  6.050  5.466  0.584  0.000  340.8  218.2  122.6    0.0
 1995 333   113  31.00  27.00  12.80  6.730  6.729  6.066  0.663  0.000  347.6  224.3  123.3    0.0
 1995 334   114  28.80  32.10  13.30  6.659  6.659  5.989  0.670  0.000  354.2  230.3  124.0    0.0
 1995 335   115  12.70  26.80  18.10  2.868  2.868  2.574  0.294  0.000  357.1  232.8  124.2    0.0
 1995 336   116  22.60  29.80  17.60  5.261  5.261  4.713  0.549  0.000  362.3  237.5  124.8    0.0
 1995 337   117  27.90  29.50  16.20  6.407  6.331  5.729  0.602  0.000  368.7  243.3  125.4    0.0
 1995 338   118  30.30  31.00  16.30  7.083  7.083  6.322  0.761  0.000  375.8  249.6  126.2    0.0
 1995 339   119  27.00  32.70  17.20  6.474  6.474  5.769  0.705  0.000  382.2  255.4  126.9    0.0
 1995 340   120  30.30  33.40  18.30  7.379  7.379  6.566  0.813  0.000  389.6  261.9  127.7    0.0
 1995 341   121  23.00  33.80  14.20  5.464  5.464  4.850  0.614  0.000  395.1  266.8  128.3    0.0
 1995 342   122  30.30  23.70  13.40  6.365  6.365  5.633  0.731  0.000  401.4  272.4  129.0    0.0
 1995 343   123  31.20  25.50   8.40  6.432  6.432  5.674  0.758  0.000  407.9  278.1  129.8    0.0
 1995 344   124  31.20  29.50   9.50  6.819  6.819  5.994  0.825  0.000  414.7  284.1  130.6    0.0
 1995 345   125  25.30  30.90  10.80  5.681  5.681  4.975  0.706  0.000  420.4  289.1  131.3    0.0
 1995 346   126  31.40  26.40   9.20  6.599  6.599  5.756  0.843  0.000  427.0  294.8  132.2    0.0
 1995 347   127  31.10  32.00  11.50  7.117  7.117  6.180  0.937  0.000  434.1  301.0  133.1    0.0
 1995 348   128  30.60  29.70  13.30  6.919  6.919  5.981  0.938  0.000  441.0  307.0  134.0    0.0
 1995 349   129  28.90  32.90  10.10  6.619  6.619  5.692  0.927  0.000  447.6  312.7  135.0    0.0
 1995 350   130  26.30  37.20  18.40  7.371  7.371  6.304  1.067  0.000  455.0  319.0  136.0    0.0
 1995 351   131  31.20  34.70  16.80  7.665  7.665  6.517  1.148  0.000  462.7  325.5  137.2    0.0
 1995 352   132  28.80  38.30  20.80  8.685  8.685  7.336  1.349  0.000  471.3  332.8  138.5    0.0
 1995 353   133  31.40  33.40  18.90  7.735  7.735  6.488  1.247  0.000  479.1  339.3  139.8    0.0
 1995 354   134  31.40  34.90  14.30  7.613  7.613  6.338  1.276  0.000  486.7  345.7  141.0    0.0
 1995 355   135  24.20  36.30  22.10  6.663  6.663  5.501  1.162  0.000  493.4  351.2  142.2    0.0
 1995 356   136  18.80  29.20  20.00  4.474  4.474  3.661  0.813  0.000  497.8  354.8  143.0    0.0
 1995 357   137  10.20  22.70  19.50  2.247  2.247  1.821  0.426  0.000  500.1  356.6  143.4    0.0
 1995 358   138   9.30  23.40  20.00  2.077  2.077  1.665  0.411  0.000  502.2  358.3  143.9    0.0
 1995 359   139  10.90  25.50  18.10  2.461  2.461  1.951  0.510  0.000  504.6  360.3  144.4    0.0
 1995 360   140  31.90  27.60  16.00  7.272  7.272  5.698  1.574  0.000  511.9  365.9  145.9    0.0
 1995 361   141  31.10  27.00  14.60  6.974  6.974  5.397  1.577  0.000  518.9  371.3  147.5    0.0
 1995 362   142  31.40  27.90  14.80  7.137  7.137  5.452  1.684  0.000  526.0  376.8  149.2    0.0
 1995 363   143  30.70  29.00  15.10  7.094  6.491  5.344  1.148  0.000  532.5  382.1  150.3    0.0
 1995 364   144  31.30  28.90  14.90  7.226  7.226  5.360  1.865  0.000  539.7  387.5  152.2    0.0
 1995 365   145  29.60  28.00  15.00  6.780  6.641  4.947  1.694  0.000  546.4  392.4  153.9    0.0
 1996 001   146  31.30  29.40  14.00  7.244  6.401  5.192  1.209  0.000  552.8  397.6  155.1    0.0
 1996 002   147  31.30  33.00  17.60  7.759  6.450  5.457  0.993  0.000  559.2  403.1  156.1    0.0
 1996 003   148  30.40  35.00  20.90  7.892  6.304  5.441  0.863  0.000  565.5  408.5  157.0    0.0
 1996 004   149  15.90  28.20  21.90  3.876  3.876  2.616  1.260  0.000  569.4  411.2  158.2    0.0
 1996 005   150  29.60  28.70  19.20  7.128  6.244  4.704  1.539  0.000  575.6  415.9  159.8    0.0
 1996 006   151  31.50  26.00  14.60  7.115  7.004  4.588  2.416  0.000  582.6  420.4  162.2    0.0
 1996 007   152  31.30  28.50  12.90  7.201  5.916  4.534  1.381  0.000  588.5  425.0  163.6    0.0
 1996 008   153  31.30  29.20  15.10  7.400  5.629  4.547  1.081  0.000  594.2  429.5  164.7    0.0
 1996 009   154  21.90  29.60  15.80  5.241  4.059  3.140  0.919  0.000  598.2  432.7  165.6    0.0
 1996 010   155  30.60  33.20  16.90  7.700  7.700  4.494  3.206  0.000  605.9  437.2  168.8    0.0
 1996 011   156   9.70  25.90  18.30  2.279  2.279  1.295  0.984  0.000  608.2  438.5  169.8    0.0
 1996 012   157  27.00  29.10  20.00  6.661  6.661  3.785  2.876  0.000  614.9  442.2  172.6    0.0
 1996 013   158  22.00  30.10  18.10  5.411  5.333  3.075  2.258  0.000  620.2  445.3  174.9    0.0
 1996 014   159  30.40  26.70  14.50  6.998  6.998  3.976  3.022  0.000  627.2  449.3  177.9    0.0
