*SOIL NITROGEN DAILY OUTPUT FILE

*DSSAT Cropping System Model Ver. 4.0.2.000               Jul 20, 2016; 10:59:46

*RUN   1        : UYMZ                    
 MODEL          : MZCER040 - Maize           
 EXPERIMENT     : UYMZ0051 MZ    late to create DSS                             
 TREATMENT  1   : UYMZ                    

@YEAR DOY   DAS  NAPC  NI#M    NLCC   NIAD    NOAD   NITD   NHTD  NI1D  NI2D  NI3D  NI4D  NI5D  NI6D  NI7D  NI8D  NI9D  NI10  NH1D  NH2D  NH3D  NH4D  NH5D  NH6D  NH7D  NH8D  NH9D  NH10    NMNC    NITC    NDNC    NIMC    AMLC
 1990 191     0     0     0     0.0   99.3   16646   76.4   22.8  16.0  15.2  15.1   8.6   4.6   0.0   0.1   0.1   0.0   0.0   0.6   1.3   1.5   1.4   1.4  1.50  1.46  1.45  0.00  0.00    0.52    1.62    0.00    0.00    0.00
 1990 192     1     0     0     0.0   99.8   16645   77.7   22.1  16.3  15.5  15.3   8.7   4.6   0.0   0.1   0.1   0.0   0.0   0.3   1.2   1.4   1.4   1.4  1.51  1.43  1.41  0.00  0.00    1.02    2.86    0.00    0.00    0.00
 1990 193     2     0     0     0.0  100.3   16645   78.8   21.5  16.5  15.6  15.4   8.8   4.7   0.1   0.1   0.2   0.0   0.0   0.2   1.1   1.4   1.3   1.4  1.51  1.40  1.37  0.00  0.00    1.53    3.94    0.00    0.00    0.00
 1990 194     3     0     0     0.0  100.8   16644   79.8   21.0  16.7  15.8  15.5   8.8   4.8   0.1   0.2   0.2   0.0   0.0   0.2   1.0   1.4   1.3   1.3  1.51  1.37  1.32  0.00  0.00    2.03    4.95    0.00    0.00    0.00
 1990 195     4     2     2     0.0  103.3   16644   80.7   22.5  16.8  16.0  15.6   8.9   4.8   0.1   0.2   0.2   0.0   0.0   3.7   0.9   1.4   1.3   1.3  1.51  1.33  1.28  0.00  0.00    2.54    5.91    0.00    0.00    0.04
 1990 196     5     2     2     0.0  103.7   16643   82.9   20.9  19.1  16.1  15.7   9.0   4.9   0.1   0.3   0.3   0.0   0.0   1.4   0.9   1.4   1.2   1.2  1.52  1.30  1.25  0.00  0.00    3.05    8.07    0.00    0.00    0.08
 1990 197     6     2     2     0.0  104.2   16642   84.3   20.0  20.0  16.3  15.9   9.1   4.9   0.1   0.3   0.3   0.0   0.0   0.5   0.8   1.3   1.2   1.2  1.52  1.27  1.21  0.00  0.00    3.59    9.47    0.00    0.00    0.11
 1990 198     7     2     2     0.0  104.7   16642   85.3   19.4  20.3  16.4  16.0   9.1   5.0   0.1   0.4   0.4   0.0   0.0   0.2   0.7   1.3   1.1   1.2  1.52  1.25  1.17  0.00  0.00    4.13   10.50    0.00    0.00    0.16
 1990 199     8     2     2     0.0  105.2   16641   86.2   19.0  20.4  16.5  16.1   9.2   5.0   0.2   0.4   0.4   0.0   0.0   0.0   0.7   1.3   1.1   1.1  1.53  1.22  1.14  0.00  0.00    4.66   11.38    0.00    0.00    0.22
 1990 200     9     2     2     0.0  105.7   16641   87.0   18.7  20.1  16.8  16.2   9.3   5.1   0.2   0.4   0.5   0.0   0.0   0.1   0.7   1.3   1.1   1.1  1.53  1.19  1.10  0.00  0.00    5.15   12.15    0.00    0.00    0.23
 1990 201    10     2     2     0.0  106.1   16640   87.7   18.4  20.0  17.0  16.3   9.3   5.1   0.2   0.5   0.5   0.0   0.0   0.1   0.6   1.3   1.0   1.1  1.53  1.17  1.07  0.00  0.00    5.59   12.86    0.00    0.00    0.24
 1990 202    11     2     2     0.0  106.5   16640   88.3   18.2  20.0  17.0  16.4   9.4   5.2   0.2   0.5   0.5   0.0   0.0   0.1   0.6   1.3   1.0   1.0  1.53  1.14  1.04  0.00  0.00    5.97   13.50    0.00    0.00    0.26
 1990 203    12     2     2     0.0  106.8   16640   88.9   17.9  20.1  17.1  16.5   9.4   5.2   0.2   0.5   0.6   0.0   0.0   0.0   0.6   1.3   1.0   1.0  1.54  1.12  1.01  0.00  0.00    6.32   14.09    0.00    0.00    0.27
 1990 204    13     2     2     0.0  107.1   16639   89.5   17.6  20.1  17.2  16.5   9.4   5.2   0.2   0.6   0.6   0.0   0.0   0.0   0.6   1.2   1.0   1.0  1.54  1.10  0.98  0.00  0.00    6.62   14.64    0.00    0.00    0.28
 1990 205    14     2     2     0.0  107.4   16639   90.0   17.4  20.1  17.2  16.6   9.5   5.3   0.3   0.6   0.6   0.0   0.0   0.0   0.5   1.2   0.9   1.0  1.54  1.08  0.96  0.00  0.00    6.93   15.18    0.00    0.00    0.28
 1990 206    15     2     2     0.0  107.7   16639   90.5   17.2  20.1  17.3  16.7   9.5   5.3   0.3   0.6   0.6   0.0   0.0   0.0   0.5   1.2   0.9   1.0  1.54  1.06  0.93  0.00  0.00    7.26   15.72    0.00    0.00    0.28
 1990 207    16     2     2     0.0  108.1   16638   91.1   17.0  20.2  17.3  16.8   9.6   5.3   0.3   0.7   0.7   0.0   0.0   0.1   0.5   1.2   0.9   0.9  1.54  1.04  0.91  0.00  0.00    7.59   16.26    0.00    0.00    0.28
 1990 208    17     2     2     0.0  108.4   16638   91.6   16.8  20.2  17.4  16.8   9.6   5.4   0.3   0.7   0.7   0.0   0.0   0.1   0.5   1.2   0.9   0.9  1.55  1.02  0.88  0.00  0.00    7.93   16.80    0.00    0.00    0.28
 1990 209    18     2     2     0.0  108.8   16638   92.2   16.6  20.2  17.4  16.9   9.6   5.4   0.3   0.7   0.7   0.0   0.0   0.1   0.5   1.2   0.9   0.9  1.55  1.00  0.86  0.00  0.00    8.32   17.36    0.00    0.00    0.28
 1990 210    19     2     2     0.0  109.2   16637   92.7   16.4  20.3  17.5  17.0   9.7   5.4   0.3   0.7   0.8   0.0   0.0   0.1   0.5   1.2   0.9   0.9  1.55  0.98  0.83  0.00  0.00    8.69   17.91    0.00    0.00    0.29
 1990 211    20     2     2     0.0  109.5   16637   93.3   16.3  20.3  17.5  17.1   9.7   5.5   0.4   0.8   0.8   0.0   0.0   0.1   0.5   1.2   0.8   0.9  1.55  0.96  0.81  0.00  0.00    9.05   18.45    0.00    0.00    0.29
 1990 212    21     2     2     0.0  109.9   16637   93.8   16.1  20.4  17.6  17.2   9.7   5.5   0.4   0.8   0.8   0.0   0.0   0.1   0.5   1.1   0.8   0.9  1.55  0.95  0.79  0.00  0.00    9.44   18.99    0.00    0.00    0.29
 1990 213    22     2     2     0.0  110.3   16636   94.3   16.0  20.5  17.6  17.2   9.8   5.5   0.4   0.8   0.8   0.0   0.0   0.1   0.5   1.1   0.8   0.8  1.56  0.93  0.77  0.00  0.00    9.83   19.53    0.00    0.00    0.29
 1990 214    23     2     2     0.0  110.7   16636   94.9   15.8  20.5  17.7  17.3   9.8   5.6   0.4   0.9   0.9   0.0   0.0   0.1   0.5   1.1   0.8   0.8  1.56  0.91  0.75  0.00  0.00   10.23   20.07    0.00    0.00    0.29
 1990 215    24     2     2     0.0  111.1   16635   95.5   15.7  20.6  17.7  17.4   9.9   5.6   0.4   0.9   0.9   0.0   0.0   0.1   0.5   1.1   0.8   0.8  1.56  0.90  0.73  0.00  0.00   10.67   20.64    0.00    0.00    0.29
 1990 216    25     2     2     0.0  111.6   16635   96.1   15.6  20.7  17.8  17.5   9.9   5.6   0.4   0.9   0.9   0.0   0.0   0.1   0.5   1.1   0.8   0.8  1.56  0.88  0.71  0.00  0.00   11.15   21.24    0.00    0.00    0.29
 1990 217    26     2     2     0.0  112.1   16634   96.7   15.4  20.8  17.9  17.6   9.9   5.7   0.5   0.9   0.9   0.0   0.0   0.1   0.5   1.1   0.8   0.8  1.56  0.86  0.69  0.00  0.00   11.67   21.87    0.00    0.00    0.30
 1990 218    27     2     2     0.0  112.7   16634   97.4   15.3  20.9  18.0  17.7  10.0   5.7   0.5   1.0   1.0   0.0   0.0   0.1   0.5   1.1   0.8   0.8  1.57  0.85  0.67  0.00  0.00   12.25   22.57    0.00    0.00    0.30
 1990 219    28     2     2     0.0  113.3   16633   98.1   15.2  21.1  18.1  17.8  10.0   5.7   0.5   1.0   1.0   0.0   0.0   0.1   0.5   1.1   0.7   0.8  1.57  0.83  0.65  0.00  0.00   12.87   23.30    0.00    0.00    0.30
 1990 220    29     2     2     0.0  114.0   16633   98.9   15.1  21.2  18.2  17.9  10.1   5.8   0.5   1.0   1.0   0.0   0.0   0.1   0.5   1.1   0.7   0.7  1.57  0.82  0.63  0.00  0.00   13.52   24.07    0.00    0.00    0.30
 1990 221    30     2     2     0.0  114.5   16632   99.5   15.0  21.4  18.1  18.1  10.1   5.8   0.5   1.0   1.0   0.0   0.0   0.1   0.5   1.1   0.7   0.7  1.57  0.80  0.61  0.00  0.00   14.20   24.86    0.00    0.00    0.30
 1990 222    31     2     2     0.0  115.1   16631  100.3   14.9  21.5  18.2  18.2  10.2   5.8   0.5   1.1   1.1   0.0   0.0   0.1   0.5   1.1   0.7   0.7  1.58  0.79  0.60  0.00  0.00   14.87   25.64    0.00    0.00    0.30
 1990 223    32     2     2     0.0  115.7   16631  101.0   14.7  21.7  18.3  18.3  10.2   5.9   0.6   1.1   1.1   0.0   0.0   0.0   0.4   1.1   0.7   0.7  1.58  0.77  0.58  0.00  0.00   15.42   26.40    0.00    0.00    0.30
 1990 224    33     2     2     0.0  116.2   16630  101.7   14.5  21.8  18.4  18.4  10.3   5.9   0.6   1.1   1.1   0.0   0.0   0.0   0.4   1.1   0.7   0.7  1.58  0.76  0.57  0.00  0.00   15.97   27.11    0.00    0.00    0.31
 1990 225    34     2     2     0.0  116.8   16630  102.4   14.4  21.8  18.5  18.5  10.3   5.9   0.6   1.1   1.1   0.0   0.0   0.0   0.3   1.1   0.7   0.7  1.58  0.75  0.55  0.00  0.00   16.53   27.81    0.00    0.00    0.31
 1990 226    35     2     2     0.0  117.3   16629  103.1   14.2  21.9  18.6  18.7  10.4   6.0   0.6   1.2   1.1   0.0   0.0   0.0   0.3   1.1   0.7   0.7  1.58  0.73  0.53  0.00  0.00   17.09   28.50    0.00    0.00    0.31
 1990 227    36     2     2     0.0  117.9   16628  103.8   14.1  11.2  24.1  18.8  10.4   6.0   0.6   1.2   1.2   0.0   0.0   0.0   0.3   1.1   0.7   0.7  1.59  0.72  0.52  0.00  0.00   17.66   29.19    0.00    0.00    0.31
 1990 228    37     2     2     0.0  118.6   16628  104.4   14.1  10.5  24.3  19.1  10.5   6.1   0.7   1.2   1.2   0.0   0.0   0.1   0.3   1.1   0.7   0.7  1.59  0.71  0.51  0.00  0.00   18.34   29.83    0.00    0.00    0.31
 1990 229    38     2     2     0.0  119.1   16627  105.1   14.0  10.6  24.2  19.3  10.5   6.1   0.7   1.2   1.2   0.0   0.0   0.1   0.4   1.1   0.6   0.7  1.59  0.70  0.49  0.00  0.00   18.91   30.52    0.00    0.00    0.31
 1990 230    39     2     2     0.0  119.6   16627  105.7   13.9  10.7  24.1  19.5  10.5   6.1   0.7   1.3   1.2   0.0   0.0   0.1   0.4   1.0   0.6   0.7  1.59  0.69  0.48  0.00  0.00   19.43   31.17    0.00    0.00    0.32
 1990 231    40     2     2     0.0  119.9   16626  106.2   13.8  10.8  24.0  19.7  10.6   6.1   0.7   1.3   1.2   0.0   0.0   0.1   0.4   1.0   0.6   0.6  1.60  0.68  0.47  0.00  0.00   19.92   31.76    0.00    0.00    0.32
 1990 232    41     2     2     0.0  120.2   16626  106.5   13.7  10.8  23.9  19.8  10.6   6.2   0.7   1.3   1.2   0.0   0.0   0.1   0.4   1.0   0.6   0.6  1.60  0.67  0.46  0.00  0.00   20.38   32.32    0.00    0.00    0.32
 1990 233    42     2     2     0.0  120.3   16625  106.8   13.6  10.8  23.7  19.9  10.6   6.2   0.8   1.3   1.3   0.0   0.0   0.1   0.4   0.9   0.6   0.6  1.60  0.66  0.45  0.00  0.00   20.85   32.90    0.00    0.00    0.32
 1990 234    43     2     2     0.0  120.5   16625  107.0   13.5  10.9  23.6  19.9  10.7   6.2   0.8   1.3   1.3   0.0   0.0   0.1   0.4   0.9   0.6   0.6  1.60  0.65  0.44  0.00  0.00   21.33   33.47    0.00    0.00    0.32
 1990 235    44     2     2     0.0  120.6   16624  107.2   13.4  11.0  23.5  19.9  10.7   6.3   0.8   1.4   1.3   0.0   0.0   0.1   0.4   0.9   0.6   0.6  1.60  0.64  0.43  0.00  0.00   21.79   34.02    0.00    0.00    0.33
 1990 236    45     2     2     0.0  120.6   16624  107.4   13.3  11.0  23.4  19.9  10.7   6.3   0.8   1.4   1.3   0.0   0.0   0.1   0.4   0.9   0.6   0.6  1.60  0.63  0.42  0.00  0.00   22.22   34.55    0.00    0.00    0.33
 1990 237    46     2     2     0.0  121.0   16623  107.8   13.2  11.1  23.4  19.9  10.8   6.3   0.8   1.4   1.3   0.0   0.0   0.1   0.4   0.9   0.6   0.6  1.61  0.62  0.41  0.00  0.00   22.64   35.05    0.00    0.00    0.33
 1990 238    47     2     2     0.0  121.2   16623  108.1   13.1  11.1  23.4  20.0  10.8   6.3   0.8   1.4   1.3   0.0   0.0   0.1   0.4   0.9   0.6   0.6  1.61  0.61  0.40  0.00  0.00   23.07   35.55    0.00    0.00    0.33
 1990 239    48     2     2     0.0  121.1   16623  108.1   13.0   3.9  20.4  24.2  10.8   6.4   0.9   1.4   1.3   0.0   0.0   0.1   0.4   0.8   0.6   0.6  1.61  0.60  0.39  0.00  0.00   23.50   36.07    0.00    0.00    0.33
 1990 240    49     2     2     0.0  121.1   16622  107.9   13.1   3.7  19.6  24.4  11.0   6.4   0.9   1.5   1.4   0.0   0.0   0.1   0.4   0.9   0.6   0.6  1.61  0.60  0.38  0.00  0.00   24.05   36.48    0.00    0.00    0.33
 1990 241    50     2     2     0.0  120.9   16621  107.7   13.2   3.8  19.1  24.4  11.1   6.4   0.9   1.5   1.4   0.0   0.0   0.1   0.5   0.9   0.6   0.6  1.61  0.59  0.37  0.00  0.00   24.58   36.94    0.00    0.00    0.34
 1990 242    51     2     2     0.0  121.4   16621  108.3   13.2   3.9  19.2  24.4  11.2   6.4   0.9   1.5   1.4   0.0   0.0   0.1   0.5   0.9   0.6   0.6  1.61  0.58  0.36  0.00  0.00   25.09   37.47    0.00    0.00    0.34
 1990 243    52     2     2     0.0  121.9   16620  108.8   13.2   4.0  19.3  24.3  11.3   6.5   0.9   1.5   1.4   0.0   0.0   0.1   0.5   0.9   0.6   0.6  1.62  0.58  0.36  0.00  0.00   25.59   37.97    0.00    0.00    0.34
 1990 244    53     2     2     0.0  122.3   16620  109.2   13.1   4.1  19.3  24.3  11.4   6.5   1.0   1.5   1.4   0.0   0.0   0.1   0.5   0.9   0.6   0.6  1.62  0.57  0.35  0.00  0.00   26.02   38.43    0.00    0.00    0.35
 1990 245    54     2     2     0.0  122.6   16620  109.5   13.1   4.1  19.3  24.2  11.5   6.5   1.0   1.5   1.4   0.0   0.0   0.1   0.5   0.9   0.6   0.6  1.62  0.56  0.34  0.00  0.00   26.42   38.86    0.00    0.00    0.35
 1990 246    55     2     2     0.0  123.0   16619  109.9   13.1   4.2  19.4  24.2  11.6   6.5   1.0   1.6   1.4   0.0   0.0   0.1   0.5   0.9   0.6   0.6  1.62  0.56  0.33  0.00  0.00   26.82   39.29    0.00    0.00    0.35
 1990 247    56     2     2     0.0  123.4   16619  110.3   13.1   4.4  19.4  24.2  11.7   6.5   1.0   1.6   1.4   0.0   0.0   0.1   0.5   0.9   0.6   0.6  1.62  0.55  0.33  0.00  0.00   27.23   39.73    0.00    0.00    0.35
 1990 248    57     2     2     0.0  123.7   16618  110.7   13.0   4.5  19.3  24.2  11.8   6.6   1.0   1.6   1.4   0.0   0.0   0.1   0.5   0.9   0.6   0.6  1.62  0.55  0.32  0.00  0.00   27.61   40.14    0.00    0.00    0.36
 1990 249    58     2     2     0.0  123.9   16618  110.9   13.0   4.7  19.3  24.1  11.9   6.6   1.0   1.6   1.5   0.0   0.0   0.1   0.5   1.0   0.6   0.6  1.62  0.54  0.32  0.00  0.00   28.02   40.57    0.00    0.00    0.36
 1990 250    59     2     2     0.0  124.3   16618  111.3   13.0   4.6  19.4  24.1  12.0   6.6   1.1   1.6   1.5   0.0   0.0   0.1   0.5   1.0   0.6   0.6  1.63  0.54  0.31  0.00  0.00   28.47   41.03    0.00    0.00    0.36
 1990 251    60     2     2     0.0  124.7   16617  111.7   13.0   2.6  17.1  26.2  12.1   6.6   1.1   1.6   1.5   0.0   0.0   0.2   0.5   1.0   0.6   0.6  1.63  0.53  0.30  0.00  0.00   28.94   41.48    0.00    0.00    0.36
 1990 252    61     2     2     0.0  125.0   16617  111.9   13.1   2.7  16.7  25.7  12.8   6.6   1.1   1.7   1.5   0.0   0.0   0.1   0.5   1.0   0.6   0.6  1.63  0.52  0.30  0.00  0.00   29.40   41.81    0.00    0.00    0.36
 1990 253    62     2     2     0.0  125.4   16616  112.2   13.2   3.0  16.4  25.7  13.0   6.7   1.1   1.7   1.5   0.0   0.0   0.1   0.6   1.0   0.6   0.6  1.63  0.52  0.29  0.00  0.00   29.90   42.26    0.00    0.00    0.37
 1990 254    63     2     2     0.0  125.2   16616  112.1   13.1   2.0  13.2  24.9  15.4   7.1   1.1   1.7   1.5   0.0   0.0   0.1   0.6   1.0   0.6   0.6  1.63  0.51  0.29  0.00  0.00   30.45   42.83    0.00    0.00    0.37
 1990 255    64     2     2     0.0  125.1   16615  111.6   13.4   2.0  12.9  24.1  15.2   7.8   1.1   1.7   1.5   0.0   0.0   0.2   0.7   1.1   0.6   0.6  1.63  0.51  0.28  0.00  0.00   31.03   43.10    0.00    0.00    0.37
 1990 256    65     2     2     0.0  124.9   16614  111.3   13.6   2.2  12.6  23.6  15.1   8.2   1.2   1.7   1.5   0.0   0.0   0.1   0.7   1.2   0.6   0.6  1.63  0.51  0.28  0.00  0.00   31.59   43.45    0.00    0.00    0.38
 1990 257    66     2     2     0.0  124.7   16614  111.0   13.7   2.6  12.4  23.2  15.1   8.3   1.2   1.7   1.5   0.0   0.0   0.1   0.7   1.2   0.7   0.6  1.63  0.50  0.27  0.00  0.00   32.14   43.91    0.00    0.00    0.38
 1990 258    67     2     2     0.0  124.7   16613  111.0   13.6   3.0  12.2  23.1  15.1   8.3   1.2   1.7   1.5   0.0   0.0   0.1   0.7   1.2   0.7   0.6  1.64  0.50  0.27  0.00  0.00   32.65   44.45    0.00    0.00    0.39
 1990 259    68     2     2     0.0  124.3   16613  110.7   13.6   3.3  12.1  22.8  15.1   8.3   1.2   1.8   1.5   0.0   0.0   0.1   0.6   1.2   0.7   0.6  1.64  0.49  0.26  0.00  0.00   33.12   44.94    0.01    0.00    0.39
 1990 260    69     2     2     0.0  123.5   16612  109.9   13.6   3.6  11.8  22.3  15.0   8.4   1.2   1.8   1.6   0.0   0.0   0.1   0.6   1.2   0.7   0.6  1.64  0.49  0.26  0.00  0.00   33.58   45.41    0.01    0.00    0.39
 1990 261    70     2     2     0.0  123.1   16612  109.6   13.5   2.0   9.1  20.9  16.1   9.8   1.5   1.8   1.6   0.0   0.0   0.1   0.6   1.2   0.7   0.6  1.64  0.48  0.25  0.00  0.00   34.06   45.95    0.01    0.00    0.39
 1990 262    71     2     2     0.2  122.7   16611  108.9   13.8   1.9   8.8  20.1  15.7   9.9   1.9   1.8   1.6   0.0   0.0   0.2   0.7   1.2   0.7   0.6  1.64  0.48  0.25  0.00  0.00   34.56   46.14    0.01    0.00    0.40
 1990 263    72     2     2     0.4  121.7   16611  107.7   14.0   2.0   8.5  19.4  15.3   9.9   2.1   1.8   1.6   0.0   0.0   0.1   0.7   1.3   0.8   0.6  1.64  0.49  0.25  0.00  0.00   35.08   46.39    0.01    0.00    0.40
 1990 264    73     2     2     0.5  122.1   16610  107.9   14.2   2.3   8.6  19.4  15.2   9.9   2.2   1.8   1.6   0.0   0.0   0.1   0.7   1.4   0.8   0.6  1.66  0.49  0.25  0.00  0.00   35.61   46.70    0.01    0.00    0.40
 1990 265    74     2     2     0.5  122.3   16610  108.1   14.3   2.5   8.6  19.4  15.1   9.9   2.2   1.9   1.6   0.0   0.0   0.1   0.6   1.3   0.8   0.7  1.67  0.50  0.25  0.00  0.00   36.13   47.13    0.01    0.00    0.41
 1990 266    75     2     2     0.5  120.2   16609  105.9   14.3   2.7   8.2  18.5  14.9   9.8   2.2   1.9   1.6   0.0   0.0   0.1   0.6   1.3   0.8   0.7  1.68  0.50  0.25  0.00  0.00   36.65   47.57    0.03    0.00    0.41
 1990 267    76     2     2     0.5  120.0   16609  105.6   14.4   2.9   8.1  18.3  14.8   9.9   2.3   1.9   1.6   0.0   0.0   0.1   0.6   1.3   0.8   0.7  1.70  0.51  0.25  0.00  0.00   37.16   47.97    0.04    0.00    0.41
 1990 268    77     2     2     0.5  119.9   16608  105.5   14.4   3.1   8.1  18.1  14.8   9.9   2.3   1.9   1.6   0.0   0.0   0.1   0.6   1.2   0.8   0.7  1.71  0.52  0.25  0.00  0.00   37.66   48.42    0.05    0.00    0.42
 1990 269    78     2     2     0.5  119.7   16608  105.3   14.4   3.3   8.1  17.9  14.8   9.9   2.3   1.9   1.6   0.0   0.0   0.1   0.6   1.2   0.8   0.7  1.72  0.52  0.25  0.00  0.00   38.14   48.86    0.05    0.00    0.42
 1990 270    79     2     2     0.5  119.2   16607  104.7   14.4   3.4   8.0  17.7  14.7   9.9   2.3   1.9   1.6   0.0   0.0   0.1   0.6   1.2   0.8   0.7  1.74  0.53  0.25  0.00  0.00   38.63   49.30    0.06    0.00    0.42
 1990 271    80     2     2     0.5  117.9   16607  103.4   14.4   3.5   7.9  17.1  14.6   9.9   2.3   1.9   1.6   0.0   0.0   0.1   0.5   1.2   0.8   0.8  1.75  0.53  0.26  0.00  0.00   39.13   49.74    0.06    0.00    0.42
 1990 272    81     2     2     0.5  117.5   16606  103.0   14.5   3.7   7.8  16.9  14.5   9.9   2.3   1.9   1.6   0.0   0.0   0.1   0.5   1.2   0.8   0.8  1.76  0.54  0.26  0.00  0.00   39.67   50.21    0.06    0.00    0.43
 1990 273    82     2     2     0.5  115.5   16606  101.0   14.5   3.7   7.6  16.1  14.3   9.9   2.3   1.9   1.6   0.0   0.0   0.1   0.5   1.1   0.7   0.8  1.78  0.54  0.26  0.00  0.00   40.23   50.70    0.07    0.00    0.43
 1990 274    83     2     2     0.5  113.9   16605   99.4   14.5   3.7   7.4  15.5  14.0   9.8   2.3   1.9   1.7   0.0   0.0   0.1   0.5   1.1   0.7   0.8  1.79  0.55  0.26  0.00  0.00   40.83   51.23    0.07    0.00    0.43
 1990 275    84     2     2     0.5  111.4   16605   97.0   14.4   3.7   7.1  14.6  13.8   9.8   2.3   1.9   1.7   0.0   0.0   0.1   0.5   1.1   0.7   0.8  1.79  0.55  0.26  0.00  0.00   41.46   51.91    0.07    0.00    0.43
 1990 276    85     2     2     0.5  108.5   16604   94.2   14.2   3.6   6.7  13.7  13.4   9.7   2.3   1.9   1.7   0.0   0.0   0.1   0.5   1.0   0.7   0.8  1.79  0.56  0.26  0.00  0.00   42.08   52.57    0.07    0.00    0.44
 1990 277    86     2     2     0.5  105.5   16603   91.4   14.1   3.5   6.4  12.7  13.1   9.5   2.4   1.9   1.7   0.0   0.0   0.1   0.4   1.0   0.7   0.8  1.79  0.56  0.26  0.00  0.00   42.71   53.26    0.07    0.00    0.44
 1990 278    87     2     2     0.5  102.0   16603   88.1   13.9   3.4   6.0  11.7  12.6   9.3   2.4   1.9   1.7   0.0   0.0   0.1   0.4   0.9   0.7   0.7  1.79  0.57  0.26  0.00  0.00   43.37   53.97    0.07    0.00    0.44
 1990 279    88     2     2     0.5  100.7   16602   86.8   13.9   1.9   6.2  11.5  12.5   9.2   2.4   1.9   1.7   0.0   0.0   0.1   0.4   0.9   0.6   0.7  1.79  0.57  0.26  0.00  0.00   44.00   54.64    0.07    0.00    0.44
 1990 280    89     2     2     0.5   98.0   16601   84.1   14.0   1.5   5.6  11.0  12.1   9.0   2.4   1.9   1.7   0.0   0.0   0.2   0.5   0.9   0.6   0.7  1.79  0.58  0.27  0.00  0.00   44.67   55.11    0.07    0.00    0.45
 1990 281    90     2     2     0.6   96.2   16601   82.1   14.1   0.6   3.4   8.7  11.3  10.2   3.3   2.1   1.7   0.0   0.0   0.3   0.6   0.9   0.6   0.7  1.79  0.59  0.27  0.00  0.00   45.35   55.59    0.07    0.00    0.45
 1990 282    91     2     2     1.2   93.0   16600   78.5   14.5   0.6   3.0   7.9  10.4   9.6   3.5   2.2   1.7   0.0   0.0   0.3   0.7   1.0   0.7   0.7  1.80  0.59  0.27  0.00  0.00   45.97   55.73    0.08    0.00    0.45
 1990 283    92     2     2     1.5   88.5   16600   73.9   14.6   0.8   2.6   6.8   9.6   9.0   3.5   2.2   1.8   0.0   0.0   0.1   0.7   1.0   0.7   0.7  1.82  0.60  0.27  0.00  0.00   46.58   56.05    0.08    0.00    0.46
 1990 284    93     2     2     1.7   85.4   16599   70.9   14.5   0.9   2.4   6.0   9.1   8.6   3.5   2.3   1.8   0.0   0.0   0.1   0.7   0.9   0.7   0.7  1.83  0.60  0.27  0.00  0.00   47.19   56.54    0.09    0.00    0.47
 1990 285    94     2     2     1.8   83.7   16598   69.1   14.6   0.4   1.6   4.7   7.8   8.6   4.2   2.6   1.9   0.0   0.0   0.1   0.6   0.9   0.7   0.7  1.84  0.61  0.27  0.00  0.00   47.80   56.99    0.09    0.00    0.47
 1990 286    95     2     2     2.5   77.7   16598   63.0   14.7   0.3   1.3   3.6   6.8   7.6   4.2   2.7   1.9   0.0   0.0   0.2   0.7   0.9   0.7   0.7  1.83  0.62  0.27  0.00  0.00   48.40   57.11    0.29    0.00    0.47
 1990 287    96     2     2     2.9   73.8   16597   59.3   14.5   0.5   1.2   3.0   6.2   7.0   4.0   2.7   2.0   0.0   0.0   0.1   0.6   0.9   0.7   0.8  1.82  0.62  0.27  0.00  0.00   49.01   57.60    0.39    0.00    0.47
 1990 288    97     2     2     3.1   69.9   16597   55.7   14.2   0.5   1.1   2.5   5.7   6.5   3.9   2.7   2.0   0.0   0.0   0.1   0.6   0.8   0.7   0.8  1.78  0.63  0.28  0.00  0.00   49.62   58.10    0.43    0.00    0.48
 1990 289    98     2     2     3.2   66.1   16596   52.3   13.8   0.5   1.0   2.0   5.3   6.1   3.7   2.7   2.0   0.0   0.0   0.1   0.5   0.8   0.7   0.7  1.73  0.63  0.28  0.00  0.00   50.23   58.62    0.45    0.00    0.48
 1990 290    99     2     2     3.2   62.7   16595   49.3   13.5   0.5   0.9   1.6   4.9   5.7   3.5   2.7   2.0   0.0   0.0   0.1   0.5   0.7   0.7   0.7  1.68  0.64  0.28  0.00  0.00   50.83   59.13    0.46    0.00    0.49
 1990 291   100     2     2     3.2   61.2   16595   47.9   13.3   0.6   0.9   1.5   4.7   5.5   3.4   2.7   2.0   0.0   0.0   0.1   0.5   0.8   0.6   0.7  1.66  0.64  0.28  0.00  0.00   51.43   59.63    0.46    0.00    0.49
 1990 292   101     2     2     3.2   55.8   16594   43.1   12.7   0.4   0.7   1.0   4.1   4.8   3.0   2.7   2.0   0.0   0.0   0.1   0.5   0.7   0.6   0.7  1.56  0.65  0.28  0.00  0.00   52.05   60.14    0.47    0.00    0.49
 1990 293   102     2     2     3.2   52.1   16594   39.7   12.4   0.3   0.6   0.8   3.6   4.3   2.8   2.7   2.0   0.0   0.0   0.2   0.5   0.7   0.6   0.6  1.48  0.65  0.28  0.00  0.00   52.67   60.57    0.47    0.00    0.49
 1990 294   103     2     2     3.2   47.8   16593   35.9   11.9   0.5   0.4   0.5   3.1   3.7   2.5   2.7   2.0   0.0   0.0   0.1   0.6   0.6   0.6   0.6  1.38  0.66  0.28  0.00  0.00   53.31   61.07    0.47    0.00    0.50
 1990 295   104     2     2     3.2   42.4   16592   31.3   11.1   0.4   0.4   0.3   2.4   3.0   2.1   2.7   2.0   0.0   0.0   0.1   0.5   0.6   0.6   0.6  1.24  0.66  0.28  0.00  0.00   53.97   61.64    0.47    0.00    0.50
 1990 296   105     2     2     3.2   38.0   16592   27.5   10.5   0.4   0.4   0.3   1.8   2.4   1.7   2.7   2.0   0.0   0.0   0.1   0.5   0.6   0.5   0.6  1.12  0.67  0.28  0.00  0.00   54.64   62.19    0.48    0.00    0.50
 1990 297   106     2     2     3.2   34.6   16591   24.6   10.0   0.4   0.4   0.3   1.4   1.9   1.4   2.7   2.0   0.0   0.0   0.1   0.5   0.6   0.5   0.5  1.01  0.67  0.28  0.00  0.00   55.31   62.73    0.48    0.00    0.51
 1990 298   107     2     2     3.2   31.9   16590   22.3    9.7   0.4   0.4   0.3   1.1   1.5   1.2   2.7   2.0   0.0   0.0   0.1   0.5   0.6   0.5   0.5  0.93  0.67  0.28  0.00  0.00   55.97   63.26    0.48    0.00    0.51
 1990 299   108     2     2     3.2   29.8   16590   20.4    9.4   0.4   0.4   0.3   0.9   1.2   1.0   2.7   2.0   0.0   0.0   0.1   0.5   0.6   0.5   0.5  0.86  0.68  0.28  0.00  0.00   56.61   63.78    0.48    0.00    0.51
 1990 300   109     2     2     3.2   28.1   16589   19.0    9.1   0.4   0.4   0.3   0.7   0.9   0.8   2.7   2.0   0.0   0.0   0.1   0.5   0.6   0.5   0.5  0.81  0.68  0.29  0.00  0.00   57.25   64.30    0.48    0.00    0.51
 1990 301   110     2     2     3.2   26.8   16589   17.9    8.9   0.4   0.4   0.3   0.5   0.8   0.7   2.7   2.0   0.0   0.0   0.1   0.5   0.6   0.5   0.5  0.77  0.69  0.29  0.00  0.00   57.88   64.83    0.49    0.00    0.52
 1990 302   111     2     2     3.2   25.7   16588   17.0    8.7   0.4   0.4   0.3   0.4   0.6   0.6   2.7   2.0   0.0   0.0   0.1   0.5   0.6   0.5   0.5  0.73  0.69  0.29  0.00  0.00   58.49   65.34    0.49    0.00    0.52
 1990 303   112     2     2     3.2   24.9   16587   16.2    8.7   0.1   0.4   0.4   0.4   0.5   0.5   2.8   2.0   0.0   0.0   0.2   0.4   0.6   0.5   0.5  0.70  0.70  0.29  0.00  0.00   59.12   65.80    0.49    0.00    0.52
 1990 304   113     2     2     3.2   24.3   16587   15.7    8.7   0.4   0.3   0.3   0.3   0.4   0.4   2.8   2.0   0.0   0.0   0.1   0.6   0.6   0.5   0.5  0.68  0.70  0.29  0.00  0.00   59.83   66.30    0.49    0.00    0.52
 1990 305   114     2     2     3.2   23.9   16586   15.3    8.5   0.3   0.4   0.3   0.3   0.4   0.3   2.8   2.0   0.0   0.0   0.1   0.5   0.6   0.5   0.5  0.66  0.70  0.29  0.00  0.00   60.54   66.85    0.49    0.00    0.53
 1990 306   115     2     2     3.2   23.5   16585   15.0    8.5   0.3   0.4   0.3   0.3   0.3   0.3   2.8   2.0   0.0   0.0   0.2   0.5   0.6   0.5   0.5  0.65  0.71  0.29  0.00  0.00   61.22   67.32    0.49    0.00    0.53
 1990 307   116     2     2     3.2   23.4   16585   15.0    8.3   0.6   0.4   0.3   0.3   0.3   0.3   2.8   2.0   0.0   0.0   0.1   0.5   0.6   0.5   0.5  0.63  0.70  0.29  0.00  0.00   61.91   67.99    0.49    0.00    0.53
 1990 308   117     2     2     3.2   22.6   16584   14.4    8.2   0.1   0.4   0.4   0.3   0.3   0.3   2.6   2.0   0.0   0.0   0.1   0.5   0.6   0.5   0.5  0.62  0.67  0.29  0.00  0.00   62.60   68.55    0.49    0.00    0.53
 1990 309   118     2     2     3.2   21.9   16583   13.5    8.5   0.1   0.3   0.3   0.3   0.3   0.3   2.4   2.0   0.0   0.0   0.2   0.6   0.7   0.5   0.5  0.61  0.64  0.29  0.00  0.00   63.29   68.82    0.49    0.00    0.53
 1990 310   119     2     2     3.2   21.3   16583   13.1    8.2   0.3   0.4   0.3   0.3   0.3   0.3   2.1   2.0   0.0   0.0   0.1   0.5   0.7   0.5   0.5  0.60  0.62  0.29  0.00  0.00   63.95   69.37    0.49    0.00    0.54
 1990 311   120     2     2     3.2   20.6   16582   12.6    8.1   0.4   0.4   0.3   0.3   0.3   0.3   1.8   2.0   0.0   0.0   0.1   0.5   0.6   0.5   0.5  0.60  0.59  0.29  0.00  0.00   64.60   69.89    0.49    0.00    0.54
 1990 312   121     2     2     3.2   20.0   16581   12.0    8.0   0.3   0.4   0.3   0.3   0.3   0.3   1.6   2.1   0.0   0.0   0.2   0.5   0.6   0.5   0.5  0.59  0.57  0.29  0.00  0.00   65.23   70.34    0.49    0.00    0.54
 1990 313   122     2     2     3.2   19.5   16581   11.6    7.9   0.4   0.4   0.3   0.3   0.3   0.3   1.4   2.1   0.0   0.0   0.1   0.5   0.6   0.5   0.5  0.59  0.56  0.30  0.00  0.00   65.81   70.83    0.49    0.00    0.54
 1990 314   123     2     2     3.2   19.0   16580   11.1    7.8   0.4   0.4   0.3   0.3   0.3   0.3   1.3   2.1   0.0   0.0   0.1   0.5   0.6   0.5   0.5  0.58  0.55  0.30  0.00  0.00   66.38   71.29    0.50    0.00    0.54
 1990 315   124     2     2     3.2   18.6   16580   10.8    7.8   0.4   0.4   0.3   0.3   0.3   0.3   1.1   2.1   0.0   0.0   0.1   0.5   0.6   0.5   0.5  0.58  0.53  0.30  0.00  0.00   66.98   71.75    0.50    0.00    0.55
 1990 316   125     2     2     3.2   18.3   16579   10.5    7.8   0.4   0.4   0.3   0.3   0.3   0.3   1.0   2.1   0.0   0.0   0.1   0.5   0.6   0.5   0.5  0.57  0.52  0.30  0.00  0.00   67.60   72.25    0.50    0.00    0.55
 1990 317   126     2     2     3.2   18.0   16579   10.3    7.7   0.4   0.4   0.3   0.3   0.3   0.3   0.9   2.1   0.0   0.0   0.1   0.5   0.6   0.5   0.5  0.57  0.52  0.30  0.00  0.00   68.23   72.74    0.50    0.00    0.55
 1990 318   127     2     2     3.2   17.8   16578   10.1    7.7   0.4   0.4   0.3   0.3   0.3   0.3   0.8   2.1   0.0   0.0   0.1   0.5   0.6   0.5   0.5  0.57  0.51  0.29  0.00  0.00   68.92   73.33    0.50    0.00    0.55
 1990 319   128     2     2     3.2   17.6   16577   10.0    7.6   0.4   0.4   0.3   0.3   0.3   0.3   0.7   2.1   0.0   0.0   0.1   0.5   0.6   0.5   0.5  0.57  0.50  0.29  0.00  0.00   69.66   73.96    0.50    0.00    0.55
 1990 320   129     2     2     3.2   17.4   16577    9.8    7.6   0.1   0.3   0.4   0.3   0.4   0.3   0.6   2.1   0.0   0.0   0.1   0.5   0.6   0.5   0.5  0.57  0.50  0.28  0.00  0.00   70.39   74.58    0.50    0.00    0.56
 1990 321   130     2     2     3.2   17.3   16576    9.3    8.0   0.2   0.3   0.3   0.3   0.3   0.3   0.6   2.1   0.0   0.0   0.2   0.6   0.7   0.5   0.5  0.57  0.49  0.28  0.00  0.00   71.13   74.75    0.50    0.00    0.56
 1990 322   131     2     2     3.2   17.4   16575    9.3    8.1   0.5   0.3   0.3   0.3   0.3   0.3   0.5   2.1   0.0   0.0   0.1   0.7   0.7   0.6   0.5  0.57  0.48  0.27  0.00  0.00   71.91   75.15    0.50    0.00    0.56
 1990 323   132     2     2     3.2   17.3   16574    9.5    7.8   0.3   0.5   0.3   0.3   0.3   0.3   0.5   2.1   0.0   0.0   0.1   0.5   0.6   0.6   0.5  0.57  0.48  0.27  0.00  0.00   72.66   75.79    0.50    0.00    0.56
 1990 324   133     2     2     3.2   17.0   16574    9.3    7.7   0.4   0.4   0.3   0.3   0.3   0.3   0.4   2.1   0.0   0.0   0.1   0.5   0.6   0.5   0.5  0.57  0.47  0.26  0.00  0.00   73.42   76.42    0.50    0.00    0.57
 1990 325   134     2     2     3.2   16.7   16573    9.0    7.7   0.4   0.4   0.3   0.3   0.3   0.3   0.4   2.0   0.0   0.0   0.1   0.5   0.6   0.5   0.5  0.57  0.47  0.26  0.00  0.00   74.20   77.05    0.50    0.00    0.57
 1990 326   135     2     2     3.2   16.4   16572    8.8    7.6   0.4   0.4   0.3   0.3   0.3   0.3   0.3   1.9   0.0   0.0   0.1   0.5   0.6   0.5   0.5  0.57  0.46  0.25  0.00  0.00   75.02   77.72    0.50    0.00    0.57
 1990 327   136     2     2     3.2   16.0   16571    8.5    7.6   0.4   0.4   0.3   0.3   0.3   0.3   0.3   1.8   0.0   0.0   0.1   0.5   0.6   0.5   0.5  0.57  0.46  0.25  0.00  0.00   75.84   78.40    0.50    0.00    0.57
 1990 328   137     2     2     3.2   15.7   16571    8.1    7.5   0.4   0.4   0.3   0.3   0.3   0.3   0.3   1.7   0.0   0.0   0.1   0.5   0.6   0.5   0.5  0.57  0.45  0.24  0.00  0.00   76.65   79.07    0.50    0.00    0.58
 1990 329   138     2     2     3.2   15.3   16570    7.8    7.5   0.4   0.4   0.3   0.3   0.3   0.3   0.3   1.6   0.0   0.0   0.1   0.5   0.6   0.5   0.5  0.57  0.44  0.24  0.00  0.00   77.43   79.70    0.50    0.00    0.58
 1990 330   139     2     2     3.2   15.0   16569    7.6    7.4   0.3   0.4   0.4   0.3   0.3   0.3   0.3   1.5   0.0   0.0   0.1   0.5   0.6   0.5   0.5  0.57  0.44  0.24  0.00  0.00   78.19   80.34    0.50    0.00    0.58
 1990 331   140     2     2     3.2   14.8   16569    7.2    7.6   0.3   0.3   0.3   0.3   0.3   0.3   0.3   1.4   0.0   0.0   0.2   0.6   0.6   0.5   0.5  0.57  0.43  0.23  0.00  0.00   78.94   80.74    0.50    0.00    0.58
 1990 332   141     2     2     3.2   14.6   16568    7.3    7.4   0.6   0.4   0.3   0.3   0.3   0.3   0.3   1.3   0.0   0.0   0.1   0.5   0.6   0.5   0.5  0.57  0.43  0.23  0.00  0.00   79.66   81.46    0.50    0.00    0.59
 1990 333   142     2     2     3.2   14.3   16567    6.9    7.4   0.3   0.4   0.3   0.3   0.3   0.3   0.3   1.3   0.0   0.0   0.1   0.5   0.6   0.5   0.5  0.57  0.42  0.23  0.00  0.00   80.35   82.00    0.50    0.00    0.59
 1990 334   143     2     2     3.2   14.1   16567    6.8    7.3   0.4   0.4   0.3   0.3   0.3   0.3   0.3   1.2   0.0   0.0   0.1   0.5   0.6   0.5   0.5  0.56  0.42  0.22  0.00  0.00   81.02   82.58    0.50    0.00    0.59
 1990 335   144     2     2     3.2   13.8   16566    6.6    7.3   0.4   0.4   0.3   0.3   0.3   0.3   0.3   1.1   0.0   0.0   0.1   0.5   0.6   0.5   0.5  0.56  0.41  0.22  0.00  0.00   81.68   83.12    0.50    0.00    0.59
 1990 336   145     2     2     3.2   13.6   16565    6.4    7.2   0.4   0.4   0.3   0.3   0.3   0.3   0.3   1.1   0.0   0.0   0.1   0.5   0.6   0.5   0.5  0.56  0.41  0.22  0.00  0.00   82.33   83.67    0.50    0.00    0.60
 1990 337   146     2     2     3.2   13.4   16565    6.3    7.2   0.3   0.4   0.3   0.3   0.3   0.3   0.3   1.0   0.0   0.0   0.1   0.5   0.6   0.5   0.5  0.56  0.40  0.21  0.00  0.00   82.97   84.22    0.50    0.00    0.60
 1990 338   147     2     2     3.2   13.3   16564    6.1    7.2   0.3   0.4   0.3   0.3   0.3   0.3   0.3   0.9   0.0   0.0   0.2   0.5   0.6   0.5   0.5  0.56  0.40  0.21  0.00  0.00   83.60   84.70    0.50    0.00    0.60
 1990 339   148     2     2     3.2   13.1   16564    6.1    7.1   0.5   0.4   0.3   0.3   0.3   0.3   0.3   0.9   0.0   0.0   0.1   0.5   0.6   0.5   0.5  0.56  0.39  0.21  0.00  0.00   84.21   85.31    0.50    0.00    0.60
 1990 340   149     2     2     3.2   12.9   16563    5.9    7.0   0.0   0.3   0.4   0.4   0.3   0.3   0.3   0.8   0.0   0.0   0.1   0.5   0.6   0.5   0.5  0.55  0.39  0.20  0.00  0.00   84.84   85.86    0.50    0.00    0.61
 1990 341   150     2     2     3.2   12.8   16562    5.4    7.4   0.0   0.1   0.2   0.2   0.3   0.3   0.3   0.8   0.0   0.0   0.2   0.6   0.7   0.5   0.5  0.55  0.38  0.20  0.00  0.00   85.53   86.07    0.50    0.00    0.61
 1990 342   151     2     2     3.2   12.9   16562    5.1    7.8   0.1   0.1   0.2   0.2   0.2   0.3   0.3   0.8   0.0   0.0   0.3   0.7   0.7   0.6   0.5  0.57  0.39  0.20  0.00  0.00   86.28   86.22    0.50    0.00    0.61
 1990 343   152     2     2     3.3   12.9   16561    5.1    7.8   0.6   0.2   0.2   0.2   0.3   0.2   0.3   0.7   0.0   0.0   0.0   0.7   0.7   0.6   0.5  0.57  0.38  0.19  0.00  0.00   87.04   86.64    0.50    0.00    0.61
 1990 344   153     2     2     3.9   12.2   16560    4.5    7.7   0.0   0.3   0.2   0.2   0.2   0.3   0.3   0.5   0.0   0.0   0.1   0.5   0.7   0.6   0.6  0.58  0.38  0.19  0.00  0.00   87.77   87.01    0.50    0.00    0.62
 1990 345   154     2     2     4.2   12.3   16560    4.1    8.1   0.0   0.3   0.2   0.2   0.2   0.2   0.2   0.5   0.0   0.0   0.2   0.6   0.8   0.6   0.6  0.59  0.39  0.19  0.00  0.00   88.42   87.09    0.50    0.00    0.62
 1990 346   155     2     2     4.2   12.4   16559    4.2    8.1   0.3   0.3   0.2   0.2   0.2   0.2   0.2   0.4   0.0   0.0   0.1   0.7   0.7   0.6   0.6  0.59  0.40  0.19  0.00  0.00   89.09   87.34    0.51    0.00    0.62
 1990 347   156     2     2     4.3   12.4   16558    4.3    8.1   0.4   0.3   0.2   0.2   0.2   0.2   0.2   0.4   0.0   0.0   0.1   0.7   0.7   0.6   0.6  0.59  0.40  0.19  0.00  0.00   89.73   87.53    0.51    0.00    0.62
 1990 348   157     2     2     4.3   12.4   16558    4.5    7.9   0.4   0.4   0.3   0.2   0.3   0.2   0.3   0.4   0.0   0.0   0.1   0.5   0.6   0.6   0.6  0.59  0.40  0.20  0.00  0.00   90.37   87.96    0.51    0.00    0.63
 1990 349   158     2     2     4.3   12.3   16557    4.6    7.7   0.4   0.4   0.3   0.3   0.3   0.3   0.3   0.3   0.0   0.0   0.1   0.5   0.6   0.6   0.6  0.59  0.40  0.20  0.00  0.00   91.02   88.48    0.51    0.00    0.63
 1990 350   159     2     2     4.3   12.2   16557    4.7    7.5   0.4   0.4   0.3   0.3   0.3   0.3   0.3   0.3   0.0   0.0   0.1   0.5   0.6   0.6   0.6  0.59  0.40  0.19  0.00  0.00   91.72   89.02    0.51    0.00    0.63
 1990 351   160     2     2     4.3   12.1   16556    4.7    7.5   0.4   0.4   0.3   0.3   0.3   0.3   0.3   0.3   0.0   0.0   0.1   0.5   0.6   0.6   0.5  0.59  0.40  0.19  0.00  0.00   92.45   89.59    0.51    0.00    0.63
 1990 352   161     2     2     4.3   12.1   16555    4.7    7.4   0.2   0.3   0.4   0.3   0.3   0.3   0.3   0.3   0.0   0.0   0.1   0.5   0.6   0.5   0.5  0.59  0.39  0.19  0.00  0.00   93.21   90.19    0.51    0.00    0.64
 1990 353   162     2     2     4.3   12.1   16555    4.2    7.9   0.2   0.3   0.3   0.3   0.3   0.3   0.3   0.3   0.0   0.0   0.2   0.6   0.7   0.6   0.6  0.59  0.39  0.19  0.00  0.00   94.00   90.36    0.51    0.00    0.64
 1990 354   163     2     2     4.3   12.4   16554    4.4    8.0   0.6   0.3   0.3   0.3   0.3   0.3   0.3   0.3   0.0   0.0   0.0   0.7   0.7   0.6   0.6  0.59  0.39  0.18  0.00  0.00   94.81   90.75    0.51    0.00    0.64
 1990 355   164     2     2     4.3   12.3   16553    4.6    7.7   0.3   0.5   0.3   0.3   0.3   0.3   0.3   0.3   0.0   0.0   0.1   0.5   0.6   0.6   0.6  0.59  0.39  0.18  0.00  0.00   95.62   91.32    0.51    0.00    0.65
 1990 356   165     2     2     4.3   12.2   16552    4.7    7.6   0.3   0.3   0.4   0.3   0.3   0.3   0.3   0.3   0.0   0.0   0.1   0.5   0.6   0.6   0.6  0.59  0.39  0.18  0.00  0.00   96.44   92.00    0.51    0.00    0.65
 1990 357   166     2     2     4.3   12.2   16552    4.2    8.0   0.3   0.3   0.3   0.3   0.3   0.3   0.3   0.3   0.0   0.0   0.2   0.6   0.7   0.6   0.6  0.59  0.39  0.18  0.00  0.00   97.21   92.13    0.51    0.00    0.65
 1990 358   167     2     2     4.3   12.5   16551    4.4    8.1   0.5   0.3   0.3   0.3   0.3   0.3   0.3   0.3   0.0   0.0   0.1   0.7   0.7   0.6   0.6  0.59  0.39  0.18  0.00  0.00   98.02   92.50    0.51    0.00    0.65
 1990 359   168     2     2     4.4   12.5   16550    4.1    8.5   0.3   0.3   0.3   0.3   0.2   0.2   0.3   0.3   0.0   0.0   0.2   0.7   0.8   0.6   0.6  0.60  0.40  0.17  0.00  0.00   98.80   92.62    0.51    0.00    0.66
 1990 360   169     2     2     4.4   12.7   16550    4.3    8.4   0.5   0.3   0.3   0.3   0.3   0.3   0.3   0.3   0.0   0.0   0.1   0.7   0.8   0.6   0.6  0.60  0.40  0.17  0.00  0.00   99.58   92.96    0.51    0.00    0.66
 1990 361   170     2     2     4.4   12.6   16549    4.5    8.1   0.4   0.5   0.3   0.3   0.3   0.3   0.3   0.3   0.0   0.0   0.1   0.5   0.8   0.6   0.6  0.59  0.40  0.17  0.00  0.00  100.39   93.45    0.51    0.00    0.66
 1990 362   171     2     2     4.4   12.4   16548    4.7    7.7   0.4   0.4   0.3   0.3   0.3   0.3   0.3   0.3   0.0   0.0   0.1   0.5   0.6   0.6   0.6  0.59  0.40  0.17  0.00  0.00  101.23   94.18    0.51    0.00    0.67
 1990 363   172     2     2     4.4   12.2   16547    4.6    7.6   0.4   0.4   0.3   0.3   0.3   0.3   0.3   0.3   0.0   0.0   0.1   0.5   0.6   0.6   0.6  0.59  0.40  0.17  0.00  0.00  102.04   94.82    0.51    0.00    0.67
 1990 364   173     2     2     4.4   12.1   16547    4.6    7.5   0.4   0.4   0.3   0.3   0.3   0.3   0.3   0.3   0.0   0.0   0.1   0.5   0.6   0.6   0.6  0.59  0.40  0.17  0.00  0.00  102.85   95.45    0.51    0.00    0.67
 1990 365   174     2     2     4.4   12.1   16546    4.6    7.4   0.4   0.4   0.3   0.3   0.3   0.3   0.3   0.3   0.0   0.0   0.1   0.5   0.6   0.6   0.6  0.59  0.40  0.17  0.00  0.00  103.66   96.08    0.51    0.00    0.67
 1991 001   175     2     2     4.4   12.0   16545    4.6    7.4   0.4   0.4   0.3   0.3   0.3   0.3   0.3   0.3   0.0   0.0   0.1   0.5   0.6   0.5   0.5  0.59  0.40  0.17  0.00  0.00  104.46   96.68    0.51    0.00    0.68
 1991 002   176     2     2     4.4   12.0   16545    4.6    7.4   0.4   0.4   0.3   0.3   0.3   0.3   0.3   0.3   0.0   0.0   0.1   0.5   0.6   0.5   0.5  0.59  0.40  0.16  0.00  0.00  105.25   97.28    0.51    0.00    0.68
 1991 003   177     2     2     4.4   12.0   16544    4.6    7.3   0.4   0.4   0.3   0.3   0.3   0.3   0.3   0.3   0.0   0.0   0.1   0.5   0.6   0.5   0.5  0.59  0.40  0.16  0.00  0.00  106.06   97.91    0.51    0.00    0.68
 1991 004   178     2     2     4.4   11.9   16543    4.6    7.3   0.4   0.4   0.3   0.3   0.3   0.3   0.3   0.3   0.0   0.0   0.1   0.4   0.6   0.5   0.5  0.59  0.40  0.16  0.00  0.00  106.88   98.56    0.51    0.00    0.68
 1991 005   179     2     2     4.4   11.9   16542    4.6    7.3   0.4   0.4   0.3   0.3   0.3   0.3   0.3   0.3   0.0   0.0   0.1   0.4   0.6   0.5   0.5  0.59  0.40  0.16  0.00  0.00  107.70   99.21    0.51    0.00    0.69
 1991 006   180     2     2     4.4   11.8   16542    4.6    7.2   0.4   0.4   0.3   0.3   0.3   0.3   0.3   0.3   0.0   0.0   0.1   0.4   0.6   0.5   0.5  0.59  0.40  0.16  0.00  0.00  108.48   99.85    0.51    0.00    0.69
 1991 007   181     2     2     4.4   11.8   16541    4.6    7.1   0.4   0.4   0.3   0.3   0.3   0.3   0.3   0.3   0.0   0.0   0.1   0.4   0.6   0.5   0.5  0.59  0.39  0.16  0.00  0.00  109.23  100.47    0.51    0.00    0.69
 1991 008   182     2     2     4.4   12.5   16540    5.2    7.3   0.5   0.5   0.4   0.3   0.3   0.3   0.3   0.3   0.0   0.0   0.1   0.4   0.6   0.5   0.5  0.61  0.39  0.16  0.00  0.00  109.97  101.09    0.51    0.00    0.69
 1991 009   183     2     2     4.4   13.2   16540    5.9    7.3   0.7   0.7   0.5   0.4   0.4   0.3   0.3   0.3   0.0   0.0   0.1   0.3   0.7   0.5   0.5  0.62  0.39  0.16  0.00  0.00  110.71  101.74    0.51    0.00    0.69

*DSSAT Cropping System Model Ver. 4.0.2.000               Jul 20, 2016; 10:59:46

*RUN   2        : UYMZ                    
 MODEL          : MZCER040 - Maize           
 EXPERIMENT     : UYMZ0051 MZ    late to create DSS                             
 TREATMENT  1   : UYMZ                    

@YEAR DOY   DAS  NAPC  NI#M    NLCC   NIAD    NOAD   NITD   NHTD  NI1D  NI2D  NI3D  NI4D  NI5D  NI6D  NI7D  NI8D  NI9D  NI10  NH1D  NH2D  NH3D  NH4D  NH5D  NH6D  NH7D  NH8D  NH9D  NH10    NMNC    NITC    NDNC    NIMC    AMLC
 1991 191     0     0     0     0.0   99.4   16645   76.9   22.5  13.2  16.9  15.2   8.6   4.6   0.0   0.1   0.1   0.0   0.0   0.3   1.3   1.5   1.4   1.4  1.50  1.46  1.45  0.00  0.00    0.64    2.07    0.00    0.00    0.00
 1991 192     1     0     0     0.0  100.0   16645   78.1   21.9  12.7  17.4  15.4   8.7   4.7   0.0   0.1   0.1   0.0   0.0   0.2   1.1   1.4   1.4   1.4  1.51  1.43  1.41  0.00  0.00    1.24    3.34    0.00    0.00    0.00
 1991 193     2     0     0     0.0  100.5   16644   79.2   21.3  12.6  17.6  15.5   8.8   4.7   0.1   0.2   0.2   0.0   0.0   0.1   1.0   1.4   1.3   1.3  1.51  1.39  1.36  0.00  0.00    1.77    4.40    0.00    0.00    0.00
 1991 194     3     0     0     0.0  101.0   16644   80.1   20.9  12.7  17.7  15.7   8.9   4.8   0.1   0.2   0.2   0.0   0.0   0.1   0.9   1.4   1.3   1.3  1.51  1.36  1.32  0.00  0.00    2.24    5.31    0.00    0.00    0.00
 1991 195     4     2     2     0.0  103.3   16643   80.9   22.4  12.8  17.7  15.9   8.9   4.8   0.1   0.2   0.2   0.0   0.0   3.6   0.9   1.4   1.2   1.3  1.51  1.33  1.28  0.00  0.00    2.63    6.10    0.00    0.00    0.07
 1991 196     5     2     2     0.0  103.6   16643   82.3   21.3  14.0  17.7  16.0   9.0   4.9   0.1   0.3   0.3   0.0   0.0   2.2   0.8   1.3   1.2   1.2  1.52  1.31  1.25  0.00  0.00    2.96    7.49    0.00    0.00    0.12
 1991 197     6     2     2     0.0  103.8   16643   83.4   20.5  14.8  17.8  16.1   9.0   4.9   0.1   0.3   0.3   0.0   0.0   1.4   0.8   1.3   1.2   1.2  1.52  1.28  1.21  0.00  0.00    3.27    8.57    0.00    0.00    0.20
 1991 198     7     2     2     0.0  104.1   16642   84.3   19.8  15.3  17.8  16.2   9.1   5.0   0.1   0.3   0.4   0.0   0.0   0.8   0.7   1.3   1.1   1.2  1.52  1.25  1.18  0.00  0.00    3.61    9.50    0.00    0.00    0.25
 1991 199     8     2     2     0.0  104.5   16642   85.2   19.3   4.4  13.4  20.4  11.5   5.0   0.2   0.4   0.4   0.0   0.0   0.4   0.7   1.3   1.1   1.1  1.52  1.23  1.14  0.00  0.00    4.02   10.39    0.00    0.00    0.30
 1991 200     9     2     2     0.0  104.9   16642   85.7   19.2   3.5  12.4  19.6  13.1   5.1   0.2   0.4   0.4   0.0   0.0   0.4   0.8   1.4   1.1   1.1  1.53  1.20  1.11  0.00  0.00    4.46   10.91    0.00    0.00    0.33
 1991 201    10     2     2     0.0  105.3   16641   86.3   19.0   3.6  12.1  19.4  13.3   5.4   0.2   0.5   0.5   0.0   0.0   0.1   0.8   1.4   1.1   1.1  1.53  1.17  1.08  0.00  0.00    4.93   11.44    0.00    0.00    0.41
 1991 202    11     2     2     0.9  104.9   16641   85.9   19.0   1.0   6.0  13.5  11.8  10.9   2.6   0.3   0.6   0.0   0.0   0.0   0.9   1.5   1.1   1.1  1.53  1.15  1.05  0.00  0.00    5.46   11.92    0.00    0.00    0.46
 1991 203    12     2     2     2.3  104.0   16640   84.6   19.4   0.4   3.6  10.2  10.1  10.3   4.3   2.4   0.4   0.0   0.0   0.1   0.9   1.6   1.1   1.1  1.55  1.15  1.04  0.00  0.00    5.98   12.04    0.00    0.00    0.46
 1991 204    13     2     2     3.1  103.5   16640   83.7   19.8   0.2   2.6   8.4   9.1   9.9   5.1   3.0   1.0   0.0   0.0   0.1   1.0   1.6   1.2   1.1  1.57  1.16  1.04  0.00  0.00    6.45   12.16    0.16    0.00    0.48
 1991 205    14     2     2     3.7  103.1   16639   83.1   20.1   0.3   2.5   8.2   8.7   9.6   5.2   3.1   1.3   0.0   0.0   0.1   1.0   1.7   1.2   1.1  1.58  1.16  1.04  0.00  0.00    6.89   12.30    0.36    0.00    0.48
 1991 206    15     2     2     4.1  103.0   16639   82.7   20.3   0.4   2.5   8.0   8.5   9.4   5.2   3.2   1.4   0.0   0.0   0.1   1.1   1.7   1.2   1.1  1.60  1.17  1.03  0.00  0.00    7.33   12.50    0.48    0.00    0.49
 1991 207    16     2     2     4.3  103.1   16638   82.7   20.4   0.5   2.6   8.0   8.4   9.3   5.2   3.3   1.5   0.0   0.0   0.1   1.0   1.8   1.2   1.1  1.61  1.17  1.03  0.00  0.00    7.73   12.82    0.59    0.00    0.49
 1991 208    17     2     2     4.5  103.3   16638   82.9   20.5   0.6   2.7   8.0   8.4   9.2   5.2   3.3   1.5   0.0   0.0   0.1   0.9   1.8   1.2   1.2  1.63  1.17  1.02  0.00  0.00    8.18   13.19    0.65    0.00    0.49
 1991 209    18     2     2     4.6  103.8   16637   83.4   20.4   0.8   2.9   8.1   8.4   9.2   5.2   3.3   1.6   0.0   0.0   0.1   0.9   1.8   1.2   1.2  1.64  1.17  1.01  0.00  0.00    8.71   13.79    0.68    0.00    0.49
 1991 210    19     2     2     4.6  104.3   16637   84.0   20.3   0.9   3.0   8.3   8.4   9.2   5.2   3.3   1.6   0.0   0.0   0.1   0.8   1.7   1.3   1.2  1.66  1.17  1.01  0.00  0.00    9.32   14.48    0.70    0.00    0.50
 1991 211    20     2     2     4.6  104.8   16636   84.6   20.2   1.0   3.1   8.4   8.4   9.3   5.2   3.3   1.6   0.0   0.0   0.1   0.7   1.7   1.3   1.2  1.67  1.17  1.00  0.00  0.00    9.98   15.21    0.72    0.00    0.50
 1991 212    21     2     2     4.6  105.4   16635   85.4   20.0   0.7   2.7   8.2   8.8   9.5   5.3   3.4   1.6   0.0   0.0   0.1   0.7   1.6   1.2   1.2  1.69  1.17  0.99  0.00  0.00   10.65   16.06    0.73    0.00    0.50
 1991 213    22     2     2     4.9  105.6   16635   85.2   20.4   0.8   2.7   8.1   8.5   9.3   5.4   3.5   1.8   0.0   0.0   0.1   0.7   1.7   1.2   1.2  1.70  1.17  0.98  0.00  0.00   11.29   16.32    0.79    0.00    0.50
 1991 214    23     2     2     5.1  105.9   16634   85.3   20.7   0.9   2.7   8.0   8.4   9.2   5.4   3.6   1.8   0.0   0.0   0.1   0.8   1.8   1.3   1.2  1.72  1.17  0.97  0.00  0.00   11.83   16.58    0.82    0.00    0.51
 1991 215    24     2     2     5.2  106.3   16634   85.5   20.8   0.6   2.3   7.2   8.1   9.4   5.8   3.8   1.9   0.0   0.0   0.1   0.8   1.8   1.3   1.2  1.73  1.17  0.96  0.00  0.00   12.29   16.93    0.84    0.00    0.51
 1991 216    25     2     2     6.3  105.4   16633   84.4   21.0   0.4   1.7   6.0   7.2   8.7   6.3   4.4   2.5   0.0   0.0   0.1   0.8   1.8   1.3   1.3  1.75  1.17  0.96  0.00  0.00   12.68   17.09    0.97    0.00    0.51
 1991 217    26     2     2     7.6  104.2   16633   83.0   21.2   0.4   1.7   5.8   6.9   8.3   6.2   4.5   2.7   0.0   0.0   0.1   0.8   1.9   1.3   1.3  1.76  1.17  0.96  0.00  0.00   13.02   17.20    1.28    0.00    0.52
 1991 218    27     2     2     8.4  103.6   16633   82.2   21.4   0.4   1.7   5.7   6.7   8.1   6.1   4.5   2.8   0.0   0.0   0.1   0.9   1.9   1.3   1.3  1.77  1.17  0.95  0.00  0.00   13.36   17.37    1.46    0.00    0.52
 1991 219    28     2     2     8.8  103.4   16632   81.9   21.5   0.5   1.8   5.7   6.6   8.0   6.1   4.5   2.9   0.0   0.0   0.1   0.8   2.0   1.3   1.3  1.79  1.18  0.95  0.00  0.00   13.71   17.64    1.56    0.00    0.52
 1991 220    29     2     2     9.1  103.4   16632   81.9   21.5   0.6   1.8   5.7   6.6   8.0   6.1   4.5   2.9   0.0   0.0   0.1   0.8   2.0   1.3   1.3  1.80  1.18  0.94  0.00  0.00   14.07   17.94    1.62    0.00    0.52
 1991 221    30     2     2     9.2  103.6   16632   82.1   21.5   0.6   1.9   5.8   6.6   8.0   6.1   4.5   2.9   0.0   0.0   0.1   0.7   1.9   1.3   1.3  1.81  1.18  0.93  0.00  0.00   14.46   18.40    1.65    0.00    0.53
 1991 222    31     2     2     9.2  104.0   16631   82.6   21.4   0.7   2.0   5.9   6.6   8.0   6.1   4.5   2.9   0.0   0.0   0.1   0.7   1.9   1.3   1.3  1.82  1.17  0.93  0.00  0.00   14.88   18.87    1.67    0.00    0.53
 1991 223    32     2     2     9.2  104.4   16631   83.0   21.4   0.8   2.1   6.0   6.6   8.0   6.1   4.5   2.9   0.0   0.0   0.1   0.7   1.8   1.4   1.3  1.84  1.17  0.92  0.00  0.00   15.29   19.33    1.68    0.00    0.53
 1991 224    33     2     2     9.2  104.8   16630   83.5   21.3   0.9   2.2   6.1   6.6   8.0   6.1   4.5   2.9   0.0   0.0   0.1   0.6   1.8   1.4   1.3  1.85  1.17  0.91  0.00  0.00   15.72   19.80    1.70    0.00    0.53
 1991 225    34     2     2     9.2  105.2   16630   84.0   21.2   1.0   2.2   6.2   6.7   8.0   6.1   4.5   3.0   0.0   0.0   0.1   0.6   1.7   1.3   1.3  1.86  1.17  0.91  0.00  0.00   16.15   20.36    1.71    0.00    0.53
 1991 226    35     2     2     9.2  105.7   16629   84.6   21.1   1.1   2.3   6.3   6.8   8.0   6.1   4.6   3.0   0.0   0.0   0.1   0.6   1.7   1.3   1.3  1.87  1.17  0.90  0.00  0.00   16.59   20.92    1.73    0.00    0.54
 1991 227    36     2     2     9.2  106.1   16629   85.2   21.0   1.2   2.4   6.4   6.8   8.1   6.1   4.6   3.0   0.0   0.0   0.1   0.6   1.7   1.2   1.4  1.89  1.17  0.89  0.00  0.00   17.07   21.50    1.74    0.00    0.54
 1991 228    37     2     2     9.2  106.6   16628   85.8   20.9   1.3   2.5   6.6   6.9   8.1   6.1   4.6   3.0   0.0   0.0   0.1   0.6   1.6   1.2   1.4  1.90  1.17  0.89  0.00  0.00   17.62   22.15    1.76    0.00    0.54
 1991 229    38     2     2     9.2  107.2   16628   86.5   20.8   1.5   2.6   6.7   7.0   8.1   6.1   4.6   3.0   0.0   0.0   0.1   0.5   1.6   1.1   1.4  1.92  1.17  0.88  0.00  0.00   18.23   22.86    1.77    0.00    0.54
 1991 230    39     2     2     9.2  107.8   16627   87.2   20.6   1.6   2.7   6.8   7.1   8.1   6.1   4.6   3.0   0.0   0.0   0.1   0.5   1.5   1.1   1.4  1.93  1.17  0.87  0.00  0.00   18.89   23.64    1.79    0.00    0.55
 1991 231    40     2     2     9.2  108.2   16626   87.7   20.5   1.7   2.8   6.9   7.2   8.2   6.1   4.6   3.0   0.0   0.0   0.1   0.5   1.5   1.1   1.4  1.95  1.17  0.87  0.00  0.00   19.58   24.43    1.80    0.00    0.55
 1991 232    41     2     2     9.2  108.5   16626   88.1   20.4   1.9   2.8   6.9   7.2   8.2   6.1   4.6   3.0   0.0   0.0   0.1   0.5   1.4   1.0   1.4  1.96  1.17  0.86  0.00  0.00   20.28   25.21    1.81    0.00    0.55
 1991 233    42     2     2     9.2  108.8   16625   88.5   20.3   2.0   2.9   6.9   7.3   8.2   6.1   4.6   3.0   0.0   0.0   0.1   0.5   1.4   1.0   1.4  1.98  1.17  0.85  0.00  0.00   20.96   25.96    1.83    0.00    0.56
 1991 234    43     2     2     9.2  109.0   16624   88.8   20.2   2.1   2.9   6.9   7.4   8.2   6.1   4.6   3.0   0.0   0.0   0.1   0.5   1.3   1.0   1.4  1.99  1.17  0.85  0.00  0.00   21.65   26.69    1.84    0.00    0.56
 1991 235    44     2     2     9.2  109.1   16624   89.1   20.0   2.2   3.0   6.8   7.4   8.3   6.1   4.7   3.1   0.0   0.0   0.1   0.5   1.3   0.9   1.4  2.01  1.17  0.84  0.00  0.00   22.33   27.54    1.85    0.00    0.56
 1991 236    45     2     2     9.2  108.9   16623   89.1   19.8   2.2   2.9   6.6   7.5   8.4   6.1   4.7   3.1   0.0   0.0   0.1   0.5   1.2   0.9   1.3  2.02  1.17  0.83  0.00  0.00   23.02   28.36    1.86    0.00    0.56
 1991 237    46     2     2     9.2  108.8   16622   89.1   19.6   2.3   2.9   6.4   7.6   8.5   6.1   4.7   3.1   0.0   0.0   0.1   0.5   1.2   0.9   1.3  2.03  1.17  0.83  0.00  0.00   23.68   29.13    1.87    0.00    0.57
 1991 238    47     2     2     9.2  108.8   16622   89.3   19.5   2.4   3.0   6.2   7.6   8.6   6.1   4.7   3.1   0.0   0.0   0.1   0.5   1.1   0.9   1.2  2.05  1.17  0.82  0.00  0.00   24.33   29.88    1.88    0.00    0.57
 1991 239    48     2     2     9.2  108.9   16621   89.5   19.4   2.4   3.0   6.1   7.7   8.6   6.1   4.7   3.1   0.0   0.0   0.1   0.5   1.1   0.8   1.2  2.06  1.17  0.82  0.00  0.00   24.95   30.57    1.89    0.00    0.57
 1991 240    49     2     2     9.2  109.0   16621   89.7   19.3   2.5   3.0   6.0   7.7   8.7   6.1   4.7   3.1   0.0   0.0   0.1   0.5   1.1   0.8   1.1  2.08  1.17  0.81  0.00  0.00   25.52   31.19    1.90    0.00    0.57
 1991 241    50     2     2     9.2  108.9   16620   89.7   19.2   2.5   3.0   5.9   7.8   8.8   6.1   4.7   3.1   0.0   0.0   0.1   0.5   1.1   0.8   1.1  2.09  1.16  0.81  0.00  0.00   26.08   31.80    1.91    0.00    0.60
 1991 242    51     2     2     9.2  108.6   16619   89.6   19.1   2.5   2.9   5.7   7.8   8.8   6.2   4.7   3.1   0.0   0.0   0.1   0.5   1.1   0.8   1.1  2.10  1.16  0.80  0.00  0.00   26.64   32.39    1.92    0.00    0.62
 1991 243    52     2     2     9.2  108.4   16619   89.4   19.0   2.4   2.9   5.5   7.8   8.9   6.2   4.7   3.1   0.0   0.0   0.1   0.5   1.0   0.8   1.0  2.12  1.16  0.79  0.00  0.00   27.20   32.97    1.93    0.00    0.63
 1991 244    53     2     2     9.2  107.7   16618   88.8   18.9   1.6   3.0   5.2   7.8   8.9   6.2   4.8   3.1   0.0   0.0   0.1   0.5   1.0   0.8   1.0  2.13  1.16  0.79  0.00  0.00   27.76   33.53    1.94    0.00    0.65
 1991 245    54     2     2     9.2  107.3   16618   88.4   18.9   1.5   2.9   5.0   7.8   9.0   6.2   4.8   3.2   0.0   0.0   0.1   0.6   1.0   0.7   1.0  2.14  1.16  0.78  0.00  0.00   28.32   34.00    1.95    0.00    0.67
 1991 246    55     2     2     9.2  107.6   16617   88.6   19.0   1.6   2.8   5.0   7.8   9.0   6.2   4.8   3.2   0.0   0.0   0.1   0.6   1.0   0.7   1.0  2.15  1.16  0.78  0.00  0.00   28.87   34.46    1.96    0.00    0.69
 1991 247    56     2     2     9.2  107.1   16617   88.3   18.9   1.5   2.8   4.8   7.8   9.1   6.2   4.8   3.2   0.0   0.0   0.1   0.6   1.0   0.7   0.9  2.17  1.16  0.77  0.00  0.00   29.42   35.02    1.97    0.00    0.71
 1991 248    57     2     2     9.2  105.8   16616   87.0   18.7   1.4   2.6   4.4   7.6   9.1   6.2   4.8   3.2   0.0   0.0   0.1   0.6   0.9   0.7   0.9  2.18  1.16  0.77  0.00  0.00   29.97   35.58    1.98    0.00    0.73
 1991 249    58     2     2     9.2  104.1   16615   85.5   18.6   1.3   2.4   3.9   7.3   9.2   6.2   4.8   3.2   0.0   0.0   0.1   0.5   0.9   0.7   0.9  2.19  1.16  0.76  0.00  0.00   30.58   36.17    1.99    0.00    0.75
 1991 250    59     2     2     9.2  104.2   16615   85.6   18.6   1.2   2.5   3.8   7.2   9.2   6.2   4.8   3.2   0.0   0.0   0.1   0.5   0.9   0.7   0.9  2.21  1.16  0.76  0.00  0.00   31.22   36.77    2.00    0.00    0.77
 1991 251    60     2     2     9.2  103.6   16614   85.0   18.6   1.1   2.4   3.6   7.1   9.3   6.2   4.8   3.2   0.0   0.0   0.2   0.5   0.9   0.7   0.9  2.22  1.16  0.75  0.00  0.00   31.86   37.34    2.01    0.00    0.78
 1991 252    61     2     2     9.2  101.9   16614   83.4   18.5   1.1   2.1   3.2   6.7   9.3   6.2   4.8   3.2   0.0   0.0   0.1   0.5   0.9   0.6   0.8  2.23  1.16  0.75  0.00  0.00   32.47   37.95    2.02    0.00    0.79
 1991 253    62     2     2     9.2  100.8   16613   82.3   18.4   1.1   2.0   2.9   6.4   9.4   6.2   4.8   3.2   0.0   0.0   0.1   0.5   0.8   0.6   0.8  2.24  1.16  0.74  0.00  0.00   33.06   38.50    2.02    0.00    0.79
 1991 254    63     2     2     9.2   99.5   16612   81.1   18.4   1.0   1.8   2.6   6.1   9.4   6.2   4.9   3.2   0.0   0.0   0.1   0.5   0.8   0.6   0.8  2.26  1.16  0.74  0.00  0.00   33.62   39.01    2.03    0.00    0.79
 1991 255    64     2     2     9.2   97.2   16612   78.9   18.3   0.9   1.6   2.1   5.7   9.1   6.2   4.9   3.2   0.0   0.0   0.1   0.5   0.8   0.6   0.8  2.27  1.16  0.73  0.00  0.00   34.18   39.53    2.04    0.00    0.80
 1991 256    65     2     2     9.2   94.7   16611   76.5   18.2   0.9   1.4   1.8   5.3   8.7   6.2   4.9   3.3   0.0   0.0   0.1   0.5   0.8   0.6   0.8  2.28  1.16  0.73  0.00  0.00   34.79   40.08    2.05    0.00    0.80
 1991 257    66     2     2     9.2   92.2   16611   74.1   18.1   0.8   1.2   1.5   4.9   8.2   6.2   4.9   3.3   0.0   0.0   0.1   0.5   0.7   0.6   0.7  2.29  1.16  0.72  0.00  0.00   35.44   40.68    2.05    0.00    0.80
 1991 258    67     2     2     9.2   91.8   16610   73.6   18.1   0.6   1.3   1.5   4.8   8.0   6.3   4.9   3.3   0.0   0.0   0.1   0.5   0.7   0.6   0.7  2.31  1.16  0.72  0.00  0.00   36.09   41.27    2.06    0.00    0.80
 1991 259    68     2     2     9.2   90.9   16609   72.7   18.3   0.5   1.2   1.4   4.7   7.7   6.3   4.9   3.3   0.0   0.0   0.2   0.6   0.7   0.6   0.7  2.32  1.16  0.71  0.00  0.00   36.72   41.66    2.07    0.00    0.81
 1991 260    69     2     2     9.2   89.2   16609   70.9   18.4   0.3   0.9   1.4   4.4   7.3   6.3   4.9   3.3   0.0   0.0   0.3   0.7   0.7   0.6   0.7  2.33  1.16  0.71  0.00  0.00   37.34   42.07    2.07    0.00    0.81
 1991 261    70     2     2    11.8   85.2   16608   66.7   18.6   0.1   0.5   0.9   2.6   5.4   6.5   5.6   4.1   0.0   0.0   0.3   0.7   0.8   0.6   0.7  2.35  1.16  0.71  0.00  0.00   37.94   42.36    2.08    0.00    0.81
 1991 262    71     2     2    13.6   80.6   16608   62.1   18.5   0.4   0.3   0.5   2.1   4.4   6.2   5.5   4.1   0.0   0.0   0.2   0.7   0.8   0.6   0.7  2.36  1.16  0.71  0.00  0.00   38.48   42.60    2.23    0.00    0.82
 1991 263    72     2     2    14.5   76.3   16607   57.9   18.4   0.4   0.3   0.3   1.6   3.4   6.1   5.4   4.1   0.0   0.0   0.1   0.7   0.7   0.6   0.6  2.37  1.16  0.70  0.00  0.00   39.02   42.81    2.32    0.00    0.82
 1991 264    73     2     2    15.0   74.7   16606   56.4   18.3   0.4   0.4   0.3   1.3   3.0   6.0   5.4   4.1   0.0   0.0   0.1   0.6   0.7   0.6   0.6  2.39  1.17  0.70  0.00  0.00   39.60   43.23    2.37    0.00    0.83
 1991 265    74     2     2    15.2   72.4   16606   54.3   18.1   0.4   0.4   0.3   1.0   2.3   6.0   5.3   4.1   0.0   0.0   0.1   0.5   0.6   0.6   0.6  2.40  1.17  0.70  0.00  0.00   40.20   43.69    2.40    0.00    0.83
 1991 266    75     2     2    15.4   70.8   16605   52.8   18.0   0.4   0.4   0.3   0.8   1.8   6.0   5.3   4.1   0.0   0.0   0.1   0.5   0.6   0.6   0.6  2.41  1.17  0.69  0.00  0.00   40.79   44.17    2.42    0.00    0.83
 1991 267    76     2     2    15.4   69.8   16605   51.8   17.9   0.4   0.3   0.3   0.6   1.4   6.0   5.3   4.1   0.0   0.0   0.1   0.5   0.6   0.5   0.6  2.42  1.17  0.69  0.00  0.00   41.37   44.63    2.43    0.00    0.84
 1991 268    77     2     2    15.4   66.0   16604   48.8   17.2   0.4   0.4   0.3   0.5   1.1   5.4   5.4   4.1   0.0   0.0   0.1   0.5   0.6   0.5   0.6  2.25  1.16  0.68  0.00  0.00   41.96   45.09    2.44    0.00    0.84
 1991 269    78     2     2    15.4   61.6   16604   45.4   16.2   0.4   0.4   0.3   0.4   1.0   4.7   5.4   4.1   0.0   0.0   0.1   0.5   0.6   0.5   0.5  2.02  1.16  0.68  0.00  0.00   42.54   45.55    2.45    0.00    0.84
 1991 270    79     2     2    15.4   58.3   16603   42.8   15.5   0.4   0.3   0.3   0.4   0.8   4.1   5.4   4.1   0.0   0.0   0.1   0.5   0.6   0.5   0.5  1.85  1.16  0.68  0.00  0.00   43.11   45.99    2.46    0.00    0.85
 1991 271    80     2     2    15.4   54.9   16602   40.2   14.7   0.4   0.4   0.3   0.3   0.7   3.5   5.4   4.1   0.0   0.0   0.1   0.5   0.6   0.5   0.5  1.65  1.16  0.67  0.00  0.00   43.70   46.51    2.46    0.00    0.85
 1991 272    81     2     2    15.4   51.4   16602   37.5   13.8   0.4   0.4   0.3   0.3   0.6   2.9   5.4   4.1   0.0   0.0   0.1   0.5   0.6   0.5   0.5  1.46  1.16  0.67  0.00  0.00   44.29   47.02    2.47    0.00    0.85
 1991 273    82     2     2    15.4   49.3   16601   35.9   13.3   0.3   0.4   0.3   0.3   0.5   2.6   5.4   4.1   0.0   0.0   0.1   0.5   0.6   0.5   0.5  1.33  1.16  0.66  0.00  0.00   44.86   47.51    2.47    0.00    0.85
 1991 274    83     2     2    15.4   46.9   16601   34.1   12.7   0.3   0.4   0.3   0.3   0.4   2.2   5.4   4.2   0.0   0.0   0.1   0.5   0.6   0.5   0.5  1.20  1.16  0.66  0.00  0.00   45.42   47.99    2.48    0.00    0.86
 1991 275    84     2     2    15.4   44.7   16600   32.5   12.2   0.3   0.3   0.3   0.3   0.4   1.8   5.4   4.2   0.0   0.0   0.1   0.5   0.6   0.5   0.5  1.08  1.16  0.66  0.00  0.00   45.94   48.43    2.48    0.00    0.86
 1991 276    85     2     2    15.4   43.0   16600   31.2   11.8   0.3   0.3   0.3   0.3   0.3   1.5   5.4   4.2   0.0   0.0   0.1   0.5   0.6   0.5   0.5  0.98  1.16  0.65  0.00  0.00   46.42   48.84    2.48    0.00    0.86
 1991 277    86     2     2    15.4   41.6   16599   30.1   11.4   0.3   0.3   0.3   0.3   0.3   1.2   5.4   4.2   0.0   0.0   0.1   0.4   0.6   0.5   0.5  0.91  1.16  0.65  0.00  0.00   46.89   49.25    2.49    0.00    0.86
 1991 278    87     2     2    15.4   40.5   16599   29.4   11.1   0.3   0.3   0.3   0.3   0.3   1.0   5.5   4.2   0.0   0.0   0.1   0.4   0.6   0.5   0.5  0.84  1.16  0.65  0.00  0.00   47.37   49.65    2.49    0.00    0.87
 1991 279    88     2     2    15.4   39.6   16598   28.7   10.9   0.2   0.4   0.3   0.3   0.3   0.8   5.5   4.2   0.0   0.0   0.1   0.4   0.5   0.5   0.5  0.79  1.16  0.64  0.00  0.00   47.82   50.03    2.50    0.00    0.87
 1991 280    89     2     2    15.4   38.8   16598   28.0   10.8   0.1   0.2   0.3   0.3   0.3   0.7   5.5   4.2   0.0   0.0   0.2   0.5   0.6   0.5   0.5  0.75  1.16  0.64  0.00  0.00   48.29   50.30    2.50    0.00    0.87
 1991 281    90     2     2    15.4   38.3   16597   27.4   10.9   0.1   0.2   0.3   0.3   0.3   0.6   5.5   4.2   0.0   0.0   0.2   0.6   0.6   0.5   0.5  0.72  1.16  0.64  0.00  0.00   48.74   50.50    2.50    0.00    0.87
 1991 282    91     2     2    15.4   37.9   16597   27.1   10.8   0.3   0.2   0.3   0.3   0.3   0.5   5.5   4.2   0.0   0.0   0.2   0.6   0.6   0.5   0.5  0.69  1.16  0.63  0.00  0.00   49.20   50.78    2.50    0.00    0.88
 1991 283    92     2     2    15.4   37.6   16597   27.1   10.5   0.3   0.3   0.3   0.3   0.3   0.4   5.5   4.2   0.0   0.0   0.1   0.5   0.6   0.5   0.5  0.66  1.13  0.63  0.00  0.00   49.65   51.16    2.50    0.00    0.88
 1991 284    93     2     2    15.4   37.3   16596   27.0   10.3   0.3   0.3   0.3   0.3   0.3   0.3   5.6   4.2   0.0   0.0   0.1   0.5   0.6   0.5   0.5  0.65  1.11  0.63  0.00  0.00   50.14   51.60    2.51    0.00    0.88
 1991 285    94     2     2    15.4   37.1   16596   26.9   10.2   0.3   0.3   0.3   0.3   0.3   0.3   5.6   4.2   0.0   0.0   0.1   0.5   0.6   0.5   0.5  0.63  1.09  0.62  0.00  0.00   50.69   52.08    2.51    0.00    0.89
 1991 286    95     2     2    15.4   37.0   16595   26.9   10.1   0.4   0.4   0.3   0.3   0.3   0.3   5.6   4.2   0.0   0.0   0.1   0.5   0.6   0.5   0.5  0.62  1.07  0.62  0.00  0.00   51.31   52.62    2.51    0.00    0.89
 1991 287    96     2     2    15.4   37.1   16594   27.1   10.0   0.4   0.4   0.3   0.3   0.3   0.3   5.7   4.2   0.0   0.0   0.1   0.5   0.6   0.5   0.5  0.61  1.04  0.62  0.00  0.00   52.01   53.24    2.51    0.00    0.89
 1991 288    97     2     2    15.4   37.1   16594   27.2    9.9   0.1   0.3   0.4   0.3   0.3   0.3   5.7   4.3   0.0   0.0   0.2   0.5   0.6   0.5   0.5  0.60  1.02  0.61  0.00  0.00   52.77   53.83    2.51    0.00    0.90
 1991 289    98     2     2    19.0   33.6   16593   23.5   10.2   0.4   0.1   0.2   0.2   0.2   0.3   4.2   4.5   0.0   0.0   0.0   0.6   0.7   0.6   0.5  0.60  1.00  0.61  0.00  0.00   53.51   54.23    2.51    0.00    0.90
 1991 290    99     2     2    21.3   31.8   16592   21.1   10.7   0.3   0.1   0.2   0.2   0.2   0.3   3.6   4.2   0.0   0.0   0.2   0.7   0.8   0.6   0.5  0.61  1.01  0.61  0.00  0.00   54.17   54.31    2.54    0.00    0.90
 1991 291   100     2     2    22.4   30.9   16592   20.0   10.8   0.3   0.2   0.2   0.2   0.2   0.2   3.3   4.0   0.0   0.0   0.3   0.7   0.8   0.6   0.6  0.61  1.01  0.61  0.00  0.00   54.85   54.45    2.55    0.00    0.90
 1991 292   101     2     2    22.9   30.5   16591   19.8   10.7   0.5   0.2   0.2   0.2   0.2   0.2   3.2   3.9   0.0   0.0   0.1   0.7   0.8   0.6   0.6  0.61  1.01  0.61  0.00  0.00   55.48   54.74    2.56    0.00    0.91
 1991 293   102     2     2    23.0   30.3   16590   19.9   10.4   0.4   0.3   0.2   0.2   0.3   0.3   3.2   3.9   0.0   0.0   0.1   0.5   0.7   0.6   0.6  0.60  1.01  0.60  0.00  0.00   56.08   55.13    2.57    0.00    0.91
 1991 294   103     2     2    23.1   30.2   16590   20.1   10.1   0.4   0.4   0.3   0.3   0.3   0.3   3.2   3.9   0.0   0.0   0.1   0.5   0.6   0.6   0.5  0.60  1.02  0.60  0.00  0.00   56.68   55.61    2.57    0.00    0.91
 1991 295   104     2     2    23.1   30.2   16589   20.2   10.0   0.4   0.4   0.3   0.3   0.3   0.3   3.2   3.9   0.0   0.0   0.1   0.5   0.6   0.6   0.5  0.59  1.02  0.60  0.00  0.00   57.34   56.13    2.57    0.00    0.92
 1991 296   105     2     2    23.1   30.2   16589   20.3    9.9   0.4   0.4   0.3   0.3   0.3   0.3   3.2   3.9   0.0   0.0   0.1   0.5   0.6   0.5   0.5  0.59  1.02  0.60  0.00  0.00   58.07   56.70    2.58    0.00    0.92
 1991 297   106     2     2    23.1   30.2   16588   20.3    9.9   0.3   0.4   0.3   0.3   0.3   0.3   3.2   3.9   0.0   0.0   0.2   0.5   0.6   0.5   0.5  0.59  1.02  0.59  0.00  0.00   58.80   57.20    2.58    0.00    0.92
 1991 298   107     2     2    23.1   30.3   16587   20.4    9.8   0.5   0.4   0.3   0.3   0.3   0.3   3.2   3.9   0.0   0.0   0.1   0.5   0.6   0.5   0.5  0.59  1.02  0.59  0.00  0.00   59.48   57.79    2.58    0.00    0.92
 1991 299   108     2     2    23.1   30.2   16587   20.4    9.8   0.4   0.4   0.3   0.3   0.3   0.3   3.2   3.9   0.0   0.0   0.1   0.5   0.6   0.5   0.5  0.59  1.02  0.59  0.00  0.00   60.14   58.28    2.59    0.00    0.92
 1991 300   109     2     2    23.1   30.2   16586   20.4    9.8   0.4   0.4   0.3   0.3   0.3   0.3   3.3   3.9   0.0   0.0   0.1   0.5   0.6   0.5   0.5  0.58  1.02  0.58  0.00  0.00   60.78   58.75    2.59    0.00    0.93
 1991 301   110     2     2    23.1   29.2   16585   19.6    9.6   0.4   0.4   0.3   0.3   0.3   0.3   2.9   3.9   0.0   0.0   0.1   0.5   0.6   0.5   0.5  0.58  0.97  0.58  0.00  0.00   61.37   59.20    2.59    0.00    0.93
 1991 302   111     2     2    23.1   28.3   16585   18.8    9.5   0.4   0.4   0.3   0.3   0.3   0.3   2.6   3.9   0.0   0.0   0.1   0.5   0.6   0.5   0.5  0.58  0.90  0.58  0.00  0.00   61.98   59.69    2.59    0.00    0.93
 1991 303   112     2     2    23.1   27.5   16584   18.2    9.3   0.2   0.4   0.3   0.3   0.3   0.3   2.3   3.9   0.0   0.0   0.1   0.5   0.6   0.5   0.5  0.58  0.83  0.58  0.00  0.00   62.58   60.19    2.59    0.00    0.93
 1991 304   113     2     2    23.1   26.7   16584   17.4    9.3   0.2   0.3   0.3   0.3   0.3   0.3   2.1   3.9   0.0   0.0   0.2   0.6   0.6   0.5   0.5  0.58  0.78  0.57  0.00  0.00   63.17   60.51    2.59    0.00    0.93
 1991 305   114     2     2    23.1   26.2   16583   16.9    9.3   0.3   0.3   0.3   0.3   0.3   0.3   1.9   3.9   0.0   0.0   0.3   0.6   0.6   0.5   0.5  0.58  0.73  0.57  0.00  0.00   63.74   60.84    2.60    0.00    0.93
 1991 306   115     2     2    23.1   25.6   16583   16.5    9.1   0.5   0.3   0.3   0.3   0.3   0.3   1.7   4.0   0.0   0.0   0.2   0.6   0.6   0.5   0.5  0.58  0.69  0.57  0.00  0.00   64.30   61.28    2.60    0.00    0.94
 1991 307   116     2     2    23.1   25.0   16582   16.1    8.8   0.4   0.4   0.3   0.3   0.3   0.3   1.5   4.0   0.0   0.0   0.1   0.5   0.6   0.5   0.5  0.57  0.66  0.57  0.00  0.00   64.87   61.78    2.60    0.00    0.94
 1991 308   117     2     2    23.1   24.4   16582   15.7    8.7   0.4   0.4   0.3   0.3   0.3   0.3   1.3   4.0   0.0   0.0   0.1   0.5   0.6   0.5   0.5  0.57  0.63  0.56  0.00  0.00   65.47   62.27    2.60    0.00    0.94
 1991 309   118     2     2    23.1   24.0   16581   15.4    8.6   0.4   0.4   0.3   0.3   0.3   0.3   1.2   4.0   0.0   0.0   0.1   0.5   0.6   0.5   0.5  0.57  0.61  0.56  0.00  0.00   66.10   62.77    2.60    0.00    0.95
 1991 310   119     2     2    23.1   23.7   16580   15.1    8.6   0.3   0.4   0.3   0.3   0.3   0.3   1.0   4.0   0.0   0.0   0.1   0.5   0.6   0.5   0.5  0.57  0.58  0.56  0.00  0.00   66.75   63.29    2.60    0.00    0.95
 1991 311   120     2     2    23.1   23.4   16580   14.7    8.7   0.3   0.3   0.3   0.3   0.3   0.3   0.9   4.0   0.0   0.0   0.2   0.6   0.6   0.5   0.5  0.57  0.57  0.56  0.00  0.00   67.40   63.65    2.60    0.00    0.95
 1991 312   121     2     2    23.1   23.2   16579   14.7    8.5   0.5   0.4   0.3   0.3   0.3   0.3   0.8   4.0   0.0   0.0   0.1   0.5   0.6   0.5   0.5  0.57  0.55  0.55  0.00  0.00   68.06   64.28    2.61    0.00    0.95
 1991 313   122     2     2    23.1   22.8   16579   14.4    8.4   0.4   0.4   0.3   0.3   0.3   0.3   0.7   4.0   0.0   0.0   0.1   0.5   0.6   0.5   0.5  0.57  0.54  0.55  0.00  0.00   68.70   64.79    2.61    0.00    0.96
 1991 314   123     2     2    23.1   22.6   16578   14.2    8.4   0.4   0.4   0.3   0.3   0.3   0.3   0.7   4.0   0.0   0.0   0.1   0.5   0.6   0.5   0.5  0.57  0.53  0.55  0.00  0.00   69.34   65.31    2.61    0.00    0.96
 1991 315   124     2     2    23.1   22.4   16577   14.1    8.3   0.4   0.4   0.3   0.3   0.3   0.3   0.6   4.0   0.0   0.0   0.1   0.5   0.6   0.5   0.5  0.57  0.52  0.54  0.00  0.00   69.96   65.82    2.61    0.00    0.96
 1991 316   125     2     2    23.1   22.2   16577   14.0    8.3   0.4   0.4   0.3   0.3   0.3   0.3   0.5   4.0   0.0   0.0   0.1   0.5   0.6   0.5   0.5  0.56  0.51  0.53  0.00  0.00   70.57   66.34    2.61    0.00    0.96
 1991 317   126     2     2    23.1   22.1   16576   13.9    8.2   0.4   0.4   0.3   0.3   0.3   0.3   0.5   4.0   0.0   0.0   0.1   0.5   0.6   0.5   0.5  0.56  0.50  0.52  0.00  0.00   71.13   66.83    2.61    0.00    0.97
 1991 318   127     2     2    23.1   21.9   16576   13.8    8.1   0.4   0.4   0.3   0.3   0.3   0.3   0.4   4.1   0.0   0.0   0.1   0.5   0.6   0.5   0.5  0.56  0.50  0.51  0.00  0.00   71.68   67.32    2.61    0.00    0.97
 1991 319   128     2     2    23.1   21.7   16575   13.7    8.0   0.4   0.4   0.3   0.3   0.3   0.3   0.4   4.1   0.0   0.0   0.1   0.5   0.6   0.5   0.5  0.56  0.49  0.49  0.00  0.00   72.20   67.78    2.61    0.00    0.97
 1991 320   129     2     2    23.1   21.6   16575   13.6    8.0   0.3   0.3   0.3   0.3   0.3   0.3   0.4   4.1   0.0   0.0   0.1   0.5   0.6   0.5   0.5  0.56  0.48  0.48  0.00  0.00   72.69   68.23    2.61    0.00    0.97
 1991 321   130     2     2    23.1   21.4   16574   13.5    7.9   0.4   0.3   0.3   0.3   0.3   0.3   0.3   4.1   0.0   0.0   0.1   0.5   0.6   0.5   0.5  0.56  0.48  0.47  0.00  0.00   73.18   68.68    2.61    0.00    0.98
 1991 322   131     2     2    23.1   20.9   16574   13.1    7.8   0.4   0.4   0.3   0.3   0.3   0.3   0.3   3.9   0.0   0.0   0.1   0.5   0.6   0.5   0.5  0.56  0.47  0.46  0.00  0.00   73.67   69.14    2.61    0.00    0.98
 1991 323   132     2     2    23.1   20.2   16573   12.5    7.7   0.4   0.4   0.3   0.3   0.3   0.3   0.3   3.7   0.0   0.0   0.1   0.4   0.6   0.5   0.5  0.55  0.47  0.45  0.00  0.00   74.16   69.62    2.61    0.00    0.98
 1991 324   133     2     2    23.1   19.6   16573   12.0    7.6   0.4   0.4   0.3   0.3   0.3   0.3   0.3   3.5   0.0   0.0   0.1   0.4   0.5   0.5   0.5  0.55  0.46  0.44  0.00  0.00   74.64   70.10    2.61    0.00    0.98
 1991 325   134     2     2    23.1   19.0   16572   11.5    7.5   0.3   0.4   0.3   0.3   0.3   0.3   0.3   3.3   0.0   0.0   0.1   0.4   0.5   0.5   0.5  0.55  0.45  0.43  0.00  0.00   75.10   70.58    2.61    0.00    0.99
 1991 326   135     2     2    23.1   18.5   16572   11.1    7.4   0.4   0.4   0.3   0.3   0.3   0.3   0.3   3.1   0.0   0.0   0.1   0.4   0.5   0.5   0.5  0.55  0.45  0.42  0.00  0.00   75.56   71.06    2.61    0.00    0.99
 1991 327   136     2     2    23.1   18.0   16572   10.7    7.3   0.5   0.4   0.3   0.3   0.3   0.3   0.3   2.9   0.0   0.0   0.1   0.3   0.5   0.5   0.5  0.55  0.44  0.41  0.00  0.00   76.03   71.57    2.61    0.00    0.99
 1991 328   137     2     2    23.1   17.5   16571   10.4    7.2   0.6   0.4   0.3   0.3   0.3   0.3   0.3   2.7   0.0   0.0   0.1   0.3   0.5   0.5   0.4  0.55  0.43  0.40  0.00  0.00   76.50   72.10    2.61    0.00    0.99
 1991 329   138     2     2    23.1   17.1   16571   10.0    7.1   0.2   0.2   0.4   0.4   0.3   0.3   0.3   2.5   0.0   0.0   0.1   0.3   0.5   0.4   0.4  0.55  0.43  0.39  0.00  0.00   76.96   72.59    2.61    0.00    0.99
 1991 330   139     2     2    23.1   16.9   16570    9.3    7.5   0.1   0.2   0.2   0.3   0.3   0.3   0.3   2.4   0.0   0.0   0.2   0.4   0.6   0.5   0.4  0.55  0.42  0.38  0.00  0.00   77.65   72.78    2.61    0.00    1.00
 1991 331   140     2     2    23.1   16.7   16569    8.7    7.9   0.1   0.2   0.2   0.3   0.3   0.3   0.3   2.3   0.0   0.0   0.3   0.5   0.7   0.5   0.5  0.55  0.41  0.37  0.00  0.00   78.34   72.95    2.61    0.00    1.00
 1991 332   141     2     2    23.1   16.6   16569    8.4    8.2   0.2   0.2   0.2   0.3   0.2   0.3   0.3   2.1   0.0   0.0   0.3   0.6   0.7   0.6   0.5  0.56  0.41  0.36  0.00  0.00   78.98   73.14    2.61    0.00    1.00
 1991 333   142     2     2    23.1   16.5   16568    8.4    8.2   0.5   0.3   0.3   0.3   0.3   0.3   0.3   2.0   0.0   0.0   0.1   0.7   0.7   0.6   0.5  0.56  0.40  0.35  0.00  0.00   79.60   73.50    2.61    0.00    1.01
 1991 334   143     2     2    23.1   16.3   16568    8.0    8.3   0.4   0.3   0.3   0.3   0.3   0.3   0.3   1.9   0.0   0.0   0.2   0.7   0.7   0.6   0.5  0.56  0.40  0.34  0.00  0.00   80.25   73.67    2.61    0.00    1.01
 1991 335   144     2     2    23.1   16.1   16567    7.9    8.2   0.5   0.3   0.3   0.3   0.3   0.3   0.3   1.8   0.0   0.0   0.1   0.7   0.7   0.6   0.5  0.57  0.39  0.33  0.00  0.00   80.95   74.07    2.61    0.00    1.01
 1991 336   145     2     2    23.1   15.8   16566    8.0    7.8   0.4   0.5   0.3   0.3   0.3   0.3   0.3   1.7   0.0   0.0   0.1   0.5   0.6   0.6   0.5  0.57  0.39  0.33  0.00  0.00   81.70   74.77    2.61    0.00    1.02
 1991 337   146     2     2    23.1   15.4   16566    7.7    7.7   0.4   0.4   0.3   0.3   0.3   0.3   0.3   1.6   0.0   0.0   0.1   0.5   0.6   0.6   0.5  0.57  0.38  0.32  0.00  0.00   82.48   75.43    2.61    0.00    1.02
 1991 338   147     2     2    23.1   15.1   16565    7.5    7.6   0.4   0.4   0.3   0.3   0.3   0.3   0.3   1.5   0.0   0.0   0.1   0.5   0.6   0.5   0.5  0.57  0.38  0.31  0.00  0.00   83.26   76.07    2.61    0.00    1.02
 1991 339   148     2     2    23.1   14.9   16564    7.3    7.5   0.3   0.4   0.4   0.3   0.3   0.3   0.3   1.4   0.0   0.0   0.1   0.5   0.6   0.5   0.5  0.58  0.38  0.30  0.00  0.00   84.08   76.73    2.61    0.00    1.03
 1991 340   149     2     2    23.1   14.7   16563    6.8    7.9   0.3   0.3   0.3   0.3   0.3   0.3   0.3   1.3   0.0   0.0   0.2   0.6   0.7   0.5   0.5  0.58  0.37  0.29  0.00  0.00   84.89   77.04    2.61    0.00    1.03
 1991 341   150     2     2    23.1   14.7   16563    7.0    7.7   0.7   0.3   0.3   0.3   0.3   0.3   0.3   1.2   0.0   0.0   0.0   0.7   0.6   0.5   0.5  0.58  0.37  0.28  0.00  0.00   85.72   77.72    2.61    0.00    1.03
 1991 342   151     2     2    23.1   14.3   16562    6.8    7.5   0.3   0.5   0.3   0.3   0.3   0.3   0.3   1.2   0.0   0.0   0.2   0.5   0.6   0.5   0.5  0.58  0.36  0.28  0.00  0.00   86.54   78.38    2.61    0.00    1.04
 1991 343   152     2     2    23.1   14.1   16561    6.7    7.4   0.4   0.4   0.4   0.3   0.3   0.3   0.3   1.1   0.0   0.0   0.1   0.5   0.6   0.5   0.5  0.58  0.36  0.27  0.00  0.00   87.37   79.11    2.61    0.00    1.04
 1991 344   153     2     2    23.1   13.9   16560    6.2    7.8   0.2   0.3   0.3   0.3   0.3   0.3   0.3   1.0   0.0   0.0   0.2   0.6   0.7   0.5   0.5  0.58  0.36  0.26  0.00  0.00   88.15   79.40    2.61    0.00    1.04
 1991 345   154     2     2    23.1   14.0   16560    6.0    8.0   0.5   0.3   0.3   0.3   0.3   0.3   0.3   1.0   0.0   0.0   0.1   0.7   0.8   0.6   0.5  0.58  0.35  0.26  0.00  0.00   88.94   79.73    2.61    0.00    1.04
 1991 346   155     2     2    23.1   13.9   16559    5.8    8.1   0.3   0.3   0.3   0.3   0.3   0.3   0.3   0.9   0.0   0.0   0.1   0.7   0.8   0.6   0.6  0.58  0.35  0.25  0.00  0.00   89.72   79.98    2.61    0.00    1.05
 1991 347   156     2     2    23.1   13.8   16558    5.9    7.9   0.3   0.5   0.3   0.3   0.3   0.3   0.3   0.9   0.0   0.0   0.1   0.5   0.7   0.6   0.6  0.59  0.35  0.24  0.00  0.00   90.48   80.46    2.61    0.00    1.05
 1991 348   157     2     2    23.1   13.7   16558    5.7    8.0   0.3   0.3   0.3   0.3   0.3   0.3   0.3   0.8   0.0   0.0   0.1   0.6   0.7   0.6   0.6  0.59  0.34  0.24  0.00  0.00   91.23   80.77    2.62    0.00    1.05
 1991 349   158     2     2    23.1   13.6   16557    5.4    8.3   0.3   0.3   0.3   0.3   0.3   0.3   0.3   0.8   0.0   0.0   0.2   0.7   0.8   0.6   0.6  0.59  0.34  0.23  0.00  0.00   91.95   80.93    2.62    0.00    1.06
 1991 350   159     2     2    23.1   13.7   16556    5.3    8.4   0.2   0.3   0.3   0.3   0.3   0.3   0.3   0.7   0.0   0.0   0.3   0.7   0.8   0.6   0.6  0.59  0.34  0.22  0.00  0.00   92.67   81.12    2.63    0.00    1.06
 1991 351   160     2     2    23.1   13.8   16556    5.4    8.4   0.6   0.3   0.3   0.3   0.3   0.3   0.3   0.7   0.0   0.0   0.1   0.8   0.8   0.7   0.6  0.59  0.34  0.22  0.00  0.00   93.38   81.48    2.63    0.00    1.06
 1991 352   161     2     2    23.1   13.7   16555    5.1    8.5   0.3   0.3   0.3   0.2   0.3   0.3   0.3   0.7   0.0   0.0   0.1   0.8   0.8   0.7   0.6  0.59  0.33  0.21  0.00  0.00   94.11   81.69    2.64    0.00    1.07
 1991 353   162     2     2    23.1   13.5   16554    5.1    8.4   0.2   0.3   0.3   0.3   0.3   0.3   0.3   0.6   0.0   0.0   0.1   0.7   0.8   0.7   0.6  0.59  0.33  0.21  0.00  0.00   94.88   81.98    2.65    0.00    1.07
 1991 354   163     2     2    23.1   13.5   16554    4.9    8.6   0.3   0.3   0.3   0.3   0.3   0.3   0.3   0.6   0.0   0.0   0.2   0.8   0.8   0.7   0.6  0.60  0.33  0.20  0.00  0.00   95.68   82.15    2.66    0.00    1.08
 1991 355   164     2     2    23.1   13.7   16553    5.1    8.6   0.7   0.3   0.3   0.3   0.3   0.2   0.3   0.6   0.0   0.0   0.0   0.8   0.9   0.7   0.7  0.61  0.33  0.20  0.00  0.00   96.54   82.54    2.67    0.00    1.08
 1991 356   165     2     2    23.1   13.5   16552    5.2    8.3   0.3   0.6   0.3   0.3   0.3   0.3   0.3   0.6   0.0   0.0   0.2   0.5   0.8   0.7   0.7  0.61  0.33  0.19  0.00  0.00   97.44   83.06    2.67    0.00    1.09
[...]
 1992 293   102     2     2     0.0   67.3   16598   56.1   11.2   1.4   4.8   5.5   7.5   5.1   1.8   2.2   1.8   0.0   0.0   0.1   0.4   0.5   0.4   0.5  1.66  0.41  0.17  0.00  0.00   47.69   61.28    0.00    0.00    0.46
 1992 294   103     2     2     0.0   66.7   16598   55.4   11.2   1.1   4.8   5.4   7.4   5.0   1.8   2.2   1.8   0.0   0.0   0.1   0.4   0.5   0.4   0.5  1.66  0.40  0.17  0.00  0.00   48.16   61.76    0.00    0.00    0.46
 1992 295   104     2     2     0.0   61.9   16598   50.7   11.1   0.9   3.8   4.3   6.8   4.7   1.8   2.2   1.8   0.0   0.0   0.1   0.4   0.5   0.4   0.5  1.64  0.40  0.17  0.00  0.00   48.62   62.20    0.00    0.00    0.46
 1992 296   105     2     2     0.0   58.2   16597   47.2   11.0   0.9   3.1   3.6   6.4   4.4   1.8   2.2   1.8   0.0   0.0   0.1   0.5   0.5   0.4   0.5  1.61  0.40  0.17  0.00  0.00   49.07   62.64    0.00    0.00    0.47
 1992 297   106     2     2     0.0   54.5   16597   43.7   10.8   0.8   2.5   2.9   5.9   4.1   1.7   2.2   1.8   0.0   0.0   0.1   0.5   0.5   0.4   0.5  1.56  0.40  0.17  0.00  0.00   49.52   63.10    0.00    0.00    0.47
 1992 298   107     2     2     0.0   49.6   16596   39.2   10.4   0.7   1.8   2.0   5.3   3.7   1.6   2.3   1.8   0.0   0.0   0.1   0.4   0.5   0.4   0.5  1.50  0.40  0.17  0.00  0.00   49.97   63.58    0.00    0.00    0.47
 1992 299   108     2     2     0.0   43.7   16596   33.8   10.0   0.5   1.1   1.2   4.5   3.2   1.5   2.3   1.8   0.0   0.0   0.1   0.4   0.5   0.4   0.5  1.40  0.40  0.17  0.00  0.00   50.43   64.08    0.00    0.00    0.47
 1992 300   109     2     2     0.0   41.9   16595   32.2    9.7   0.5   1.0   1.0   4.2   3.0   1.4   2.3   1.8   0.0   0.0   0.1   0.4   0.5   0.4   0.5  1.35  0.40  0.16  0.00  0.00   50.89   64.59    0.00    0.00    0.48
 1992 301   110     2     2     0.0   36.0   16595   26.9    9.1   0.5   0.4   0.4   3.3   2.3   1.2   2.3   1.8   0.0   0.0   0.1   0.3   0.5   0.4   0.5  1.22  0.39  0.16  0.00  0.00   51.35   65.11    0.00    0.00    0.48
 1992 302   111     2     2     0.0   32.3   16594   23.8    8.5   0.6   0.4   0.3   2.7   1.8   1.0   2.3   1.8   0.0   0.0   0.1   0.3   0.5   0.4   0.4  1.10  0.39  0.16  0.00  0.00   51.80   65.62    0.00    0.00    0.48
 1992 303   112     2     2     0.0   29.4   16594   21.4    8.1   0.4   0.3   0.3   2.2   1.5   0.8   2.3   1.8   0.0   0.0   0.1   0.3   0.5   0.3   0.4  1.00  0.39  0.16  0.00  0.00   52.22   66.06    0.00    0.00    0.48
 1992 304   113     2     2     0.0   27.3   16594   19.6    7.7   0.3   0.3   0.3   1.8   1.2   0.7   2.3   1.8   0.0   0.0   0.1   0.3   0.5   0.3   0.4  0.92  0.39  0.16  0.00  0.00   52.59   66.46    0.00    0.00    0.48
 1992 305   114     2     2     0.0   25.6   16593   18.3    7.3   0.3   0.3   0.3   1.6   1.0   0.6   2.3   1.9   0.0   0.0   0.1   0.2   0.5   0.3   0.4  0.85  0.39  0.16  0.00  0.00   52.94   66.85    0.00    0.00    0.49
 1992 306   115     2     2     0.0   24.4   16593   17.3    7.0   0.4   0.3   0.3   1.4   0.8   0.5   2.4   1.9   0.0   0.0   0.1   0.2   0.5   0.3   0.4  0.80  0.39  0.16  0.00  0.00   53.26   67.20    0.00    0.00    0.49
 1992 307   116     2     2     0.0   23.4   16593   16.6    6.8   0.5   0.3   0.3   1.2   0.7   0.4   2.4   1.9   0.0   0.0   0.1   0.2   0.5   0.3   0.4  0.75  0.39  0.16  0.00  0.00   53.56   67.53    0.00    0.00    0.49
 1992 308   117     2     2     0.0   22.6   16592   16.1    6.6   0.5   0.4   0.3   1.1   0.6   0.4   2.4   1.9   0.0   0.0   0.1   0.2   0.5   0.3   0.4  0.71  0.39  0.16  0.00  0.00   53.87   67.90    0.00    0.00    0.49
 1992 309   118     2     2     0.0   21.9   16592   15.5    6.5   0.3   0.3   0.3   1.0   0.6   0.3   2.4   1.9   0.0   0.0   0.2   0.2   0.5   0.3   0.4  0.68  0.39  0.16  0.00  0.00   54.25   68.21    0.00    0.00    0.49
 1992 310   119     2     2     0.0   21.5   16592   15.2    6.3   0.4   0.3   0.3   0.9   0.5   0.3   2.4   1.9   0.0   0.0   0.1   0.2   0.5   0.3   0.4  0.65  0.39  0.15  0.00  0.00   54.61   68.62    0.00    0.00    0.49
 1992 311   120     2     2     0.0   21.1   16591   15.0    6.2   0.4   0.3   0.3   0.9   0.5   0.3   2.4   1.9   0.0   0.0   0.1   0.3   0.4   0.3   0.4  0.63  0.38  0.15  0.00  0.00   54.93   68.96    0.00    0.00    0.50
 1992 312   121     2     2     0.0   20.8   16591   14.8    6.0   0.3   0.3   0.3   0.8   0.5   0.3   2.4   1.9   0.0   0.0   0.1   0.3   0.4   0.3   0.4  0.61  0.38  0.15  0.00  0.00   55.21   69.26    0.00    0.00    0.50
 1992 313   122     2     2     0.0   20.6   16591   14.7    5.9   0.3   0.3   0.3   0.8   0.4   0.3   2.4   1.9   0.0   0.0   0.1   0.2   0.4   0.3   0.3  0.60  0.38  0.15  0.00  0.00   55.45   69.54    0.00    0.00    0.50
 1992 314   123     2     2     0.0   20.5   16591   14.7    5.8   0.4   0.3   0.3   0.8   0.4   0.3   2.4   1.9   0.0   0.0   0.1   0.2   0.4   0.3   0.3  0.58  0.38  0.15  0.00  0.00   55.70   69.82    0.00    0.00    0.51
 1992 315   124     2     2     0.0   20.4   16590   14.7    5.7   0.5   0.3   0.3   0.7   0.4   0.3   2.4   1.9   0.0   0.0   0.1   0.2   0.4   0.3   0.3  0.57  0.38  0.15  0.00  0.00   55.96   70.12    0.00    0.00    0.51
 1992 316   125     2     2     0.0   20.4   16590   14.8    5.6   0.5   0.3   0.3   0.7   0.4   0.3   2.5   1.9   0.0   0.0   0.1   0.2   0.4   0.3   0.3  0.56  0.38  0.15  0.00  0.00   56.23   70.44    0.00    0.00    0.51
 1992 317   126     2     2     0.0   20.2   16590   14.7    5.5   0.3   0.3   0.3   0.7   0.4   0.3   2.5   1.9   0.0   0.0   0.1   0.2   0.4   0.2   0.3  0.56  0.38  0.15  0.00  0.00   56.52   70.76    0.00    0.00    0.51
 1992 318   127     2     2     0.0   20.2   16590   14.8    5.4   0.4   0.3   0.3   0.7   0.4   0.3   2.5   1.9   0.0   0.0   0.1   0.2   0.4   0.2   0.3  0.55  0.38  0.15  0.00  0.00   56.82   71.12    0.00    0.00    0.51
 1992 319   128     2     2     0.0   20.3   16589   14.9    5.3   0.5   0.3   0.3   0.7   0.4   0.3   2.5   1.9   0.0   0.0   0.1   0.2   0.4   0.2   0.3  0.55  0.38  0.15  0.00  0.00   57.11   71.47    0.00    0.00    0.51
 1992 320   129     2     2     0.0   19.9   16589   14.6    5.3   0.3   0.4   0.3   0.7   0.4   0.3   2.3   1.9   0.0   0.0   0.1   0.2   0.4   0.2   0.3  0.54  0.38  0.15  0.00  0.00   57.39   71.80    0.00    0.00    0.52
 1992 321   130     2     2     0.0   19.4   16589   14.0    5.4   0.2   0.3   0.4   0.8   0.4   0.3   2.1   1.9   0.0   0.0   0.2   0.3   0.4   0.2   0.3  0.54  0.38  0.15  0.00  0.00   57.84   72.09    0.00    0.00    0.52
 1992 322   131     2     2     0.0   18.9   16588   13.6    5.3   0.5   0.3   0.4   0.8   0.4   0.3   1.8   1.9   0.0   0.0   0.1   0.3   0.4   0.2   0.3  0.54  0.38  0.15  0.00  0.00   58.25   72.55    0.00    0.00    0.52
 1992 323   132     2     2     0.0   18.3   16588   13.0    5.3   0.3   0.3   0.4   0.8   0.4   0.3   1.6   1.9   0.0   0.0   0.1   0.3   0.3   0.2   0.3  0.54  0.38  0.15  0.00  0.00   58.62   72.90    0.00    0.00    0.52
 1992 324   133     2     2     0.0   17.9   16588   12.6    5.3   0.4   0.3   0.4   0.8   0.4   0.3   1.4   1.9   0.0   0.0   0.1   0.3   0.3   0.2   0.3  0.53  0.37  0.15  0.00  0.00   58.94   73.25    0.00    0.00    0.52
 1992 325   134     2     2     0.0   17.4   16587   12.2    5.2   0.4   0.3   0.4   0.8   0.4   0.3   1.2   2.0   0.0   0.0   0.1   0.3   0.3   0.2   0.2  0.53  0.37  0.15  0.00  0.00   59.24   73.59    0.00    0.00    0.53
 1992 326   135     2     2     0.0   17.0   16587   11.9    5.1   0.4   0.3   0.3   0.8   0.4   0.3   1.1   2.0   0.0   0.0   0.1   0.3   0.3   0.2   0.2  0.53  0.37  0.14  0.00  0.00   59.52   73.92    0.00    0.00    0.53
 1992 327   136     2     2     0.0   16.7   16587   11.6    5.1   0.4   0.3   0.3   0.8   0.4   0.3   1.0   2.0   0.0   0.0   0.1   0.3   0.3   0.2   0.2  0.53  0.36  0.14  0.00  0.00   59.80   74.24    0.00    0.00    0.53
 1992 328   137     2     2     0.0   16.5   16586   11.4    5.0   0.5   0.3   0.3   0.9   0.5   0.3   0.9   2.0   0.0   0.0   0.1   0.3   0.3   0.2   0.2  0.53  0.36  0.14  0.00  0.00   60.05   74.54    0.00    0.00    0.53
 1992 329   138     2     2     0.0   16.2   16586   11.3    5.0   0.6   0.3   0.3   0.9   0.5   0.3   0.8   2.0   0.0   0.0   0.1   0.2   0.3   0.2   0.2  0.53  0.35  0.14  0.00  0.00   60.29   74.83    0.00    0.00    0.54
 1992 330   139     2     2     0.0   16.1   16586   11.2    4.9   0.6   0.3   0.4   0.9   0.5   0.3   0.7   2.0   0.0   0.0   0.1   0.2   0.3   0.2   0.2  0.52  0.35  0.14  0.00  0.00   60.51   75.09    0.00    0.00    0.54
 1992 331   140     2     2     0.0   16.0   16586   11.1    4.8   0.7   0.3   0.4   0.9   0.5   0.3   0.6   2.0   0.0   0.0   0.1   0.2   0.3   0.2   0.2  0.52  0.34  0.14  0.00  0.00   60.72   75.34    0.00    0.00    0.54
 1992 332   141     2     2     0.0   15.9   16586   11.1    4.8   0.7   0.3   0.4   0.9   0.5   0.3   0.6   2.0   0.0   0.0   0.0   0.2   0.3   0.2   0.2  0.52  0.34  0.14  0.00  0.00   60.92   75.59    0.00    0.00    0.54
 1992 333   142     2     2     0.0   15.9   16585   11.2    4.7   0.8   0.3   0.4   0.9   0.5   0.3   0.5   2.0   0.0   0.0   0.0   0.2   0.3   0.2   0.2  0.52  0.33  0.14  0.00  0.00   61.13   75.85    0.00    0.00    0.54
 1992 334   143     2     2     0.0   15.9   16585   11.2    4.7   0.8   0.3   0.4   0.9   0.5   0.3   0.5   2.0   0.0   0.0   0.0   0.2   0.3   0.2   0.2  0.52  0.33  0.14  0.00  0.00   61.34   76.11    0.00    0.00    0.54
 1992 335   144     2     2     0.0   15.9   16585   11.3    4.6   0.4   0.6   0.5   0.9   0.5   0.3   0.4   2.0   0.0   0.0   0.0   0.2   0.3   0.2   0.2  0.52  0.32  0.14  0.00  0.00   61.55   76.36    0.00    0.00    0.54
 1992 336   145     2     2     0.0   15.8   16585   11.0    4.8   0.3   0.3   0.5   1.0   0.6   0.3   0.4   2.0   0.0   0.0   0.2   0.3   0.3   0.2   0.2  0.52  0.31  0.14  0.00  0.00   61.94   76.60    0.00    0.00    0.54
 1992 337   146     2     2     0.0   16.0   16584   11.2    4.8   0.5   0.3   0.5   1.0   0.6   0.3   0.4   2.0   0.0   0.0   0.1   0.3   0.3   0.2   0.2  0.52  0.31  0.14  0.00  0.00   62.33   77.01    0.00    0.00    0.54
 1992 338   147     2     2     0.0   15.7   16584   11.0    4.8   0.4   0.4   0.5   1.0   0.6   0.3   0.4   1.9   0.0   0.0   0.1   0.3   0.3   0.2   0.2  0.52  0.30  0.14  0.00  0.00   62.69   77.35    0.00    0.00    0.55
 1992 339   148     2     2     0.0   15.4   16584   10.7    4.7   0.4   0.4   0.5   1.0   0.6   0.3   0.4   1.8   0.0   0.0   0.1   0.3   0.3   0.2   0.2  0.52  0.30  0.14  0.00  0.00   63.01   77.72    0.00    0.00    0.55
 1992 340   149     2     2     0.0   15.1   16583   10.4    4.6   0.4   0.4   0.5   1.0   0.6   0.3   0.3   1.7   0.0   0.0   0.1   0.3   0.3   0.2   0.2  0.52  0.29  0.14  0.00  0.00   63.29   78.06    0.00    0.00    0.55
 1992 341   150     2     2     0.0   14.8   16583   10.2    4.6   0.3   0.4   0.5   1.0   0.6   0.3   0.3   1.6   0.0   0.0   0.1   0.3   0.3   0.2   0.2  0.51  0.29  0.14  0.00  0.00   63.56   78.38    0.00    0.00    0.55
 1992 342   151     2     2     0.0   14.6   16583    9.8    4.7   0.3   0.3   0.5   1.0   0.6   0.3   0.3   1.5   0.0   0.0   0.1   0.4   0.3   0.2   0.2  0.51  0.28  0.14  0.00  0.00   63.96   78.63    0.00    0.00    0.56
 1992 343   152     2     2     0.0   14.5   16582    9.7    4.7   0.5   0.4   0.4   1.1   0.6   0.3   0.3   1.4   0.0   0.0   0.1   0.4   0.3   0.2   0.2  0.51  0.27  0.14  0.00  0.00   64.38   79.06    0.00    0.00    0.56
 1992 344   153     2     2     0.0   14.2   16582    9.5    4.7   0.4   0.4   0.4   1.1   0.7   0.3   0.3   1.3   0.0   0.0   0.1   0.4   0.3   0.2   0.2  0.51  0.27  0.14  0.00  0.00   64.79   79.48    0.00    0.00    0.56
 1992 345   154     2     2     0.0   13.9   16581    9.2    4.7   0.4   0.4   0.3   1.1   0.7   0.3   0.3   1.3   0.0   0.0   0.1   0.4   0.3   0.2   0.2  0.51  0.26  0.14  0.00  0.00   65.16   79.89    0.00    0.00    0.56
 1992 346   155     2     2     0.0   13.6   16581    9.0    4.6   0.4   0.4   0.3   1.1   0.7   0.3   0.3   1.2   0.0   0.0   0.1   0.4   0.3   0.2   0.2  0.51  0.26  0.13  0.00  0.00   65.49   80.27    0.00    0.00    0.57
 1992 347   156     2     2     0.0   13.4   16581    8.8    4.5   0.4   0.4   0.3   1.1   0.7   0.3   0.3   1.1   0.0   0.0   0.1   0.3   0.3   0.1   0.2  0.51  0.25  0.13  0.00  0.00   65.78   80.63    0.00    0.00    0.57
 1992 348   157     2     2     0.0   13.2   16581    8.8    4.5   0.5   0.4   0.3   1.1   0.7   0.3   0.3   1.0   0.0   0.0   0.1   0.3   0.3   0.1   0.2  0.51  0.25  0.13  0.00  0.00   66.05   80.97    0.00    0.00    0.57
 1992 349   158     2     2     0.0   13.1   16580    8.7    4.4   0.6   0.3   0.3   1.1   0.7   0.3   0.3   1.0   0.0   0.0   0.0   0.3   0.3   0.1   0.2  0.51  0.24  0.13  0.00  0.00   66.31   81.30    0.00    0.00    0.57
 1992 350   159     2     2     0.0   13.0   16580    8.7    4.3   0.6   0.3   0.3   1.1   0.7   0.3   0.3   0.9   0.0   0.0   0.0   0.2   0.3   0.1   0.2  0.51  0.24  0.13  0.00  0.00   66.56   81.61    0.00    0.00    0.57
 1992 351   160     2     2     0.0   12.9   16580    8.6    4.3   0.7   0.3   0.3   1.2   0.7   0.3   0.3   0.9   0.0   0.0   0.0   0.2   0.3   0.1   0.2  0.51  0.24  0.13  0.00  0.00   66.80   81.90    0.00    0.00    0.57
 1992 352   161     2     2     0.0   12.8   16580    8.6    4.2   0.8   0.3   0.3   1.2   0.7   0.3   0.3   0.8   0.0   0.0   0.0   0.2   0.3   0.1   0.2  0.51  0.23  0.12  0.00  0.00   67.04   82.19    0.00    0.00    0.58
 1992 353   162     2     2     0.0   12.8   16579    8.6    4.2   0.8   0.3   0.3   1.2   0.7   0.3   0.3   0.8   0.0   0.0   0.0   0.2   0.3   0.1   0.2  0.50  0.23  0.12  0.00  0.00   67.27   82.46    0.00    0.00    0.58
 1992 354   163     2     2     0.0   12.8   16579    8.6    4.1   0.8   0.3   0.3   1.2   0.8   0.3   0.3   0.7   0.0   0.0   0.0   0.2   0.3   0.1   0.2  0.50  0.22  0.12  0.00  0.00   67.49   82.73    0.00    0.00    0.58
 1992 355   164     2     2     0.0   12.8   16579    8.7    4.1   0.9   0.3   0.3   1.2   0.8   0.3   0.3   0.7   0.0   0.0   0.0   0.2   0.3   0.1   0.2  0.50  0.22  0.12  0.00  0.00   67.71   82.98    0.00    0.00    0.58
 1992 356   165     2     2     0.0   12.8   16579    8.7    4.1   0.9   0.3   0.4   1.2   0.8   0.3   0.3   0.6   0.0   0.0   0.0   0.1   0.3   0.1   0.2  0.50  0.21  0.12  0.00  0.00   67.94   83.25    0.00    0.00    0.58
 1992 357   166     2     2     0.0   12.8   16579    8.8    4.0   1.0   0.3   0.4   1.2   0.8   0.3   0.3   0.6   0.0   0.0   0.0   0.1   0.3   0.1   0.1  0.50  0.21  0.11  0.00  0.00   68.16   83.51    0.00    0.00    0.58
 1992 358   167     2     2     0.0   12.9   16578    8.8    4.0   0.9   0.3   0.4   1.2   0.8   0.3   0.3   0.6   0.0   0.0   0.1   0.1   0.3   0.1   0.1  0.50  0.21  0.11  0.00  0.00   68.42   83.77    0.00    0.00    0.58
 1992 359   168     2     2     0.0   13.0   16578    9.0    4.0   0.6   0.6   0.5   1.3   0.8   0.3   0.3   0.5   0.0   0.0   0.0   0.1   0.3   0.1   0.1  0.50  0.20  0.11  0.00  0.00   68.67   84.09    0.00    0.00    0.58
 1992 360   169     2     2     0.0   12.8   16578    8.7    4.1   0.3   0.3   0.5   1.3   0.8   0.3   0.3   0.5   0.0   0.0   0.2   0.2   0.3   0.1   0.1  0.50  0.20  0.11  0.00  0.00   69.10   84.34    0.00    0.00    0.58
 1992 361   170     2     2     0.0   13.0   16577    8.9    4.2   0.5   0.3   0.5   1.3   0.8   0.4   0.3   0.5   0.0   0.0   0.1   0.3   0.3   0.1   0.1  0.50  0.19  0.11  0.00  0.00   69.52   84.74    0.00    0.00    0.58
 1992 362   171     2     2     0.0   13.0   16577    8.8    4.2   0.4   0.4   0.5   1.3   0.8   0.4   0.3   0.5   0.0   0.0   0.1   0.3   0.3   0.1   0.1  0.50  0.19  0.11  0.00  0.00   69.88   85.07    0.00    0.00    0.59
 1992 363   172     2     2     0.0   13.0   16577    8.9    4.1   0.4   0.4   0.5   1.3   0.9   0.4   0.3   0.4   0.0   0.0   0.1   0.3   0.3   0.1   0.1  0.50  0.19  0.10  0.00  0.00   70.19   85.43    0.00    0.00    0.59
 1992 364   173     2     2     0.0   13.0   16576    9.0    4.1   0.5   0.4   0.5   1.3   0.9   0.4   0.3   0.4   0.0   0.0   0.1   0.3   0.3   0.1   0.1  0.50  0.18  0.10  0.00  0.00   70.47   85.77    0.00    0.00    0.59
 1992 365   174     2     2     0.0   13.0   16576    9.0    4.0   0.6   0.3   0.5   1.3   0.9   0.4   0.3   0.4   0.0   0.0   0.1   0.3   0.3   0.1   0.1  0.50  0.18  0.10  0.00  0.00   70.73   86.09    0.00    0.00    0.59
 1992 366   175     2     2     0.0   12.9   16576    8.9    4.0   0.0   0.3   0.7   1.3   0.9   0.4   0.3   0.4   0.0   0.0   0.1   0.2   0.3   0.1   0.1  0.49  0.18  0.10  0.00  0.00   71.00   86.37    0.00    0.00    0.59
 1993 001   176     2     2     0.0   12.7   16575    8.4    4.3   0.1   0.1   0.1   0.9   1.3   0.5   0.3   0.4   0.0   0.0   0.1   0.4   0.4   0.1   0.1  0.49  0.18  0.10  0.00  0.00   71.50   86.60    0.00    0.00    0.60
 1993 002   177     2     2     0.0   12.3   16575    7.6    4.7   0.1   0.1   0.1   0.7   1.1   0.5   0.3   0.4   0.0   0.0   0.2   0.5   0.5   0.2   0.2  0.49  0.17  0.10  0.00  0.00   72.03   86.69    0.00    0.00    0.60
 1993 003   178     2     2     0.0   11.9   16574    6.8    5.1   0.2   0.1   0.1   0.6   0.9   0.5   0.3   0.4   0.0   0.0   0.3   0.6   0.6   0.2   0.2  0.49  0.17  0.09  0.00  0.00   72.53   86.79    0.00    0.00    0.60
 1993 004   179     2     2     0.0   11.5   16574    6.1    5.4   0.2   0.2   0.1   0.4   0.7   0.5   0.3   0.3   0.0   0.0   0.4   0.7   0.6   0.2   0.2  0.50  0.17  0.09  0.00  0.00   73.03   86.91    0.00    0.00    0.61
 1993 005   180     2     2     0.0   11.2   16573    5.7    5.5   0.6   0.2   0.1   0.3   0.6   0.4   0.4   0.3   0.0   0.0   0.1   0.7   0.7   0.2   0.2  0.50  0.17  0.09  0.00  0.00   73.56   87.22    0.00    0.00    0.61
 1993 006   181     2     2     0.0   10.6   16573    5.0    5.6   0.4   0.2   0.1   0.2   0.4   0.3   0.4   0.3   0.0   0.0   0.1   0.7   0.7   0.3   0.2  0.50  0.16  0.09  0.00  0.00   74.16   87.42    0.01    0.00    0.62
 1993 007   182     2     2     0.0   10.3   16572    4.8    5.5   0.4   0.4   0.2   0.3   0.3   0.3   0.3   0.3   0.0   0.0   0.1   0.5   0.7   0.3   0.3  0.50  0.16  0.09  0.00  0.00   74.82   87.86    0.01    0.00    0.62
 1993 008   183     2     2     0.0   10.1   16571    4.6    5.5   0.2   0.4   0.3   0.3   0.3   0.3   0.3   0.3   0.0   0.0   0.1   0.5   0.6   0.3   0.3  0.51  0.16  0.09  0.00  0.00   75.54   88.37    0.01    0.00    0.63
 1993 009   184     2     2     0.0   10.3   16571    4.3    5.9   0.4   0.3   0.3   0.2   0.2   0.3   0.3   0.3   0.0   0.0   0.1   0.6   0.7   0.4   0.3  0.52  0.15  0.09  0.00  0.00   76.30   88.58    0.01    0.00    0.63
 1993 010   185     2     2     0.0   10.5   16570    4.3    6.2   0.4   0.3   0.3   0.3   0.2   0.3   0.3   0.3   0.0   0.0   0.1   0.7   0.7   0.4   0.3  0.53  0.15  0.08  0.00  0.00   77.09   88.85    0.01    0.00    0.63
 1993 011   186     2     2     0.0   10.6   16569    4.6    6.0   0.4   0.5   0.4   0.3   0.3   0.3   0.3   0.3   0.0   0.0   0.1   0.5   0.7   0.5   0.4  0.53  0.15  0.08  0.00  0.00   77.89   89.47    0.01    0.00    0.63
 1993 012   187     2     2     0.0   10.6   16569    4.6    6.0   0.4   0.4   0.3   0.3   0.3   0.3   0.3   0.3   0.0   0.0   0.1   0.5   0.6   0.5   0.4  0.54  0.15  0.08  0.00  0.00   78.71   90.09    0.01    0.00    0.64
 1993 013   188     2     2     0.0   11.4   16568    5.3    6.2   0.6   0.6   0.4   0.3   0.3   0.3   0.3   0.3   0.0   0.0   0.1   0.5   0.7   0.5   0.4  0.56  0.15  0.08  0.00  0.00   79.57   90.74    0.01    0.00    0.64
 1993 014   189     2     2     0.0   12.3   16567    6.0    6.4   0.8   0.8   0.5   0.4   0.3   0.3   0.3   0.3   0.0   0.0   0.1   0.5   0.8   0.5   0.4  0.57  0.14  0.08  0.00  0.00   80.48   91.44    0.01    0.00    0.64
