*SOIL NITROGEN DAILY OUTPUT FILE

*DSSAT Cropping System Model Ver. 4.0.2.000               Jul 19, 2016; 16:40:54

*RUN   1        : UYMZ                    
 MODEL          : MZCER040 - Maize           
 EXPERIMENT     : UYMZ0037 MZ    late to create DSS                             
 TREATMENT  1   : UYMZ                    

@YEAR DOY   DAS  NAPC  NI#M    NLCC   NIAD    NOAD   NITD   NHTD  NI1D  NI2D  NI3D  NI4D  NI5D  NI6D  NI7D  NI8D  NI9D  NI10  NH1D  NH2D  NH3D  NH4D  NH5D  NH6D  NH7D  NH8D  NH9D  NH10    NMNC    NITC    NDNC    NIMC    AMLC
 1990 184     0     0     0     0.0   99.3   16646   76.3   22.9  15.9  15.2  15.1   8.6   4.6   0.0   0.1   0.1   0.0   0.0   0.7   1.3   1.5   1.4   1.4  1.50  1.47  1.45  0.00  0.00    0.49    1.52    0.00    0.00    0.00
 1990 185     1     0     0     0.0   99.7   16645   77.5   22.2  16.3  15.4  15.2   8.7   4.6   0.0   0.1   0.1   0.0   0.0   0.4   1.2   1.4   1.4   1.4  1.51  1.43  1.41  0.00  0.00    0.97    2.73    0.00    0.00    0.00
 1990 186     2     0     0     0.0  100.2   16645   78.6   21.6  16.5  15.6  15.4   8.8   4.7   0.1   0.1   0.2   0.0   0.0   0.2   1.1   1.4   1.3   1.4  1.51  1.40  1.37  0.00  0.00    1.45    3.80    0.00    0.00    0.00
 1990 187     3     0     0     0.0  100.7   16644   79.6   21.1  16.6  15.8  15.5   8.8   4.8   0.1   0.2   0.2   0.0   0.0   0.2   1.0   1.4   1.3   1.3  1.51  1.37  1.33  0.00  0.00    1.94    4.80    0.00    0.00    0.00
 1990 188     4    24     2     0.0  125.2   16644   80.6   44.5  16.8  15.9  15.6   8.9   4.8   0.1   0.2   0.2   0.0   0.0  43.2   0.9   1.4   1.3   1.3  1.51  1.34  1.29  0.00  0.00    2.45    5.78    0.00    0.00    0.06
 1990 189     5    24     2     0.0  125.6   16643   96.3   29.3  43.5  16.1  15.7   9.0   4.9   0.1   0.3   0.3   0.0   0.0  16.5   0.9   1.4   1.2   1.2  1.52  1.31  1.25  0.00  0.00    2.96   21.45    0.00    0.00    0.10
 1990 190     6    24     2     0.0  126.1   16643  103.3   22.8  54.4  16.2  15.8   9.1   4.9   0.1   0.3   0.3   0.0   0.0   5.6   0.8   1.3   1.2   1.2  1.52  1.28  1.21  0.00  0.00    3.50   28.39    0.00    0.00    0.14
 1990 191     7    24     2     0.0  126.6   16642  106.2   20.4  58.2  16.4  16.0   9.1   5.0   0.1   0.4   0.4   0.0   0.0   1.8   0.8   1.3   1.1   1.2  1.52  1.25  1.17  0.00  0.00    4.04   31.35    0.00    0.00    0.19
 1990 192     8    24     2     0.0  127.1   16641  107.7   19.4  59.4  16.5  16.1   9.2   5.0   0.2   0.4   0.4   0.0   0.0   0.7   0.7   1.3   1.1   1.1  1.53  1.22  1.14  0.00  0.00    4.56   32.81    0.00    0.00    0.23
 1990 193     9    24     2     0.0  127.6   16641  108.7   18.8  59.8  16.6  16.2   9.3   5.1   0.2   0.4   0.5   0.0   0.0   0.3   0.7   1.3   1.1   1.1  1.53  1.19  1.10  0.00  0.00    5.07   33.82    0.00    0.00    0.27
 1990 194    10    24     2     0.0  128.0   16640  109.6   18.5  60.0  16.7  16.3   9.3   5.1   0.2   0.5   0.5   0.0   0.0   0.1   0.6   1.3   1.0   1.1  1.53  1.17  1.07  0.00  0.00    5.59   34.68    0.00    0.00    0.30
 1990 195    11    24     2     0.0  128.5   16640  110.4   18.2  60.1  16.8  16.4   9.4   5.2   0.2   0.5   0.5   0.0   0.0   0.1   0.6   1.3   1.0   1.0  1.53  1.14  1.04  0.00  0.00    6.10   35.46    0.00    0.00    0.34
 1990 196    12    24     2     0.0  129.0   16639  111.1   17.9  60.1  16.9  16.5   9.4   5.2   0.2   0.5   0.6   0.0   0.0   0.0   0.6   1.3   1.0   1.0  1.54  1.12  1.01  0.00  0.00    6.61   36.22    0.00    0.00    0.37
 1990 197    13    24     2     0.0  129.5   16639  111.9   17.7  60.2  17.0  16.6   9.5   5.3   0.3   0.6   0.6   0.0   0.0   0.1   0.6   1.3   1.0   1.0  1.54  1.09  0.98  0.00  0.00    7.15   36.98    0.00    0.00    0.38
 1990 198    14    24     2     0.0  130.1   16638  112.6   17.4  60.3  17.1  16.7   9.5   5.3   0.3   0.6   0.6   0.0   0.0   0.1   0.6   1.2   0.9   1.0  1.54  1.07  0.95  0.00  0.00    7.68   37.73    0.00    0.00    0.38
 1990 199    15    24     2     0.0  130.6   16638  113.4   17.2  60.4  17.2  16.8   9.6   5.4   0.3   0.6   0.7   0.0   0.0   0.1   0.6   1.2   0.9   0.9  1.54  1.05  0.92  0.00  0.00    8.21   38.48    0.00    0.00    0.38
 1990 200    16    24     2     0.0  131.1   16637  114.1   17.0  59.6  17.7  16.9   9.6   5.4   0.3   0.7   0.7   0.0   0.0   0.1   0.5   1.2   0.9   0.9  1.55  1.03  0.90  0.00  0.00    8.70   39.18    0.00    0.00    0.38
 1990 201    17    24     2     0.0  131.5   16637  114.7   16.8  59.5  17.8  17.0   9.7   5.4   0.3   0.7   0.7   0.0   0.0   0.1   0.5   1.2   0.9   0.9  1.55  1.01  0.87  0.00  0.00    9.14   39.81    0.00    0.00    0.38
 1990 202    18    24     2     0.0  131.9   16637  115.3   16.6  59.6  17.9  17.1   9.7   5.5   0.3   0.7   0.7   0.0   0.0   0.1   0.5   1.2   0.9   0.9  1.55  0.99  0.85  0.00  0.00    9.53   40.39    0.00    0.00    0.39
 1990 203    19    24     2     0.0  132.2   16636  115.8   16.4  59.6  17.9  17.2   9.8   5.5   0.4   0.8   0.8   0.0   0.0   0.1   0.5   1.2   0.8   0.9  1.55  0.97  0.82  0.00  0.00    9.87   40.93    0.00    0.00    0.39
 1990 204    20    24     2     0.0  132.5   16636  116.3   16.2  59.7  18.0  17.3   9.8   5.5   0.4   0.8   0.8   0.0   0.0   0.1   0.5   1.2   0.8   0.9  1.55  0.95  0.80  0.00  0.00   10.18   41.42    0.00    0.00    0.39
 1990 205    21    24     2     0.0  132.9   16636  116.8   16.0  59.7  18.0  17.3   9.8   5.6   0.4   0.8   0.8   0.0   0.0   0.1   0.5   1.2   0.8   0.8  1.56  0.94  0.78  0.00  0.00   10.48   41.91    0.00    0.00    0.39
 1990 206    22    24     2     0.0  133.2   16635  117.3   15.9  59.8  18.1  17.4   9.9   5.6   0.4   0.8   0.8   0.0   0.0   0.1   0.5   1.2   0.8   0.8  1.56  0.92  0.76  0.00  0.00   10.81   42.40    0.00    0.00    0.40
 1990 207    23    24     2     0.0  133.5   16635  117.8   15.7  59.8  18.1  17.5   9.9   5.6   0.4   0.9   0.9   0.0   0.0   0.1   0.5   1.1   0.8   0.8  1.56  0.90  0.74  0.00  0.00   11.14   42.89    0.00    0.00    0.40
 1990 208    24    24     2     0.0  133.9   16635  118.3   15.6  59.9  18.2  17.6   9.9   5.6   0.4   0.9   0.9   0.0   0.0   0.1   0.4   1.1   0.8   0.8  1.56  0.89  0.72  0.00  0.00   11.49   43.37    0.00    0.00    0.40
 1990 209    25    24     2     0.0  134.2   16634  118.8   15.4  59.9  18.2  17.6  10.0   5.7   0.4   0.9   0.9   0.0   0.0   0.1   0.4   1.1   0.8   0.8  1.56  0.87  0.70  0.00  0.00   11.87   43.88    0.00    0.00    0.40
 1990 210    26    24     2     0.0  134.6   16634  119.3   15.3  60.0  18.3  17.7  10.0   5.7   0.5   0.9   0.9   0.0   0.0   0.1   0.4   1.1   0.8   0.8  1.57  0.86  0.68  0.00  0.00   12.25   44.38    0.00    0.00    0.40
 1990 211    27    24     2     0.0  135.0   16633  119.8   15.2  60.0  18.3  17.8  10.0   5.7   0.5   1.0   1.0   0.0   0.0   0.1   0.4   1.1   0.7   0.8  1.57  0.84  0.67  0.00  0.00   12.61   44.87    0.00    0.00    0.40
 1990 212    28    24     2     0.0  135.4   16633  120.3   15.1  60.1  18.4  17.8  10.0   5.7   0.5   1.0   1.0   0.0   0.0   0.1   0.4   1.1   0.7   0.8  1.57  0.83  0.65  0.00  0.00   12.99   45.37    0.00    0.00    0.41
 1990 213    29    24     2     0.0  135.7   16633  120.8   15.0  60.2  18.4  17.9  10.1   5.8   0.5   1.0   1.0   0.0   0.0   0.1   0.4   1.1   0.7   0.7  1.57  0.82  0.63  0.00  0.00   13.38   45.86    0.00    0.00    0.41
 1990 214    30    24     2     0.0  136.1   16632  121.3   14.9  60.3  18.5  18.0  10.1   5.8   0.5   1.0   1.0   0.0   0.0   0.1   0.4   1.1   0.7   0.7  1.57  0.80  0.62  0.00  0.00   13.78   46.36    0.00    0.00    0.41
 1990 215    31    24     2     0.0  136.6   16632  121.8   14.8  60.3  18.5  18.1  10.1   5.8   0.5   1.1   1.0   0.0   0.0   0.1   0.4   1.1   0.7   0.7  1.57  0.79  0.60  0.00  0.00   14.22   46.89    0.00    0.00    0.41
 1990 216    32    24     2     0.0  137.1   16631  122.3   14.7  60.4  18.6  18.2  10.2   5.8   0.6   1.1   1.1   0.0   0.0   0.1   0.4   1.1   0.7   0.7  1.58  0.78  0.58  0.00  0.00   14.70   47.44    0.00    0.00    0.41
 1990 217    33    24     2     0.0  137.6   16631  122.9   14.6  60.5  18.6  18.3  10.2   5.9   0.6   1.1   1.1   0.0   0.0   0.1   0.5   1.1   0.7   0.7  1.58  0.76  0.57  0.00  0.00   15.22   48.04    0.00    0.00    0.41
 1990 218    34    24     2     0.0  138.2   16630  123.6   14.6  60.7  18.7  18.4  10.3   5.9   0.6   1.1   1.1   0.0   0.0   0.1   0.5   1.1   0.7   0.7  1.58  0.75  0.55  0.00  0.00   15.81   48.69    0.00    0.00    0.41
 1990 219    35    24     2     0.0  138.8   16630  124.3   14.5  60.8  18.8  18.5  10.3   5.9   0.6   1.2   1.1   0.0   0.0   0.1   0.5   1.1   0.7   0.7  1.58  0.74  0.54  0.00  0.00   16.42   49.38    0.00    0.00    0.41
 1990 220    36    24     2     0.0  139.4   16629  125.0   14.4  61.0  18.9  18.6  10.3   6.0   0.6   1.2   1.1   0.0   0.0   0.1   0.5   1.1   0.7   0.7  1.59  0.73  0.53  0.00  0.00   17.08   50.11    0.00    0.00    0.42
 1990 221    37    24     2     0.0  139.9   16628  125.6   14.3  61.1  18.9  18.7  10.4   6.0   0.7   1.2   1.2   0.0   0.0   0.1   0.5   1.1   0.7   0.7  1.59  0.71  0.51  0.00  0.00   17.75   50.87    0.00    0.00    0.42
 1990 222    38    24     2     0.0  140.6   16628  126.3   14.3  61.3  19.0  18.8  10.4   6.0   0.7   1.2   1.2   0.0   0.0   0.1   0.5   1.1   0.7   0.7  1.59  0.70  0.50  0.00  0.00   18.43   51.62    0.00    0.00    0.42
 1990 223    39    24     2     0.0  141.1   16627  127.0   14.1  61.5  19.1  18.9  10.5   6.1   0.7   1.3   1.2   0.0   0.0   0.0   0.4   1.1   0.6   0.7  1.59  0.69  0.49  0.00  0.00   18.97   52.34    0.00    0.00    0.42
 1990 224    40    24     2     0.0  141.7   16627  127.7   13.9  61.5  19.2  19.1  10.5   6.1   0.7   1.3   1.2   0.0   0.0   0.0   0.4   1.1   0.6   0.7  1.59  0.68  0.47  0.00  0.00   19.52   53.02    0.00    0.00    0.42
 1990 225    41    24     2     0.0  142.2   16626  128.4   13.8  61.6  19.3  19.2  10.6   6.1   0.7   1.3   1.2   0.0   0.0   0.0   0.3   1.1   0.6   0.6  1.60  0.67  0.46  0.00  0.00   20.07   53.69    0.00    0.00    0.42
 1990 226    42    24     2     0.0  142.8   16625  129.1   13.7  61.7  19.4  19.3  10.6   6.2   0.8   1.3   1.2   0.0   0.0   0.0   0.3   1.1   0.6   0.6  1.60  0.66  0.45  0.00  0.00   20.64   54.35    0.00    0.00    0.43
 1990 227    43    24     2     0.0  143.3   16625  129.7   13.6  31.5  34.6  19.4  10.6   6.2   0.8   1.3   1.3   0.0   0.0   0.0   0.3   1.1   0.6   0.6  1.60  0.65  0.44  0.00  0.00   21.21   55.02    0.00    0.00    0.43
 1990 228    44    24     2     0.0  144.0   16624  130.3   13.7  29.4  35.5  19.8  10.7   6.2   0.8   1.4   1.3   0.0   0.0   0.1   0.3   1.1   0.6   0.6  1.60  0.64  0.43  0.00  0.00   21.88   55.63    0.00    0.00    0.43
 1990 229    45    24     2     0.0  144.5   16624  131.0   13.6  29.5  35.2  20.1  10.7   6.3   0.8   1.4   1.3   0.0   0.0   0.1   0.4   1.1   0.6   0.6  1.60  0.63  0.42  0.00  0.00   22.45   56.30    0.00    0.00    0.43
 1990 230    46    24     2     0.0  145.0   16623  131.5   13.5  29.5  35.1  20.3  10.8   6.3   0.8   1.4   1.3   0.0   0.0   0.1   0.4   1.0   0.6   0.6  1.61  0.62  0.41  0.00  0.00   22.97   56.92    0.00    0.00    0.43
 1990 231    47    24     2     0.0  145.4   16623  132.0   13.4  29.6  35.0  20.5  10.8   6.3   0.8   1.4   1.3   0.0   0.0   0.1   0.4   1.0   0.6   0.6  1.61  0.61  0.40  0.00  0.00   23.46   57.50    0.00    0.00    0.43
 1990 232    48    24     2     0.0  145.7   16622  132.4   13.3  29.6  34.8  20.7  10.8   6.4   0.9   1.4   1.3   0.0   0.0   0.1   0.4   1.0   0.6   0.6  1.61  0.60  0.39  0.00  0.00   23.92   58.04    0.00    0.00    0.44
 1990 233    49    24     2     0.0  145.8   16622  132.6   13.2  29.7  34.6  20.8  10.9   6.4   0.9   1.5   1.4   0.0   0.0   0.1   0.4   0.9   0.6   0.6  1.61  0.60  0.38  0.00  0.00   24.39   58.60    0.00    0.00    0.44
 1990 234    50    24     2     0.0  145.9   16621  132.8   13.1  29.7  34.4  20.8  10.9   6.4   0.9   1.5   1.4   0.0   0.0   0.1   0.4   0.9   0.6   0.6  1.61  0.59  0.37  0.00  0.00   24.86   59.15    0.00    0.00    0.44
 1990 235    51    24     2     0.0  146.1   16621  133.1   13.0  29.8  34.3  20.9  10.9   6.4   0.9   1.5   1.4   0.0   0.0   0.1   0.4   0.9   0.6   0.6  1.61  0.58  0.36  0.00  0.00   25.32   59.69    0.00    0.00    0.44
 1990 236    52    24     2     0.0  146.1   16620  133.2   13.0  29.8  34.2  20.9  11.0   6.5   0.9   1.5   1.4   0.0   0.0   0.1   0.4   0.9   0.6   0.6  1.62  0.58  0.36  0.00  0.00   25.76   60.20    0.00    0.00    0.44
 1990 237    53    24     2     0.0  146.5   16620  133.6   12.9  29.9  34.2  20.9  11.0   6.5   1.0   1.5   1.4   0.0   0.0   0.1   0.4   0.9   0.6   0.6  1.62  0.57  0.35  0.00  0.00   26.18   60.69    0.00    0.00    0.45
 1990 238    54    24     2     0.0  146.7   16619  133.9   12.8  29.9  34.2  21.0  11.0   6.5   1.0   1.5   1.4   0.0   0.0   0.1   0.4   0.8   0.6   0.6  1.62  0.56  0.34  0.00  0.00   26.60   61.18    0.00    0.00    0.45
 1990 239    55    24     2     0.0  146.6   16619  133.8   12.7  10.3  33.3  27.9  11.0   6.5   1.0   1.6   1.4   0.0   0.0   0.1   0.4   0.8   0.6   0.6  1.62  0.56  0.33  0.00  0.00   27.03   61.68    0.00    0.00    0.45
 1990 240    56    24     2     0.0  146.6   16618  133.7   12.9   9.9  32.1  28.5  11.2   6.6   1.0   1.6   1.4   0.0   0.0   0.1   0.4   0.9   0.6   0.6  1.62  0.55  0.33  0.00  0.00   27.58   62.08    0.00    0.00    0.45
 1990 241    57    24     2     0.0  146.4   16618  133.5   13.0   9.9  31.4  28.6  11.3   6.6   1.0   1.6   1.4   0.0   0.0   0.1   0.5   0.9   0.6   0.6  1.62  0.54  0.32  0.00  0.00   28.11   62.53    0.00    0.00    0.45
 1990 242    58    24     2     0.0  147.0   16617  134.0   13.0  10.0  31.4  28.6  11.5   6.6   1.0   1.6   1.5   0.0   0.0   0.1   0.5   0.9   0.6   0.6  1.63  0.54  0.31  0.00  0.00   28.62   63.04    0.00    0.00    0.46
 1990 243    59    24     2     0.0  147.5   16617  134.5   12.9  10.2  31.5  28.5  11.6   6.6   1.1   1.6   1.5   0.0   0.0   0.1   0.5   0.9   0.6   0.6  1.63  0.53  0.31  0.00  0.00   29.12   63.54    0.00    0.00    0.46
 1990 244    60    24     2     0.0  147.8   16616  134.9   12.9  10.4  31.4  28.5  11.7   6.6   1.1   1.6   1.5   0.0   0.0   0.1   0.5   0.9   0.6   0.6  1.63  0.53  0.30  0.00  0.00   29.55   63.99    0.00    0.00    0.46
 1990 245    61    24     2     0.0  148.1   16616  135.2   12.9  10.2  31.5  28.4  11.8   6.7   1.1   1.7   1.5   0.0   0.0   0.1   0.5   0.9   0.6   0.6  1.63  0.52  0.30  0.00  0.00   29.95   64.42    0.00    0.00    0.46
 1990 246    62    24     2     0.0  148.5   16616  135.6   12.9  10.3  31.5  28.4  11.9   6.7   1.1   1.7   1.5   0.0   0.0   0.1   0.5   0.9   0.6   0.6  1.63  0.52  0.29  0.00  0.00   30.35   64.83    0.00    0.00    0.47
 1990 247    63    24     2     0.0  148.9   16615  136.0   12.9  10.6  31.5  28.4  12.0   6.7   1.1   1.7   1.5   0.0   0.0   0.1   0.5   0.9   0.6   0.6  1.63  0.51  0.29  0.00  0.00   30.76   65.26    0.00    0.00    0.47
 1990 248    64    24     2     0.0  149.2   16615  136.4   12.8  10.8  31.5  28.4  12.1   6.7   1.1   1.7   1.5   0.0   0.0   0.1   0.5   0.9   0.6   0.6  1.63  0.51  0.28  0.00  0.00   31.14   65.67    0.00    0.00    0.47
 1990 249    65    24     2     0.0  149.4   16614  136.6   12.8  11.1  31.3  28.3  12.2   6.7   1.2   1.7   1.5   0.0   0.0   0.1   0.5   1.0   0.6   0.6  1.63  0.50  0.28  0.00  0.00   31.55   66.09    0.00    0.00    0.47
 1990 250    66    24     2     0.0  149.8   16614  137.0   12.8  10.7  31.6  28.3  12.3   6.8   1.2   1.7   1.5   0.0   0.0   0.1   0.5   1.0   0.6   0.6  1.64  0.50  0.27  0.00  0.00   31.99   66.54    0.00    0.00    0.48
 1990 251    67    24     2     0.0  150.2   16614  137.3   12.8   6.0  28.5  31.8  12.5   6.8   1.2   1.7   1.5   0.0   0.0   0.2   0.5   1.0   0.6   0.6  1.64  0.50  0.27  0.00  0.00   32.47   66.98    0.00    0.00    0.48
 1990 252    68    24     2     0.0  150.5   16613  137.5   13.0   6.1  27.7  31.4  13.3   6.8   1.2   1.8   1.5   0.0   0.0   0.1   0.5   1.0   0.6   0.6  1.64  0.49  0.26  0.00  0.00   32.93   67.31    0.00    0.00    0.48
 1990 253    69    24     2     0.0  150.9   16613  137.9   13.0   6.5  27.3  31.4  13.5   6.8   1.2   1.8   1.6   0.0   0.0   0.1   0.6   1.0   0.6   0.6  1.64  0.49  0.26  0.00  0.00   33.43   67.75    0.00    0.00    0.48
 1990 254    70    24     2     0.0  150.7   16612  137.8   13.0   4.1  22.3  31.4  16.5   7.2   1.3   1.8   1.6   0.0   0.0   0.1   0.6   1.0   0.6   0.6  1.64  0.48  0.25  0.00  0.00   33.98   68.32    0.00    0.00    0.49
 1990 255    71    24     2     0.0  150.6   16611  137.3   13.3   4.1  21.8  30.6  16.4   8.0   1.3   1.8   1.6   0.0   0.0   0.2   0.7   1.1   0.6   0.6  1.64  0.48  0.25  0.00  0.00   34.55   68.58    0.00    0.00    0.49
 1990 256    72    24     2     0.0  150.4   16611  136.9   13.5   4.4  21.4  30.1  16.4   8.5   1.3   1.8   1.6   0.0   0.0   0.1   0.7   1.2   0.6   0.6  1.64  0.48  0.25  0.00  0.00   35.12   68.93    0.00    0.00    0.49
 1990 257    73    24     2     0.0  150.2   16610  136.7   13.6   5.0  21.0  29.8  16.3   8.6   1.3   1.8   1.6   0.0   0.0   0.1   0.7   1.3   0.7   0.6  1.64  0.47  0.24  0.00  0.00   35.67   69.38    0.00    0.00    0.50
 1990 258    74    24     2     0.0  150.2   16610  136.6   13.5   5.6  20.7  29.6  16.3   8.6   1.3   1.8   1.6   0.0   0.0   0.1   0.7   1.2   0.7   0.6  1.65  0.47  0.24  0.00  0.00   36.18   69.91    0.00    0.00    0.50
 1990 259    75    24     2     0.0  149.6   16609  136.1   13.5   6.2  20.3  29.3  16.3   8.6   1.4   1.9   1.6   0.0   0.0   0.1   0.6   1.2   0.7   0.6  1.65  0.47  0.24  0.00  0.00   36.65   70.40    0.01    0.00    0.50
 1990 260    76    24     2     0.0  149.7   16609  136.2   13.5   6.7  20.2  29.1  16.3   8.7   1.4   1.9   1.6   0.0   0.0   0.1   0.6   1.2   0.7   0.6  1.65  0.46  0.23  0.00  0.00   37.11   70.87    0.01    0.00    0.51
 1990 261    77    24     2     0.0  149.3   16608  135.9   13.4   3.5  15.6  28.2  18.3  10.3   1.7   1.9   1.6   0.0   0.0   0.1   0.6   1.2   0.7   0.6  1.65  0.46  0.23  0.00  0.00   37.58   71.41    0.01    0.00    0.51
 1990 262    78    24     2     0.2  148.9   16608  135.2   13.7   3.5  15.2  27.4  17.8  10.5   2.1   1.9   1.7   0.0   0.0   0.2   0.7   1.3   0.7   0.6  1.65  0.46  0.23  0.00  0.00   38.08   71.59    0.01    0.00    0.51
 1990 263    79    24     2     0.4  148.0   16607  134.0   13.9   3.6  14.8  26.6  17.5  10.5   2.3   1.9   1.7   0.0   0.0   0.1   0.7   1.3   0.7   0.6  1.65  0.46  0.22  0.00  0.00   38.61   71.85    0.01    0.00    0.52
 1990 264    80    24     2     0.5  148.4   16607  134.2   14.2   4.0  14.7  26.5  17.4  10.5   2.4   2.0   1.7   0.0   0.0   0.1   0.7   1.4   0.8   0.6  1.66  0.47  0.22  0.00  0.00   39.13   72.15    0.01    0.00    0.52
 1990 265    81    24     2     0.5  148.6   16606  134.4   14.2   4.3  14.7  26.5  17.3  10.5   2.4   2.0   1.7   0.0   0.0   0.1   0.6   1.4   0.8   0.6  1.68  0.47  0.23  0.00  0.00   39.65   72.59    0.01    0.00    0.52
 1990 266    82    24     2     0.5  146.6   16606  132.3   14.3   4.6  14.1  25.7  17.1  10.5   2.4   2.0   1.7   0.0   0.0   0.1   0.6   1.3   0.8   0.7  1.69  0.48  0.23  0.00  0.00   40.18   73.02    0.04    0.00    0.53
 1990 267    83    24     2     0.5  146.3   16605  132.0   14.3   5.0  14.0  25.5  17.1  10.5   2.4   2.0   1.7   0.0   0.0   0.1   0.6   1.3   0.8   0.7  1.70  0.49  0.23  0.00  0.00   40.69   73.43    0.05    0.00    0.53
 1990 268    84    24     2     0.5  146.3   16605  131.9   14.4   5.3  14.0  25.3  17.1  10.5   2.5   2.0   1.7   0.0   0.0   0.1   0.6   1.3   0.8   0.7  1.72  0.49  0.23  0.00  0.00   41.18   73.89    0.05    0.00    0.53
 1990 269    85    24     2     0.5  146.1   16604  131.7   14.4   5.6  13.9  25.1  17.1  10.5   2.5   2.0   1.7   0.0   0.0   0.1   0.6   1.3   0.8   0.7  1.73  0.50  0.23  0.00  0.00   41.67   74.33    0.06    0.00    0.53
 1990 270    86    24     2     0.5  145.6   16604  131.2   14.4   5.9  13.8  24.8  17.0  10.5   2.5   2.0   1.7   0.0   0.0   0.1   0.6   1.2   0.8   0.7  1.74  0.50  0.23  0.00  0.00   42.15   74.77    0.06    0.00    0.54
 1990 271    87    24     2     0.5  144.3   16603  129.8   14.4   6.0  13.5  24.2  16.9  10.5   2.5   2.0   1.7   0.0   0.0   0.1   0.5   1.2   0.8   0.8  1.76  0.51  0.23  0.00  0.00   42.66   75.22    0.07    0.00    0.54
 1990 272    88    24     2     0.5  143.9   16603  129.4   14.5   6.3  13.5  24.0  16.8  10.6   2.5   2.0   1.7   0.0   0.0   0.1   0.5   1.2   0.8   0.8  1.77  0.51  0.23  0.00  0.00   43.19   75.69    0.07    0.00    0.54
 1990 273    89    24     2     0.5  142.0   16602  127.5   14.5   6.3  13.1  23.2  16.6  10.6   2.5   2.0   1.7   0.0   0.0   0.1   0.5   1.2   0.7   0.8  1.78  0.52  0.24  0.00  0.00   43.76   76.19    0.07    0.00    0.54
 1990 274    90    24     2     0.5  140.4   16602  125.9   14.5   6.4  12.8  22.6  16.5  10.5   2.5   2.0   1.7   0.0   0.0   0.1   0.5   1.1   0.7   0.8  1.80  0.53  0.24  0.00  0.00   44.36   76.72    0.07    0.00    0.55
 1990 275    91    24     2     0.5  137.9   16601  123.6   14.4   6.4  12.4  21.7  16.2  10.5   2.5   2.0   1.7   0.0   0.0   0.1   0.5   1.1   0.7   0.8  1.80  0.53  0.24  0.00  0.00   44.98   77.41    0.07    0.00    0.55
 1990 276    92    24     2     0.5  135.1   16600  120.8   14.3   6.3  12.0  20.7  16.0  10.5   2.5   2.0   1.7   0.0   0.0   0.1   0.5   1.1   0.7   0.8  1.80  0.54  0.24  0.00  0.00   45.61   78.08    0.07    0.00    0.55
 1990 277    93    24     2     0.5  132.1   16600  118.0   14.1   6.2  11.5  19.7  15.7  10.4   2.6   2.0   1.7   0.0   0.0   0.1   0.4   1.0   0.7   0.8  1.80  0.54  0.24  0.00  0.00   46.24   78.78    0.07    0.00    0.56
 1990 278    94    24     2     0.5  128.7   16599  114.6   14.0   6.1  11.0  18.6  15.3  10.2   2.6   2.0   1.7   0.0   0.0   0.1   0.4   1.0   0.7   0.7  1.80  0.55  0.24  0.00  0.00   46.90   79.50    0.07    0.00    0.56
 1990 279    95    24     2     0.5  127.3   16599  113.4   13.9   3.4  11.4  18.6  15.2  10.2   2.6   2.0   1.7   0.0   0.0   0.1   0.4   1.0   0.7   0.7  1.80  0.55  0.24  0.00  0.00   47.53   80.18    0.07    0.00    0.56
 1990 280    96    24     2     0.5  124.7   16598  110.6   14.0   2.9  10.5  18.2  14.9  10.0   2.6   2.0   1.7   0.0   0.0   0.2   0.5   1.0   0.6   0.7  1.79  0.56  0.25  0.00  0.00   48.20   80.67    0.07    0.00    0.56
 1990 281    97    24     2     0.6  122.8   16597  108.7   14.2   1.2   6.4  14.9  15.0  12.0   3.7   2.2   1.8   0.0   0.0   0.2   0.6   1.0   0.6   0.7  1.79  0.56  0.25  0.00  0.00   48.88   81.16    0.07    0.00    0.59
 1990 282    98    24     2     1.3  119.6   16597  105.0   14.6   1.1   5.9  13.9  14.1  11.5   3.9   2.4   1.8   0.0   0.0   0.3   0.7   1.0   0.7   0.7  1.81  0.57  0.25  0.00  0.00   49.50   81.30    0.09    0.00    0.60
 1990 283    99    24     2     1.6  115.2   16596  100.4   14.7   1.3   5.3  12.6  13.3  11.0   4.0   2.4   1.8   0.0   0.0   0.1   0.8   1.1   0.7   0.7  1.83  0.58  0.25  0.00  0.00   50.11   81.60    0.09    0.00    0.60
 1990 284   100    24     2     1.8  112.0   16595   97.3   14.7   1.4   5.1  11.8  12.9  10.7   4.0   2.4   1.9   0.0   0.0   0.1   0.7   1.0   0.7   0.7  1.84  0.58  0.25  0.00  0.00   50.72   82.10    0.10    0.00    0.61
 1990 285   101    24     2     1.9  110.3   16595   95.5   14.8   0.7   3.4   9.5  11.8  11.2   4.9   2.9   2.0   0.0   0.0   0.1   0.6   1.0   0.7   0.8  1.85  0.59  0.25  0.00  0.00   51.33   82.57    0.10    0.00    0.61
 1990 286   102    24     2     2.7  104.2   16594   89.2   15.0   0.7   2.9   8.1  10.7  10.4   5.0   3.0   2.0   0.0   0.0   0.1   0.7   1.0   0.7   0.8  1.86  0.60  0.25  0.00  0.00   51.93   82.74    0.37    0.00    0.61
 1990 287   103    24     2     3.1  100.2   16594   85.4   14.9   0.7   2.7   7.3  10.0   9.9   4.9   3.0   2.1   0.0   0.0   0.1   0.6   1.0   0.8   0.8  1.85  0.60  0.26  0.00  0.00   52.54   83.21    0.50    0.00    0.62
 1990 288   104    24     2     3.3   96.3   16593   81.6   14.8   0.8   2.5   6.5   9.6   9.4   4.7   3.0   2.1   0.0   0.0   0.1   0.6   0.9   0.8   0.8  1.84  0.61  0.26  0.00  0.00   53.15   83.67    0.55    0.00    0.62
 1990 289   105    24     2     3.4   92.6   16592   78.0   14.6   0.8   2.3   5.7   9.2   9.0   4.6   3.0   2.1   0.0   0.0   0.1   0.6   0.9   0.7   0.8  1.82  0.61  0.26  0.00  0.00   53.76   84.17    0.58    0.00    0.62
 1990 290   106    24     2     3.4   89.2   16592   74.8   14.3   0.8   2.1   5.1   8.8   8.7   4.5   3.0   2.1   0.0   0.0   0.1   0.5   0.9   0.7   0.8  1.80  0.62  0.26  0.00  0.00   54.36   84.72    0.59    0.00    0.62
 1990 291   107    24     2     3.4   87.6   16591   73.4   14.2   0.9   2.1   4.8   8.6   8.5   4.4   3.0   2.1   0.0   0.0   0.1   0.5   0.9   0.7   0.7  1.79  0.62  0.26  0.00  0.00   54.96   85.26    0.59    0.00    0.63
 1990 292   108    24     2     3.4   82.2   16591   68.4   13.8   0.8   1.8   3.9   7.9   7.9   4.2   3.0   2.1   0.0   0.0   0.1   0.5   0.8   0.7   0.7  1.74  0.63  0.26  0.00  0.00   55.57   85.81    0.60    0.00    0.63
 1990 293   109    24     2     3.4   78.5   16590   64.9   13.6   0.6   1.7   3.3   7.5   7.5   4.0   3.0   2.1   0.0   0.0   0.2   0.5   0.8   0.7   0.7  1.70  0.63  0.26  0.00  0.00   56.20   86.28    0.60    0.00    0.63
 1990 294   110    24     2     3.4   74.2   16589   60.9   13.3   0.7   1.4   2.7   6.9   7.0   3.8   3.0   2.1   0.0   0.0   0.1   0.6   0.8   0.6   0.7  1.64  0.64  0.26  0.00  0.00   56.83   86.82    0.60    0.00    0.64
 1990 295   111    24     2     3.4   68.6   16589   55.9   12.8   0.6   1.2   2.0   6.2   6.4   3.5   3.0   2.1   0.0   0.0   0.1   0.6   0.7   0.6   0.7  1.56  0.64  0.26  0.00  0.00   57.49   87.44    0.60    0.00    0.64
 1990 296   112    24     2     3.4   62.7   16588   50.5   12.2   0.5   0.9   1.4   5.5   5.7   3.2   3.0   2.1   0.0   0.0   0.1   0.5   0.7   0.6   0.6  1.46  0.65  0.27  0.00  0.00   58.16   88.06    0.61    0.00    0.64
 1990 297   113    24     2     3.4   58.2   16587   46.4   11.8   0.5   0.7   1.0   4.9   5.1   3.0   3.0   2.1   0.0   0.0   0.1   0.5   0.7   0.6   0.6  1.39  0.65  0.27  0.00  0.00   58.82   88.66    0.61    0.00    0.65
 1990 298   114    24     2     3.4   53.3   16587   42.0   11.4   0.4   0.6   0.7   4.2   4.5   2.7   3.0   2.1   0.0   0.0   0.1   0.5   0.6   0.6   0.6  1.30  0.66  0.27  0.00  0.00   59.47   89.23    0.61    0.00    0.65
 1990 299   115    24     2     3.4   49.2   16586   38.2   11.0   0.4   0.5   0.5   3.6   3.9   2.4   3.0   2.1   0.0   0.0   0.1   0.5   0.6   0.5   0.6  1.22  0.66  0.27  0.00  0.00   60.11   89.79    0.61    0.00    0.65
 1990 300   116    24     2     3.4   43.1   16586   32.8   10.3   0.4   0.4   0.3   2.7   3.1   2.0   3.0   2.1   0.0   0.0   0.1   0.5   0.6   0.5   0.6  1.10  0.67  0.27  0.00  0.00   60.73   90.35    0.61    0.00    0.65
 1990 301   117    24     2     3.4   38.8   16585   28.9    9.8   0.4   0.4   0.3   2.1   2.4   1.7   3.1   2.1   0.0   0.0   0.1   0.5   0.6   0.5   0.5  1.00  0.67  0.27  0.00  0.00   61.35   90.89    0.62    0.00    0.66
 1990 302   118    24     2     3.4   35.3   16584   25.9    9.5   0.4   0.4   0.3   1.6   1.9   1.4   3.1   2.2   0.0   0.0   0.1   0.4   0.6   0.5   0.5  0.92  0.67  0.27  0.00  0.00   61.96   91.42    0.62    0.00    0.66
 1990 303   119    24     2     3.4   32.7   16584   23.5    9.2   0.2   0.4   0.4   1.2   1.5   1.1   3.1   2.2   0.0   0.0   0.1   0.4   0.6   0.5   0.5  0.86  0.68  0.27  0.00  0.00   62.57   91.95    0.62    0.00    0.66
 1990 304   120    24     2     3.4   30.7   16583   21.6    9.1   0.4   0.3   0.3   1.0   1.2   1.0   3.1   2.2   0.0   0.0   0.1   0.6   0.6   0.5   0.5  0.80  0.68  0.27  0.00  0.00   63.27   92.37    0.62    0.00    0.66
 1990 305   121    24     2     3.4   29.1   16582   20.3    8.9   0.4   0.4   0.3   0.8   1.0   0.8   3.1   2.2   0.0   0.0   0.1   0.5   0.6   0.5   0.5  0.76  0.69  0.28  0.00  0.00   63.97   92.95    0.62    0.00    0.67
 1990 306   122    24     2     3.4   27.8   16582   19.0    8.8   0.3   0.4   0.3   0.6   0.8   0.7   3.1   2.2   0.0   0.0   0.2   0.5   0.6   0.5   0.5  0.73  0.69  0.28  0.00  0.00   64.64   93.42    0.62    0.00    0.67
 1990 307   123    24     2     3.4   26.8   16581   18.3    8.6   0.5   0.4   0.3   0.5   0.6   0.6   3.1   2.2   0.0   0.0   0.1   0.5   0.6   0.5   0.5  0.70  0.70  0.28  0.00  0.00   65.32   94.05    0.62    0.00    0.67
 1990 308   124    24     2     3.4   25.5   16581   17.1    8.4   0.1   0.4   0.4   0.4   0.5   0.5   2.9   2.2   0.0   0.0   0.1   0.5   0.6   0.5   0.5  0.68  0.67  0.28  0.00  0.00   66.00   94.61    0.62    0.00    0.67
 1990 309   125    24     2     3.4   24.4   16580   15.7    8.7   0.1   0.3   0.3   0.4   0.4   0.4   2.8   2.2   0.0   0.0   0.2   0.6   0.7   0.5   0.5  0.66  0.65  0.28  0.00  0.00   66.69   94.89    0.63    0.00    0.67
 1990 310   126    24     2     3.4   23.1   16579   14.7    8.4   0.4   0.4   0.3   0.3   0.4   0.3   2.4   2.2   0.0   0.0   0.1   0.5   0.7   0.5   0.5  0.64  0.62  0.28  0.00  0.00   67.36   95.45    0.63    0.00    0.68
 1990 311   127    24     2     3.4   21.9   16579   13.7    8.2   0.4   0.4   0.3   0.3   0.3   0.3   2.1   2.2   0.0   0.0   0.1   0.5   0.6   0.5   0.5  0.63  0.60  0.28  0.00  0.00   68.00   95.97    0.63    0.00    0.68
 1990 312   128    24     2     3.4   21.0   16578   12.9    8.1   0.3   0.4   0.3   0.3   0.3   0.3   1.9   2.2   0.0   0.0   0.2   0.5   0.6   0.5   0.5  0.62  0.58  0.28  0.00  0.00   68.64   96.41    0.63    0.00    0.68
 1990 313   129    24     2     3.4   20.4   16578   12.4    8.0   0.4   0.4   0.3   0.3   0.3   0.3   1.7   2.2   0.0   0.0   0.1   0.5   0.6   0.5   0.5  0.61  0.56  0.28  0.00  0.00   69.22   96.91    0.63    0.00    0.68
 1990 314   130    24     2     3.4   19.8   16577   11.9    7.9   0.4   0.4   0.3   0.3   0.3   0.3   1.5   2.2   0.0   0.0   0.1   0.5   0.6   0.5   0.5  0.60  0.55  0.28  0.00  0.00   69.80   97.37    0.63    0.00    0.68
 1990 315   131    24     2     3.4   19.4   16576   11.5    7.8   0.4   0.4   0.3   0.3   0.3   0.3   1.3   2.2   0.0   0.0   0.1   0.5   0.6   0.5   0.5  0.59  0.54  0.28  0.00  0.00   70.39   97.84    0.63    0.00    0.68
 1990 316   132    24     2     3.4   19.0   16576   11.2    7.8   0.4   0.4   0.3   0.3   0.3   0.3   1.1   2.2   0.0   0.0   0.1   0.5   0.6   0.5   0.5  0.59  0.53  0.28  0.00  0.00   71.02   98.33    0.63    0.00    0.69
 1990 317   133    24     2     3.4   18.6   16575   10.9    7.7   0.4   0.4   0.3   0.3   0.3   0.3   1.0   2.2   0.0   0.0   0.1   0.5   0.6   0.5   0.5  0.58  0.52  0.29  0.00  0.00   71.64   98.82    0.63    0.00    0.69
 1990 318   134    24     2     3.4   18.4   16575   10.7    7.7   0.4   0.4   0.3   0.3   0.3   0.3   0.9   2.2   0.0   0.0   0.1   0.5   0.6   0.5   0.5  0.58  0.51  0.28  0.00  0.00   72.33   99.41    0.63    0.00    0.69
 1990 319   135    24     2     3.4   18.1   16574   10.5    7.6   0.4   0.4   0.3   0.3   0.3   0.3   0.8   2.2   0.0   0.0   0.1   0.5   0.6   0.5   0.5  0.58  0.50  0.28  0.00  0.00   73.07  100.05    0.63    0.00    0.69
 1990 320   136    24     2     3.4   17.9   16573   10.3    7.6   0.1   0.3   0.4   0.3   0.4   0.3   0.7   2.2   0.0   0.0   0.1   0.5   0.6   0.5   0.4  0.57  0.50  0.27  0.00  0.00   73.80  100.67    0.63    0.00    0.69
 1990 321   137    24     2     3.4   17.8   16572    9.8    8.0   0.2   0.3   0.3   0.3   0.3   0.3   0.6   2.2   0.0   0.0   0.2   0.6   0.7   0.5   0.5  0.57  0.49  0.27  0.00  0.00   74.55  100.84    0.63    0.00    0.70
 1990 322   138    24     2     3.4   17.9   16572    9.8    8.1   0.5   0.3   0.3   0.3   0.3   0.3   0.6   2.2   0.0   0.0   0.1   0.7   0.7   0.6   0.5  0.58  0.49  0.26  0.00  0.00   75.33  101.28    0.63    0.00    0.70
 1990 323   139    24     2     3.4   17.7   16571    9.9    7.8   0.3   0.5   0.3   0.3   0.3   0.3   0.5   2.3   0.0   0.0   0.1   0.5   0.6   0.6   0.5  0.58  0.48  0.26  0.00  0.00   76.09  101.92    0.63    0.00    0.70
 1990 324   140    24     2     3.4   17.5   16570    9.8    7.7   0.4   0.4   0.3   0.3   0.3   0.3   0.5   2.3   0.0   0.0   0.1   0.5   0.6   0.5   0.5  0.58  0.47  0.25  0.00  0.00   76.85  102.55    0.63    0.00    0.70
 1990 325   141    24     2     3.4   17.2   16570    9.6    7.6   0.4   0.4   0.3   0.3   0.3   0.3   0.4   2.2   0.0   0.0   0.1   0.5   0.6   0.5   0.5  0.58  0.47  0.25  0.00  0.00   77.63  103.17    0.63    0.00    0.70
 1990 326   142    24     2     3.4   16.9   16569    9.4    7.6   0.4   0.4   0.3   0.3   0.3   0.3   0.4   2.1   0.0   0.0   0.1   0.5   0.6   0.5   0.5  0.58  0.46  0.24  0.00  0.00   78.45  103.85    0.63    0.00    0.71
 1990 327   143    24     2     3.4   16.5   16568    9.0    7.6   0.4   0.4   0.3   0.3   0.3   0.3   0.3   2.0   0.0   0.0   0.1   0.5   0.6   0.5   0.5  0.58  0.46  0.24  0.00  0.00   79.28  104.52    0.63    0.00    0.71
 1990 328   144    24     2     3.4   16.1   16567    8.6    7.5   0.4   0.4   0.3   0.3   0.3   0.3   0.3   1.9   0.0   0.0   0.1   0.5   0.6   0.5   0.5  0.58  0.45  0.24  0.00  0.00   80.10  105.19    0.63    0.00    0.71
 1990 329   145    24     2     3.4   15.7   16567    8.3    7.5   0.4   0.4   0.3   0.3   0.3   0.3   0.3   1.8   0.0   0.0   0.1   0.5   0.6   0.5   0.5  0.57  0.45  0.23  0.00  0.00   80.88  105.83    0.63    0.00    0.71
 1990 330   146    24     2     3.4   15.4   16566    8.0    7.4   0.3   0.4   0.4   0.3   0.3   0.3   0.3   1.7   0.0   0.0   0.1   0.5   0.6   0.5   0.5  0.57  0.44  0.23  0.00  0.00   81.65  106.47    0.63    0.00    0.72
 1990 331   147    24     2     3.4   15.1   16565    7.5    7.6   0.3   0.3   0.3   0.3   0.3   0.3   0.3   1.6   0.0   0.0   0.2   0.6   0.6   0.5   0.5  0.57  0.44  0.23  0.00  0.00   82.40  106.87    0.63    0.00    0.72
 1990 332   148    24     2     3.4   15.0   16564    7.6    7.4   0.6   0.4   0.3   0.3   0.3   0.3   0.3   1.5   0.0   0.0   0.1   0.5   0.6   0.5   0.5  0.57  0.43  0.22  0.00  0.00   83.12  107.59    0.63    0.00    0.72
 1990 333   149    24     2     3.4   14.6   16564    7.2    7.4   0.3   0.4   0.3   0.3   0.3   0.3   0.3   1.4   0.0   0.0   0.1   0.5   0.6   0.5   0.5  0.57  0.42  0.22  0.00  0.00   83.82  108.14    0.63    0.00    0.72
 1990 334   150    24     2     3.4   14.3   16563    7.0    7.3   0.4   0.4   0.3   0.3   0.3   0.3   0.3   1.3   0.0   0.0   0.1   0.5   0.6   0.5   0.5  0.57  0.42  0.22  0.00  0.00   84.50  108.71    0.63    0.00    0.73
 1990 335   151    24     2     3.4   14.1   16563    6.8    7.3   0.4   0.4   0.3   0.3   0.3   0.3   0.3   1.2   0.0   0.0   0.1   0.5   0.6   0.5   0.5  0.56  0.41  0.21  0.00  0.00   85.17  109.26    0.63    0.00    0.73
 1990 336   152    24     2     3.4   13.9   16562    6.7    7.2   0.4   0.4   0.3   0.3   0.3   0.3   0.3   1.2   0.0   0.0   0.1   0.5   0.6   0.5   0.5  0.56  0.41  0.21  0.00  0.00   85.83  109.81    0.63    0.00    0.73
 1990 337   153    24     2     3.4   13.7   16561    6.5    7.2   0.3   0.4   0.3   0.3   0.3   0.3   0.3   1.1   0.0   0.0   0.1   0.5   0.6   0.5   0.5  0.56  0.41  0.21  0.00  0.00   86.48  110.36    0.63    0.00    0.73
 1990 338   154    24     2     3.4   13.5   16561    6.3    7.2   0.3   0.4   0.3   0.3   0.3   0.3   0.3   1.0   0.0   0.0   0.2   0.5   0.6   0.5   0.5  0.56  0.40  0.20  0.00  0.00   87.12  110.84    0.63    0.00    0.73
 1990 339   155    24     2     3.4   13.4   16560    6.3    7.1   0.5   0.4   0.3   0.3   0.3   0.3   0.3   1.0   0.0   0.0   0.1   0.5   0.6   0.5   0.5  0.56  0.40  0.20  0.00  0.00   87.75  111.46    0.63    0.00    0.74
 1990 340   156    24     2     3.4   13.1   16560    6.1    7.1   0.0   0.3   0.4   0.4   0.3   0.3   0.3   0.9   0.0   0.0   0.1   0.5   0.6   0.5   0.5  0.56  0.39  0.20  0.00  0.00   88.39  112.01    0.63    0.00    0.74
 1990 341   157    24     2     3.4   13.0   16559    5.5    7.5   0.0   0.1   0.2   0.2   0.3   0.3   0.3   0.9   0.0   0.0   0.2   0.6   0.7   0.5   0.5  0.55  0.39  0.19  0.00  0.00   89.09  112.22    0.63    0.00    0.74
 1990 342   158    24     2     3.4   13.1   16558    5.2    7.9   0.1   0.1   0.2   0.2   0.2   0.3   0.3   0.8   0.0   0.0   0.3   0.7   0.7   0.6   0.5  0.57  0.39  0.19  0.00  0.00   89.85  112.37    0.63    0.00    0.74
 1990 343   159    24     2     3.5   13.1   16557    5.3    7.9   0.6   0.2   0.2   0.2   0.3   0.2   0.3   0.8   0.0   0.0   0.0   0.7   0.7   0.6   0.5  0.58  0.39  0.19  0.00  0.00   90.65  112.80    0.63    0.00    0.75
 1990 344   160    24     2     4.2   12.4   16557    4.6    7.8   0.0   0.3   0.2   0.2   0.2   0.3   0.3   0.6   0.0   0.0   0.1   0.5   0.7   0.6   0.6  0.58  0.39  0.19  0.00  0.00   91.40  113.17    0.63    0.00    0.75
 1990 345   161    24     2     4.4   12.4   16556    4.2    8.2   0.0   0.3   0.2   0.2   0.2   0.2   0.2   0.5   0.0   0.0   0.2   0.6   0.8   0.6   0.6  0.59  0.40  0.19  0.00  0.00   92.06  113.25    0.63    0.00    0.75
 1990 346   162    24     2     4.5   12.5   16556    4.3    8.2   0.3   0.3   0.2   0.2   0.2   0.2   0.2   0.4   0.0   0.0   0.1   0.7   0.8   0.6   0.6  0.60  0.41  0.19  0.00  0.00   92.75  113.51    0.64    0.00    0.75
 1990 347   163    24     2     4.6   12.5   16555    4.3    8.2   0.4   0.3   0.2   0.2   0.2   0.2   0.2   0.4   0.0   0.0   0.1   0.7   0.7   0.6   0.6  0.60  0.42  0.19  0.00  0.00   93.41  113.70    0.64    0.00    0.75
 1990 348   164    24     2     4.6   12.5   16554    4.6    8.0   0.4   0.4   0.3   0.3   0.3   0.2   0.3   0.4   0.0   0.0   0.1   0.5   0.7   0.6   0.6  0.60  0.41  0.19  0.00  0.00   94.07  114.10    0.64    0.00    0.75
 1990 349   165    24     2     4.6   12.5   16554    4.7    7.7   0.4   0.4   0.3   0.3   0.3   0.3   0.3   0.4   0.0   0.0   0.1   0.5   0.6   0.6   0.6  0.60  0.41  0.19  0.00  0.00   94.75  114.64    0.64    0.00    0.76
 1990 350   166    24     2     4.6   12.4   16553    4.7    7.6   0.4   0.4   0.3   0.3   0.3   0.3   0.3   0.3   0.0   0.0   0.1   0.5   0.6   0.6   0.6  0.59  0.41  0.19  0.00  0.00   95.47  115.19    0.64    0.00    0.76
 1990 351   167    24     2     4.6   12.3   16553    4.7    7.5   0.4   0.4   0.3   0.3   0.3   0.3   0.3   0.3   0.0   0.0   0.1   0.5   0.6   0.5   0.6  0.59  0.41  0.19  0.00  0.00   96.22  115.76    0.64    0.00    0.76
 1990 352   168    24     2     4.6   12.2   16552    4.7    7.5   0.2   0.3   0.3   0.3   0.3   0.3   0.3   0.3   0.0   0.0   0.1   0.5   0.6   0.5   0.5  0.59  0.41  0.19  0.00  0.00   97.01  116.37    0.64    0.00    0.77
 1990 353   169    24     2     4.6   12.3   16551    4.3    8.0   0.2   0.3   0.3   0.3   0.3   0.3   0.3   0.3   0.0   0.0   0.2   0.6   0.7   0.6   0.6  0.59  0.41  0.18  0.00  0.00   97.81  116.53    0.64    0.00    0.77
 1990 354   170    24     2     4.6   12.5   16550    4.4    8.1   0.6   0.3   0.3   0.3   0.3   0.3   0.3   0.3   0.0   0.0   0.0   0.7   0.7   0.6   0.6  0.59  0.41  0.18  0.00  0.00   98.65  116.93    0.64    0.00    0.77
 1990 355   171    24     2     4.6   12.5   16550    4.6    7.8   0.3   0.5   0.3   0.3   0.3   0.3   0.3   0.3   0.0   0.0   0.1   0.5   0.6   0.6   0.6  0.59  0.41  0.18  0.00  0.00   99.49  117.51    0.64    0.00    0.77
 1990 356   172    24     2     4.6   12.4   16549    4.7    7.7   0.3   0.3   0.4   0.3   0.3   0.3   0.3   0.3   0.0   0.0   0.1   0.5   0.6   0.6   0.6  0.59  0.41  0.18  0.00  0.00  100.33  118.20    0.64    0.00    0.78
 1990 357   173    24     2     4.6   12.3   16548    4.2    8.2   0.3   0.3   0.3   0.3   0.3   0.3   0.3   0.3   0.0   0.0   0.2   0.6   0.7   0.6   0.6  0.60  0.41  0.18  0.00  0.00  101.13  118.33    0.64    0.00    0.78
 1990 358   174    24     2     4.6   12.6   16548    4.2    8.4   0.2   0.3   0.3   0.3   0.3   0.3   0.3   0.3   0.0   0.0   0.3   0.7   0.7   0.6   0.6  0.60  0.41  0.18  0.00  0.00  101.96  118.56    0.64    0.00    0.78
 1990 359   175    24     2     4.7   12.8   16547    4.1    8.7   0.3   0.3   0.3   0.3   0.2   0.2   0.3   0.3   0.0   0.0   0.4   0.8   0.8   0.6   0.6  0.60  0.42  0.18  0.00  0.00  102.75  118.72    0.64    0.00    0.78
 1990 360   176    24     2     4.7   13.0   16546    4.5    8.5   0.8   0.3   0.3   0.3   0.3   0.3   0.3   0.3   0.0   0.0   0.0   0.8   0.8   0.7   0.6  0.60  0.42  0.18  0.00  0.00  103.56  119.22    0.64    0.00    0.79
 1990 361   177    24     2     4.7   12.7   16546    4.4    8.2   0.3   0.5   0.3   0.3   0.3   0.3   0.3   0.3   0.0   0.0   0.2   0.5   0.8   0.7   0.6  0.60  0.42  0.17  0.00  0.00  104.39  119.66    0.64    0.00    0.79
 1990 362   178    24     2     4.7   12.6   16545    4.8    7.9   0.5   0.4   0.3   0.3   0.3   0.3   0.3   0.3   0.0   0.0   0.1   0.5   0.6   0.6   0.6  0.60  0.42  0.17  0.00  0.00  105.26  120.42    0.64    0.00    0.79
 1990 363   179    24     2     4.7   12.3   16544    4.6    7.7   0.4   0.4   0.3   0.3   0.3   0.3   0.3   0.3   0.0   0.0   0.1   0.5   0.6   0.6   0.6  0.60  0.42  0.17  0.00  0.00  106.10  121.06    0.64    0.00    0.80
 1990 364   180    24     2     4.7   12.3   16543    4.6    7.6   0.4   0.4   0.3   0.3   0.3   0.3   0.3   0.3   0.0   0.0   0.1   0.5   0.6   0.6   0.6  0.60  0.42  0.17  0.00  0.00  106.93  121.70    0.64    0.00    0.80
 1990 365   181    24     2     4.7   12.2   16543    4.6    7.6   0.4   0.4   0.3   0.3   0.3   0.3   0.3   0.3   0.0   0.0   0.1   0.5   0.6   0.6   0.6  0.60  0.42  0.17  0.00  0.00  107.77  122.33    0.64    0.00    0.80
 1991 001   182    24     2     4.7   12.2   16542    4.6    7.6   0.4   0.4   0.3   0.3   0.3   0.3   0.3   0.3   0.0   0.0   0.1   0.5   0.6   0.5   0.5  0.60  0.43  0.17  0.00  0.00  108.60  122.96    0.64    0.00    0.80
 1991 002   183    24     2     4.7   12.1   16541    4.6    7.5   0.4   0.4   0.3   0.3   0.3   0.3   0.3   0.3   0.0   0.0   0.1   0.5   0.6   0.5   0.5  0.60  0.43  0.17  0.00  0.00  109.41  123.57    0.64    0.00    0.81
 1991 003   184    24     2     4.7   12.1   16541    4.6    7.5   0.4   0.4   0.3   0.3   0.3   0.3   0.3   0.3   0.0   0.0   0.1   0.5   0.6   0.5   0.5  0.60  0.43  0.17  0.00  0.00  110.25  124.22    0.64    0.00    0.81
 1991 004   185    24     2     4.7   12.1   16540    4.7    7.4   0.4   0.4   0.3   0.3   0.3   0.3   0.3   0.3   0.0   0.0   0.1   0.5   0.6   0.5   0.5  0.60  0.42  0.17  0.00  0.00  111.10  124.89    0.64    0.00    0.81
 1991 005   186    24     2     4.7   12.0   16539    4.7    7.4   0.4   0.4   0.3   0.3   0.3   0.3   0.3   0.3   0.0   0.0   0.1   0.4   0.6   0.5   0.5  0.60  0.42  0.17  0.00  0.00  111.93  125.55    0.64    0.00    0.81
 1991 006   187    24     2     4.7   12.0   16538    4.6    7.3   0.4   0.4   0.3   0.3   0.3   0.3   0.3   0.3   0.0   0.0   0.1   0.4   0.6   0.5   0.5  0.60  0.42  0.17  0.00  0.00  112.72  126.20    0.64    0.00    0.82
 1991 007   188    24     2     4.7   11.9   16538    4.6    7.3   0.4   0.4   0.3   0.3   0.3   0.3   0.3   0.3   0.0   0.0   0.1   0.4   0.6   0.5   0.5  0.59  0.42  0.17  0.00  0.00  113.47  126.82    0.64    0.00    0.82
 1991 008   189    24     2     4.7   12.6   16537    5.2    7.4   0.5   0.6   0.4   0.3   0.3   0.3   0.3   0.3   0.0   0.0   0.1   0.4   0.6   0.5   0.5  0.61  0.42  0.17  0.00  0.00  114.20  127.45    0.64    0.00    0.82
 1991 009   190    24     2     4.7   13.3   16536    5.9    7.4   0.7   0.7   0.5   0.4   0.4   0.3   0.3   0.3   0.0   0.0   0.1   0.3   0.7   0.5   0.5  0.62  0.42  0.17  0.00  0.00  114.92  128.11    0.64    0.00    0.82

*DSSAT Cropping System Model Ver. 4.0.2.000               Jul 19, 2016; 16:40:54

*RUN   2        : UYMZ                    
 MODEL          : MZCER040 - Maize           
 EXPERIMENT     : UYMZ0037 MZ    late to create DSS                             
 TREATMENT  1   : UYMZ                    

@YEAR DOY   DAS  NAPC  NI#M    NLCC   NIAD    NOAD   NITD   NHTD  NI1D  NI2D  NI3D  NI4D  NI5D  NI6D  NI7D  NI8D  NI9D  NI10  NH1D  NH2D  NH3D  NH4D  NH5D  NH6D  NH7D  NH8D  NH9D  NH10    NMNC    NITC    NDNC    NIMC    AMLC
 1991 184     0     0     0     0.0   99.3   16645   76.5   22.8  16.0  15.3  15.1   8.6   4.6   0.0   0.1   0.1   0.0   0.0   0.6   1.3   1.5   1.4   1.4  1.50  1.46  1.45  0.00  0.00    0.54    1.69    0.00    0.00    0.00
 1991 185     1     0     0     0.0   99.8   16645   77.7   22.1  16.4  15.5  15.3   8.7   4.6   0.0   0.1   0.1   0.0   0.0   0.3   1.2   1.4   1.4   1.4  1.51  1.43  1.41  0.00  0.00    1.05    2.91    0.00    0.00    0.00
 1991 186     2     0     0     0.0  100.3   16645   78.7   21.6  16.5  15.6  15.4   8.8   4.7   0.1   0.1   0.2   0.0   0.0   0.2   1.1   1.4   1.3   1.4  1.51  1.40  1.37  0.00  0.00    1.50    3.91    0.00    0.00    0.00
 1991 187     3     0     0     0.0  100.7   16644   79.6   21.1  16.6  15.8  15.5   8.8   4.8   0.1   0.2   0.2   0.0   0.0   0.2   1.0   1.4   1.3   1.3  1.51  1.37  1.33  0.00  0.00    1.93    4.80    0.00    0.00    0.00
 1991 188     4    24     2     0.0  125.1   16644   80.5   44.6  16.8  15.9  15.6   8.9   4.8   0.1   0.2   0.2   0.0   0.0  43.2   0.9   1.4   1.3   1.3  1.51  1.34  1.29  0.00  0.00    2.33    5.63    0.00    0.00    0.05
 1991 189     5    24     2     0.0  125.4   16643   91.7   33.7  35.6  16.0  15.7   9.0   4.9   0.1   0.3   0.3   0.0   0.0  24.3   0.9   1.4   1.2   1.2  1.52  1.31  1.25  0.00  0.00    2.73   16.84    0.00    0.00    0.09
 1991 190     6    24     2     0.0  125.8   16643   98.9   26.9  47.3  16.1  15.8   9.0   4.9   0.1   0.3   0.3   0.0   0.0  12.7   0.8   1.3   1.2   1.2  1.52  1.28  1.21  0.00  0.00    3.16   24.04    0.00    0.00    0.13
 1991 191     7    24     2     0.0  126.3   16642  103.8   22.4  53.6  16.7  15.9   9.1   5.0   0.1   0.3   0.4   0.0   0.0   5.3   0.8   1.3   1.2   1.2  1.52  1.25  1.18  0.00  0.00    3.65   28.92    0.00    0.00    0.16
 1991 192     8    24     2     0.0  126.7   16642  106.4   20.3  54.8  17.8  16.0   9.2   5.0   0.2   0.4   0.4   0.0   0.0   2.1   0.7   1.3   1.1   1.1  1.52  1.22  1.14  0.00  0.00    4.15   31.49    0.00    0.00    0.21
 1991 193     9    24     2     0.0  127.1   16641  107.8   19.3  54.9  18.5  16.1   9.2   5.1   0.2   0.4   0.4   0.0   0.0   0.9   0.7   1.3   1.1   1.1  1.53  1.20  1.11  0.00  0.00    4.62   32.89    0.00    0.00    0.26
 1991 194    10    24     2     0.0  127.5   16641  108.8   18.8  54.7  18.9  16.2   9.3   5.1   0.2   0.5   0.5   0.0   0.0   0.4   0.7   1.3   1.1   1.1  1.53  1.17  1.08  0.00  0.00    5.05   33.84    0.00    0.00    0.30
 1991 195    11    24     2     0.0  127.9   16641  109.5   18.4  54.8  19.0  16.3   9.3   5.1   0.2   0.5   0.5   0.0   0.0   0.2   0.6   1.3   1.0   1.1  1.53  1.15  1.05  0.00  0.00    5.44   34.59    0.00    0.00    0.35
 1991 196    12    24     2     0.0  128.1   16640  110.1   18.0  54.9  19.1  16.4   9.4   5.2   0.2   0.5   0.5   0.0   0.0   0.0   0.6   1.3   1.0   1.0  1.53  1.13  1.02  0.00  0.00    5.77   35.20    0.00    0.00    0.42
 1991 197    13    24     2     0.0  128.4   16640  110.7   17.7  54.9  19.1  16.5   9.4   5.2   0.2   0.6   0.6   0.0   0.0   0.0   0.6   1.2   1.0   1.0  1.54  1.10  0.99  0.00  0.00    6.08   35.77    0.00    0.00    0.44
 1991 198    14    24     2     0.0  128.7   16640  111.2   17.5  54.9  19.2  16.6   9.4   5.2   0.3   0.6   0.6   0.0   0.0   0.0   0.6   1.2   1.0   1.0  1.54  1.08  0.96  0.00  0.00    6.43   36.33    0.00    0.00    0.44
 1991 199    15    24     2     0.0  129.2   16639  111.9   17.3  14.0  23.3  26.5  10.5   5.3   0.3   0.6   0.6   0.0   0.0   0.1   0.5   1.2   0.9   1.0  1.54  1.06  0.93  0.00  0.00    6.83   36.94    0.00    0.00    0.44
 1991 200    16    24     2     0.0  129.6   16639  112.3   17.3  11.1  22.0  26.0  12.6   5.3   0.3   0.7   0.7   0.0   0.0   0.1   0.6   1.3   0.9   0.9  1.54  1.04  0.91  0.00  0.00    7.27   37.38    0.00    0.00    0.44
 1991 201    17    24     2     0.0  130.1   16638  112.8   17.3  10.8  21.6  25.7  13.3   5.4   0.3   0.7   0.7   0.0   0.0   0.1   0.7   1.3   0.9   0.9  1.55  1.02  0.88  0.00  0.00    7.74   37.85    0.00    0.00    0.44
 1991 202    18    24     2     0.9  129.6   16638  112.3   17.3   3.1  11.5  19.4  14.0  12.9   2.6   0.5   1.0   0.0   0.0   0.1   0.7   1.4   0.9   0.9  1.55  1.00  0.86  0.00  0.00    8.27   38.37    0.00    0.00    0.45
 1991 203    19    24     2     2.8  128.3   16637  110.6   17.7   1.2   7.1  15.3  12.9  12.7   4.8   2.5   0.8   0.0   0.0   0.2   0.8   1.5   0.9   0.9  1.57  1.01  0.86  0.00  0.00    8.79   38.48    0.00    0.00    0.45
 1991 204    20    24     2     3.9  127.4   16637  109.3   18.1   0.7   5.1  12.9  12.0  12.4   5.9   3.3   1.4   0.0   0.0   0.2   0.8   1.5   0.9   1.0  1.58  1.01  0.86  0.00  0.00    9.26   38.59    0.26    0.00    0.45
 1991 205    21    24     2     4.7  126.8   16636  108.5   18.3   0.8   5.0  12.5  11.6  12.0   6.0   3.5   1.6   0.0   0.0   0.2   0.9   1.6   1.0   1.0  1.60  1.02  0.85  0.00  0.00    9.70   38.75    0.46    0.00    0.46
 1991 206    22    24     2     5.2  126.7   16636  108.1   18.6   0.9   4.9  12.3  11.4  11.8   6.0   3.6   1.8   0.0   0.0   0.1   0.9   1.7   1.0   1.0  1.61  1.02  0.85  0.00  0.00   10.14   38.94    0.58    0.00    0.46
 1991 207    23    24     2     5.5  126.6   16635  107.9   18.7   1.1   5.0  12.2  11.3  11.7   6.1   3.7   1.9   0.0   0.0   0.1   0.9   1.7   1.0   1.0  1.63  1.02  0.85  0.00  0.00   10.55   39.24    0.73    0.00    0.47
 1991 208    24    24     2     5.7  126.8   16635  108.0   18.8   1.3   5.0  12.2  11.2  11.6   6.0   3.7   1.9   0.0   0.0   0.1   0.8   1.7   1.0   1.0  1.64  1.02  0.84  0.00  0.00   11.00   39.57    0.80    0.00    0.47
 1991 209    25    24     2     5.8  127.2   16635  108.4   18.8   1.5   5.1  12.3  11.2  11.6   6.0   3.7   1.9   0.0   0.0   0.1   0.8   1.7   1.0   1.0  1.66  1.03  0.84  0.00  0.00   11.52   40.12    0.84    0.00    0.47
 1991 210    26    24     2     5.8  127.8   16634  109.0   18.8   1.7   5.2  12.5  11.2  11.6   6.0   3.7   1.9   0.0   0.0   0.1   0.7   1.6   1.0   1.0  1.67  1.03  0.83  0.00  0.00   12.13   40.75    0.86    0.00    0.47
 1991 211    27    24     2     5.8  128.2   16633  109.5   18.7   1.9   5.3  12.6  11.2  11.6   6.1   3.7   2.0   0.0   0.0   0.1   0.7   1.6   1.1   1.1  1.69  1.03  0.82  0.00  0.00   12.79   41.44    0.88    0.00    0.48
 1991 212    28    24     2     5.8  128.9   16633  110.3   18.6   1.2   4.6  12.3  11.8  11.9   6.1   3.8   2.0   0.0   0.0   0.1   0.6   1.5   1.0   1.1  1.70  1.03  0.82  0.00  0.00   13.46   42.22    0.90    0.00    0.48
 1991 213    29    24     2     6.2  129.0   16632  110.0   19.0   1.3   4.5  12.1  11.4  11.7   6.3   3.9   2.1   0.0   0.0   0.1   0.7   1.6   1.0   1.1  1.72  1.03  0.81  0.00  0.00   14.10   42.46    0.97    0.00    0.48
 1991 214    30    24     2     6.5  129.3   16631  110.0   19.3   1.5   4.5  11.9  11.2  11.6   6.4   4.0   2.2   0.0   0.0   0.1   0.8   1.7   1.1   1.1  1.73  1.03  0.81  0.00  0.00   14.65   42.70    1.01    0.00    0.48
 1991 215    31    24     2     6.5  129.6   16631  110.2   19.4   0.9   3.7  10.8  11.0  12.0   6.9   4.3   2.3   0.0   0.0   0.1   0.7   1.8   1.1   1.1  1.75  1.03  0.80  0.00  0.00   15.10   43.02    1.03    0.00    0.49
 1991 216    32    24     2     7.9  128.5   16631  108.9   19.7   0.5   2.7   9.0   9.9  11.3   7.6   5.1   3.0   0.0   0.0   0.1   0.8   1.8   1.1   1.1  1.76  1.03  0.80  0.00  0.00   15.49   43.18    1.19    0.00    0.49
 1991 217    33    24     2     9.3  127.0   16630  107.1   19.9   0.5   2.7   8.7   9.5  10.8   7.5   5.2   3.2   0.0   0.0   0.1   0.8   1.8   1.1   1.2  1.78  1.04  0.79  0.00  0.00   15.83   43.27    1.60    0.00    0.49
 1991 218    34    24     2    10.3  126.2   16630  106.1   20.1   0.6   2.7   8.6   9.3  10.6   7.5   5.2   3.3   0.0   0.0   0.1   0.8   1.9   1.1   1.2  1.79  1.04  0.79  0.00  0.00   16.17   43.43    1.83    0.00    0.50
 1991 219    35    24     2    10.8  125.8   16630  105.6   20.2   0.7   2.7   8.5   9.1  10.5   7.4   5.3   3.3   0.0   0.0   0.1   0.8   1.9   1.1   1.2  1.80  1.04  0.79  0.00  0.00   16.52   43.69    1.97    0.00    0.50
 1991 220    36    24     2    11.1  125.8   16629  105.6   20.3   0.8   2.8   8.5   9.1  10.4   7.4   5.3   3.4   0.0   0.0   0.1   0.7   1.9   1.2   1.2  1.81  1.05  0.78  0.00  0.00   16.88   43.97    2.04    0.00    0.50
 1991 221    37    24     2    11.3  126.0   16629  105.8   20.2   0.9   2.9   8.6   9.1  10.4   7.4   5.3   3.4   0.0   0.0   0.1   0.7   1.9   1.2   1.2  1.83  1.05  0.78  0.00  0.00   17.27   44.40    2.08    0.00    0.50
 1991 222    38    24     2    11.3  126.4   16628  106.2   20.2   1.0   2.9   8.7   9.1  10.4   7.4   5.3   3.4   0.0   0.0   0.1   0.7   1.8   1.2   1.2  1.84  1.05  0.77  0.00  0.00   17.69   44.86    2.11    0.00    0.51
 1991 223    39    24     2    11.3  126.8   16628  106.6   20.1   1.1   3.0   8.8   9.1  10.4   7.4   5.3   3.4   0.0   0.0   0.1   0.6   1.8   1.2   1.2  1.85  1.05  0.77  0.00  0.00   18.10   45.30    2.13    0.00    0.51
 1991 224    40    24     2    11.3  127.2   16628  107.1   20.1   1.2   3.1   8.9   9.1  10.4   7.4   5.3   3.4   0.0   0.0   0.1   0.6   1.7   1.2   1.2  1.86  1.05  0.76  0.00  0.00   18.53   45.75    2.15    0.00    0.51
 1991 225    41    24     2    11.3  127.6   16627  107.6   20.0   1.3   3.2   9.0   9.2  10.4   7.4   5.3   3.4   0.0   0.0   0.1   0.6   1.7   1.2   1.2  1.88  1.05  0.76  0.00  0.00   18.96   46.27    2.16    0.00    0.51
 1991 226    42    24     2    11.3  128.0   16627  108.1   19.9   1.4   3.3   9.1   9.2  10.4   7.4   5.3   3.4   0.0   0.0   0.1   0.6   1.7   1.1   1.2  1.89  1.05  0.75  0.00  0.00   19.40   46.80    2.18    0.00    0.51
 1991 227    43    24     2    11.3  128.5   16626  108.6   19.9   1.5   3.3   9.2   9.3  10.5   7.4   5.3   3.4   0.0   0.0   0.1   0.6   1.6   1.1   1.2  1.90  1.05  0.75  0.00  0.00   19.88   47.35    2.20    0.00    0.52
 1991 228    44    24     2    11.3  129.0   16626  109.2   19.8   1.7   3.4   9.3   9.4  10.5   7.4   5.3   3.5   0.0   0.0   0.1   0.6   1.6   1.1   1.3  1.92  1.05  0.75  0.00  0.00   20.43   47.96    2.22    0.00    0.52
 1991 229    45    24     2    11.3  129.6   16625  109.9   19.7   1.8   3.6   9.5   9.4  10.5   7.4   5.3   3.5   0.0   0.0   0.1   0.5   1.5   1.0   1.3  1.93  1.05  0.74  0.00  0.00   21.04   48.65    2.24    0.00    0.52
 1991 230    46    24     2    11.3  130.1   16624  110.5   19.6   2.0   3.7   9.6   9.5  10.5   7.4   5.4   3.5   0.0   0.0   0.1   0.5   1.5   1.0   1.3  1.95  1.05  0.74  0.00  0.00   21.70   49.39    2.25    0.00    0.53
 1991 231    47    24     2    11.3  130.5   16624  111.0   19.5   2.1   3.7   9.7   9.6  10.5   7.4   5.4   3.5   0.0   0.0   0.1   0.5   1.4   1.0   1.3  1.96  1.05  0.73  0.00  0.00   22.39   50.15    2.27    0.00    0.53
 1991 232    48    24     2    11.3  130.9   16623  111.4   19.5   2.3   3.8   9.7   9.6  10.6   7.4   5.4   3.5   0.0   0.0   0.1   0.5   1.4   0.9   1.3  1.98  1.05  0.73  0.00  0.00   23.08   50.89    2.29    0.00    0.53
 1991 233    49    24     2    11.3  131.2   16622  111.8   19.4   2.4   3.8   9.7   9.7  10.6   7.4   5.4   3.5   0.0   0.0   0.1   0.5   1.4   0.9   1.3  1.99  1.05  0.72  0.00  0.00   23.77   51.62    2.30    0.00    0.53
 1991 234    50    24     2    11.3  131.3   16622  111.9   19.3   2.5   3.9   9.6   9.8  10.6   7.4   5.4   3.5   0.0   0.0   0.1   0.5   1.3   0.9   1.3  2.01  1.06  0.72  0.00  0.00   24.46   52.33    2.32    0.00    0.54
 1991 235    51    24     2    11.3  131.4   16621  112.2   19.2   2.6   3.9   9.5   9.8  10.7   7.4   5.4   3.5   0.0   0.0   0.1   0.5   1.3   0.9   1.3  2.02  1.06  0.71  0.00  0.00   25.14   53.14    2.33    0.00    0.54
 1991 236    52    24     2    11.3  131.2   16620  112.2   19.0   2.7   3.9   9.3   9.9  10.8   7.4   5.4   3.5   0.0   0.0   0.1   0.5   1.2   0.8   1.2  2.03  1.06  0.71  0.00  0.00   25.83   53.94    2.34    0.00    0.54
 1991 237    53    24     2    11.3  131.1   16620  112.2   18.9   2.8   3.9   9.1   9.9  10.9   7.4   5.4   3.5   0.0   0.0   0.1   0.5   1.2   0.8   1.2  2.05  1.06  0.70  0.00  0.00   26.49   54.69    2.36    0.00    0.56
 1991 238    54    24     2    11.3  131.1   16619  112.4   18.8   2.9   3.9   8.9  10.0  10.9   7.4   5.4   3.5   0.0   0.0   0.1   0.5   1.2   0.8   1.1  2.06  1.06  0.70  0.00  0.00   27.14   55.39    2.37    0.00    0.58
 1991 239    55    24     2    11.3  131.1   16618  112.5   18.7   2.9   3.9   8.8  10.0  11.0   7.5   5.4   3.5   0.0   0.0   0.1   0.5   1.1   0.8   1.1  2.08  1.06  0.69  0.00  0.00   27.76   56.05    2.38    0.00    0.60
 1991 240    56    24     2    11.3  131.2   16618  112.6   18.6   2.9   4.0   8.7  10.1  11.0   7.5   5.5   3.6   0.0   0.0   0.1   0.5   1.1   0.8   1.1  2.09  1.06  0.69  0.00  0.00   28.33   56.65    2.39    0.00    0.62
 1991 241    57    24     2    11.3  131.1   16617  112.6   18.5   3.0   4.0   8.5  10.1  11.1   7.5   5.5   3.6   0.0   0.0   0.1   0.5   1.1   0.8   1.0  2.10  1.06  0.68  0.00  0.00   28.88   57.22    2.41    0.00    0.64
 1991 242    58    24     2    11.3  130.9   16617  112.4   18.5   3.0   3.9   8.3  10.1  11.2   7.5   5.5   3.6   0.0   0.0   0.1   0.5   1.1   0.7   1.0  2.12  1.06  0.68  0.00  0.00   29.45   57.80    2.42    0.00    0.66
 1991 243    59    24     2    11.3  130.6   16616  112.2   18.4   3.0   3.9   8.1  10.2  11.2   7.5   5.5   3.6   0.0   0.0   0.1   0.5   1.1   0.7   1.0  2.13  1.06  0.68  0.00  0.00   30.01   58.36    2.43    0.00    0.67
 1991 244    60    24     2    11.3  130.0   16615  111.6   18.3   2.0   4.1   7.8  10.1  11.3   7.5   5.5   3.6   0.0   0.0   0.1   0.5   1.0   0.7   1.0  2.14  1.06  0.67  0.00  0.00   30.57   58.92    2.44    0.00    0.69
 1991 245    61    24     2    11.3  129.6   16615  111.2   18.4   1.9   3.9   7.6  10.1  11.3   7.5   5.5   3.6   0.0   0.0   0.1   0.6   1.0   0.7   0.9  2.16  1.06  0.67  0.00  0.00   31.13   59.38    2.45    0.00    0.71
 1991 246    62    24     2    11.3  129.8   16614  111.4   18.4   2.0   3.8   7.7  10.2  11.4   7.5   5.5   3.6   0.0   0.0   0.1   0.6   1.0   0.7   0.9  2.17  1.06  0.66  0.00  0.00   31.68   59.83    2.47    0.00    0.73
 1991 247    63    24     2    11.3  129.4   16614  111.0   18.4   1.9   3.8   7.4  10.1  11.4   7.5   5.5   3.6   0.0   0.0   0.1   0.6   1.0   0.7   0.9  2.18  1.06  0.66  0.00  0.00   32.22   60.38    2.48    0.00    0.75
 1991 248    64    24     2    11.3  128.0   16613  109.7   18.3   1.9   3.6   6.9  10.0  11.5   7.5   5.5   3.6   0.0   0.0   0.1   0.6   1.0   0.7   0.9  2.19  1.06  0.66  0.00  0.00   32.78   60.93    2.49    0.00    0.77
 1991 249    65    24     2    11.3  126.4   16613  108.2   18.2   1.8   3.4   6.4   9.7  11.5   7.5   5.5   3.6   0.0   0.0   0.1   0.6   1.0   0.7   0.9  2.21  1.06  0.65  0.00  0.00   33.39   61.52    2.50    0.00    0.79
 1991 250    66    24     2    11.3  126.4   16612  108.2   18.2   1.7   3.5   6.3   9.6  11.6   7.5   5.5   3.6   0.0   0.0   0.1   0.5   1.0   0.7   0.8  2.22  1.06  0.65  0.00  0.00   34.02   62.12    2.51    0.00    0.81
 1991 251    67    24     2    11.3  125.8   16611  107.7   18.2   1.6   3.5   6.1   9.5  11.6   7.5   5.6   3.6   0.0   0.0   0.2   0.5   1.0   0.6   0.8  2.23  1.07  0.65  0.00  0.00   34.67   62.69    2.52    0.00    0.83
 1991 252    68    24     2    11.3  124.1   16611  106.0   18.1   1.5   3.2   5.6   9.2  11.6   7.5   5.6   3.6   0.0   0.0   0.1   0.5   0.9   0.6   0.8  2.25  1.07  0.64  0.00  0.00   35.28   63.30    2.53    0.00    0.86
 1991 253    69    24     2    11.3  122.9   16610  104.9   18.0   1.5   3.1   5.2   8.9  11.7   7.5   5.6   3.7   0.0   0.0   0.1   0.5   0.9   0.6   0.8  2.26  1.07  0.64  0.00  0.00   35.87   63.82    2.54    0.00    0.87
 1991 254    70    24     2    11.3  121.6   16610  103.6   18.0   1.4   2.9   4.8   8.7  11.7   7.5   5.6   3.7   0.0   0.0   0.1   0.5   0.9   0.6   0.8  2.27  1.07  0.64  0.00  0.00   36.42   64.32    2.55    0.00    0.89
 1991 255    71    24     2    11.3  119.4   16609  101.4   18.0   1.3   2.6   4.3   8.3  11.5   7.5   5.6   3.7   0.0   0.0   0.1   0.5   0.9   0.6   0.8  2.28  1.07  0.63  0.00  0.00   36.99   64.83    2.56    0.00    0.91
 1991 256    72    24     2    11.3  116.9   16608   99.0   17.9   1.2   2.4   3.8   7.9  11.2   7.6   5.6   3.7   0.0   0.0   0.1   0.5   0.8   0.6   0.7  2.30  1.07  0.63  0.00  0.00   37.59   65.37    2.56    0.00    0.93
 1991 257    73    24     2    11.3  114.4   16608   96.5   17.8   1.1   2.2   3.4   7.5  10.8   7.6   5.6   3.7   0.0   0.0   0.1   0.5   0.8   0.6   0.7  2.31  1.07  0.62  0.00  0.00   38.24   65.96    2.57    0.00    0.95
 1991 258    74    24     2    11.3  113.9   16607   96.0   17.8   0.8   2.3   3.3   7.4  10.7   7.6   5.6   3.7   0.0   0.0   0.1   0.5   0.8   0.6   0.7  2.32  1.07  0.62  0.00  0.00   38.89   66.54    2.58    0.00    0.95
 1991 259    75    24     2    11.3  113.0   16607   95.0   18.0   0.7   2.2   3.2   7.2  10.5   7.6   5.6   3.7   0.0   0.0   0.2   0.6   0.8   0.6   0.7  2.33  1.07  0.62  0.00  0.00   39.52   66.94    2.59    0.00    0.95
 1991 260    76    24     2    11.3  111.3   16606   93.2   18.1   0.5   1.7   3.2   7.0  10.1   7.6   5.6   3.7   0.0   0.0   0.3   0.7   0.8   0.6   0.7  2.35  1.07  0.61  0.00  0.00   40.14   67.35    2.59    0.00    0.95
 1991 261    77    24     2    14.2  107.0   16605   88.6   18.4   0.2   0.9   2.1   4.6   8.1   8.1   6.6   4.7   0.0   0.0   0.3   0.7   0.9   0.6   0.7  2.36  1.07  0.61  0.00  0.00   40.74   67.65    2.60    0.00    0.96
 1991 262    78    24     2    16.2  101.2   16605   82.8   18.4   0.4   0.7   1.4   3.9   6.9   7.9   6.5   4.7   0.0   0.0   0.2   0.7   0.8   0.6   0.7  2.37  1.08  0.61  0.00  0.00   41.28   67.89    2.79    0.00    0.96
 1991 263    79    24     2    17.3   97.2   16604   78.9   18.3   0.4   0.5   1.1   3.4   6.1   7.7   6.5   4.8   0.0   0.0   0.1   0.8   0.8   0.6   0.7  2.39  1.08  0.61  0.00  0.00   41.82   68.18    2.90    0.00    0.97
 1991 264    80    24     2    17.9   95.6   16604   77.3   18.3   0.5   0.6   1.0   3.2   5.7   7.6   6.4   4.8   0.0   0.0   0.1   0.7   0.8   0.6   0.7  2.40  1.08  0.61  0.00  0.00   42.40   68.62    2.96    0.00    0.97
 1991 265    81    24     2    18.2   92.7   16603   74.5   18.1   0.4   0.5   0.7   2.8   5.1   7.6   6.4   4.7   0.0   0.0   0.1   0.6   0.7   0.6   0.7  2.41  1.08  0.61  0.00  0.00   43.00   69.12    3.00    0.00    0.98
 1991 266    82    24     2    18.4   88.7   16603   70.8   17.9   0.4   0.4   0.4   2.2   4.2   7.6   6.4   4.7   0.0   0.0   0.1   0.5   0.6   0.6   0.6  2.43  1.08  0.60  0.00  0.00   43.59   69.64    3.02    0.00    0.98
 1991 267    83    24     2    18.4   86.1   16602   68.5   17.6   0.4   0.4   0.3   1.9   3.7   7.4   6.4   4.8   0.0   0.0   0.1   0.5   0.6   0.6   0.6  2.39  1.08  0.60  0.00  0.00   44.17   70.12    3.04    0.00    0.98
 1991 268    84    24     2    18.4   84.5   16601   67.1   17.5   0.4   0.4   0.3   1.8   3.4   7.2   6.4   4.8   0.0   0.0   0.1   0.5   0.6   0.6   0.6  2.35  1.08  0.60  0.00  0.00   44.76   70.59    3.05    0.00    0.98
 1991 269    85    24     2    18.4   82.3   16601   65.2   17.2   0.4   0.4   0.3   1.7   3.2   6.9   6.4   4.8   0.0   0.0   0.1   0.5   0.7   0.6   0.6  2.28  1.08  0.59  0.00  0.00   45.34   71.06    3.06    0.00    0.99
 1991 270    86    24     2    18.4   79.2   16600   62.5   16.7   0.4   0.4   0.3   1.6   2.9   6.4   6.4   4.8   0.0   0.0   0.1   0.5   0.7   0.6   0.6  2.17  1.08  0.59  0.00  0.00   45.91   71.52    3.07    0.00    0.99
 1991 271    87    24     2    18.4   75.7   16600   59.6   16.1   0.4   0.4   0.3   1.4   2.6   5.9   6.4   4.8   0.0   0.0   0.1   0.5   0.6   0.5   0.6  2.05  1.08  0.59  0.00  0.00   46.50   72.00    3.08    0.00    0.99
 1991 272    88    24     2    18.4   72.1   16599   56.6   15.5   0.4   0.4   0.3   1.3   2.3   5.4   6.4   4.8   0.0   0.0   0.1   0.5   0.6   0.5   0.6  1.90  1.08  0.59  0.00  0.00   47.08   72.53    3.08    0.00    1.00
 1991 273    89    24     2    18.4   70.0   16599   55.0   15.1   0.4   0.4   0.3   1.2   2.2   5.1   6.4   4.8   0.0   0.0   0.1   0.5   0.6   0.5   0.6  1.81  1.09  0.58  0.00  0.00   47.65   73.05    3.09    0.00    1.00
 1991 274    90    24     2    18.4   67.5   16598   52.9   14.6   0.3   0.4   0.3   1.1   2.0   4.7   6.5   4.8   0.0   0.0   0.1   0.5   0.6   0.5   0.6  1.71  1.09  0.58  0.00  0.00   48.20   73.56    3.10    0.00    1.00
 1991 275    91    24     2    18.4   64.9   16597   50.8   14.1   0.3   0.3   0.3   1.0   1.8   4.3   6.5   4.8   0.0   0.0   0.1   0.5   0.6   0.5   0.5  1.60  1.09  0.58  0.00  0.00   48.72   74.05    3.10    0.00    1.00
 1991 276    92    24     2    18.4   62.2   16597   48.6   13.6   0.3   0.3   0.3   0.9   1.6   3.9   6.5   4.8   0.0   0.0   0.1   0.5   0.6   0.5   0.5  1.49  1.09  0.57  0.00  0.00   49.19   74.48    3.11    0.00    1.01
 1991 277    93    24     2    18.4   59.6   16597   46.4   13.1   0.3   0.3   0.3   0.8   1.4   3.5   6.5   4.8   0.0   0.0   0.1   0.4   0.6   0.5   0.5  1.39  1.09  0.57  0.00  0.00   49.65   74.91    3.11    0.00    1.01
 1991 278    94    24     2    18.4   57.3   16596   44.6   12.7   0.3   0.3   0.3   0.7   1.3   3.1   6.5   4.8   0.0   0.0   0.1   0.4   0.6   0.5   0.5  1.30  1.09  0.57  0.00  0.00   50.12   75.35    3.12    0.00    1.01
 1991 279    95    24     2    18.4   56.3   16596   43.8   12.5   0.2   0.4   0.3   0.7   1.2   3.0   6.5   4.8   0.0   0.0   0.1   0.4   0.6   0.5   0.5  1.26  1.09  0.57  0.00  0.00   50.56   75.75    3.12    0.00    1.01
 1991 280    96    24     2    18.4   54.7   16595   42.3   12.4   0.1   0.3   0.4   0.6   1.1   2.7   6.5   4.8   0.0   0.0   0.2   0.5   0.6   0.5   0.5  1.20  1.09  0.56  0.00  0.00   51.02   76.03    3.12    0.00    1.01
 1991 281    97    24     2    18.4   53.8   16595   41.4   12.4   0.1   0.3   0.3   0.6   1.0   2.5   6.5   4.8   0.0   0.0   0.2   0.6   0.6   0.5   0.5  1.15  1.09  0.56  0.00  0.00   51.47   76.25    3.13    0.00    1.02
 1991 282    98    24     2    18.4   51.5   16594   39.5   12.0   0.3   0.3   0.3   0.5   0.8   2.2   6.5   4.8   0.0   0.0   0.2   0.6   0.7   0.5   0.5  1.06  1.09  0.56  0.00  0.00   51.93   76.54    3.13    0.00    1.02
 1991 283    99    24     2    18.4   49.9   16594   38.3   11.6   0.3   0.3   0.3   0.4   0.7   1.9   6.5   4.8   0.0   0.0   0.1   0.5   0.6   0.5   0.5  1.00  1.09  0.56  0.00  0.00   52.38   76.94    3.13    0.00    1.02
 1991 284   100    24     2    18.4   47.8   16593   36.6   11.2   0.3   0.3   0.3   0.4   0.6   1.6   6.5   4.9   0.0   0.0   0.1   0.5   0.6   0.5   0.5  0.92  1.09  0.55  0.00  0.00   52.88   77.35    3.13    0.00    1.03
 1991 285   101    24     2    18.4   46.2   16593   35.3   10.8   0.3   0.3   0.3   0.3   0.5   1.3   6.6   4.9   0.0   0.0   0.1   0.5   0.6   0.5   0.5  0.85  1.06  0.55  0.00  0.00   53.43   77.84    3.14    0.00    1.03
 1991 286   102    24     2    18.4   45.0   16592   34.4   10.6   0.4   0.4   0.3   0.3   0.4   1.1   6.6   4.9   0.0   0.0   0.1   0.5   0.6   0.5   0.5  0.80  1.04  0.55  0.00  0.00   54.06   78.38    3.14    0.00    1.03
 1991 287   103    24     2    18.4   44.0   16592   33.7   10.3   0.4   0.4   0.3   0.3   0.4   0.9   6.6   4.9   0.0   0.0   0.1   0.5   0.6   0.5   0.5  0.76  1.02  0.55  0.00  0.00   54.76   79.00    3.14    0.00    1.04
 1991 288   104    24     2    18.4   43.3   16591   33.1   10.2   0.1   0.3   0.4   0.3   0.4   0.7   6.7   4.9   0.0   0.0   0.2   0.5   0.6   0.5   0.5  0.72  1.00  0.55  0.00  0.00   55.52   79.60    3.14    0.00    1.04
 1991 289   105    24     2    22.6   38.6   16590   28.3   10.3   0.4   0.1   0.2   0.2   0.3   0.5   5.1   5.2   0.0   0.0   0.0   0.6   0.7   0.6   0.5  0.69  0.98  0.54  0.00  0.00   56.27   80.05    3.15    0.00    1.04
 1991 290   106    24     2    25.2   36.2   16590   25.4   10.8   0.3   0.1   0.2   0.2   0.2   0.5   4.4   4.9   0.0   0.0   0.2   0.7   0.8   0.6   0.5  0.69  0.98  0.54  0.00  0.00   56.94   80.13    3.17    0.00    1.04
 1991 291   107    24     2    26.6   34.8   16589   23.9   10.9   0.3   0.2   0.2   0.2   0.2   0.4   4.0   4.7   0.0   0.0   0.3   0.7   0.8   0.6   0.6  0.68  0.99  0.54  0.00  0.00   57.63   80.27    3.19    0.00    1.05
 1991 292   108    24     2    27.1   34.1   16588   23.3   10.7   0.5   0.2   0.2   0.2   0.3   0.3   3.9   4.6   0.0   0.0   0.1   0.7   0.8   0.6   0.6  0.67  0.99  0.54  0.00  0.00   58.27   80.56    3.20    0.00    1.05
 1991 293   109    24     2    27.2   33.5   16588   23.2   10.4   0.4   0.3   0.2   0.2   0.3   0.3   3.9   4.6   0.0   0.0   0.1   0.5   0.7   0.6   0.6  0.65  0.99  0.54  0.00  0.00   58.87   80.95    3.21    0.00    1.05
 1991 294   110    24     2    27.3   33.4   16587   23.3   10.1   0.4   0.4   0.3   0.3   0.3   0.3   3.9   4.5   0.0   0.0   0.1   0.5   0.6   0.6   0.5  0.64  0.99  0.54  0.00  0.00   59.49   81.43    3.21    0.00    1.06
 1991 295   111    24     2    27.3   33.4   16587   23.5    9.9   0.4   0.4   0.3   0.3   0.3   0.3   3.9   4.6   0.0   0.0   0.1   0.5   0.6   0.6   0.5  0.63  1.00  0.54  0.00  0.00   60.16   81.95    3.22    0.00    1.06
 1991 296   112    24     2    27.3   33.4   16586   23.6    9.8   0.4   0.4   0.3   0.3   0.3   0.3   3.9   4.6   0.0   0.0   0.1   0.5   0.6   0.6   0.5  0.62  1.00  0.53  0.00  0.00   60.91   82.53    3.22    0.00    1.06
 1991 297   113    24     2    27.3   33.4   16585   23.5    9.9   0.3   0.4   0.3   0.3   0.3   0.3   3.9   4.6   0.0   0.0   0.2   0.5   0.6   0.5   0.5  0.61  1.00  0.53  0.00  0.00   61.64   83.02    3.22    0.00    1.06
 1991 298   114    24     2    27.3   33.4   16585   23.6    9.7   0.5   0.4   0.3   0.3   0.3   0.3   3.9   4.6   0.0   0.0   0.1   0.5   0.6   0.5   0.5  0.61  1.00  0.53  0.00  0.00   62.34   83.61    3.23    0.00    1.06
 1991 299   115    24     2    27.3   33.3   16584   23.6    9.7   0.4   0.4   0.3   0.3   0.3   0.3   3.9   4.6   0.0   0.0   0.1   0.5   0.6   0.5   0.5  0.60  1.00  0.53  0.00  0.00   63.01   84.11    3.23    0.00    1.07
 1991 300   116    24     2    27.3   33.3   16583   23.6    9.7   0.4   0.4   0.3   0.3   0.3   0.3   3.9   4.6   0.0   0.0   0.1   0.5   0.6   0.5   0.5  0.60  1.00  0.52  0.00  0.00   63.66   84.58    3.23    0.00    1.07
 1991 301   117    24     2    27.3   32.1   16583   22.6    9.5   0.4   0.4   0.3   0.3   0.3   0.3   3.5   4.6   0.0   0.0   0.1   0.5   0.6   0.5   0.5  0.59  0.95  0.52  0.00  0.00   64.27   85.03    3.23    0.00    1.07
 1991 302   118    24     2    27.3   31.0   16582   21.7    9.3   0.4   0.4   0.3   0.3   0.3   0.3   3.1   4.6   0.0   0.0   0.1   0.5   0.6   0.5   0.5  0.59  0.88  0.52  0.00  0.00   64.88   85.52    3.24    0.00    1.07
 1991 303   119    24     2    27.3   30.0   16582   20.9    9.2   0.2   0.4   0.3   0.3   0.3   0.3   2.8   4.6   0.0   0.0   0.1   0.5   0.6   0.5   0.5  0.59  0.82  0.52  0.00  0.00   65.50   86.02    3.24    0.00    1.07
 1991 304   120    24     2    27.3   29.2   16581   20.0    9.2   0.2   0.3   0.3   0.3   0.3   0.3   2.5   4.6   0.0   0.0   0.2   0.6   0.6   0.5   0.5  0.59  0.77  0.52  0.00  0.00   66.10   86.34    3.24    0.00    1.07
 1991 305   121    24     2    27.3   28.5   16581   19.2    9.2   0.3   0.3   0.3   0.3   0.3   0.3   2.2   4.6   0.0   0.0   0.3   0.6   0.6   0.5   0.5  0.58  0.72  0.51  0.00  0.00   66.68   86.61    3.24    0.00    1.08
 1991 306   122    24     2    27.3   27.8   16580   18.7    9.1   0.3   0.3   0.3   0.3   0.3   0.3   2.0   4.6   0.0   0.0   0.3   0.6   0.6   0.5   0.5  0.58  0.69  0.51  0.00  0.00   67.25   86.95    3.24    0.00    1.08
 1991 307   123    24     2    27.3   27.2   16579   18.4    8.8   0.5   0.4   0.3   0.3   0.3   0.3   1.7   4.6   0.0   0.0   0.2   0.5   0.6   0.5   0.5  0.58  0.65  0.51  0.00  0.00   67.83   87.54    3.24    0.00    1.08
 1991 308   124    24     2    27.3   26.5   16579   17.8    8.6   0.4   0.4   0.3   0.3   0.3   0.3   1.5   4.6   0.0   0.0   0.1   0.5   0.6   0.5   0.5  0.58  0.62  0.51  0.00  0.00   68.44   88.04    3.25    0.00    1.08
 1991 309   125    24     2    27.3   26.0   16578   17.4    8.6   0.4   0.4   0.3   0.3   0.3   0.3   1.4   4.6   0.0   0.0   0.1   0.5   0.6   0.5   0.5  0.58  0.60  0.51  0.00  0.00   69.08   88.54    3.25    0.00    1.09
 1991 310   126    24     2    27.3   25.6   16578   17.1    8.5   0.3   0.4   0.3   0.3   0.3   0.3   1.2   4.6   0.0   0.0   0.1   0.5   0.6   0.5   0.5  0.58  0.58  0.51  0.00  0.00   69.74   89.07    3.25    0.00    1.09
 1991 311   127    24     2    27.3   25.2   16577   16.6    8.6   0.3   0.3   0.3   0.3   0.3   0.3   1.1   4.6   0.0   0.0   0.2   0.6   0.6   0.5   0.5  0.58  0.56  0.50  0.00  0.00   70.41   89.42    3.25    0.00    1.09
 1991 312   128    24     2    27.3   25.0   16576   16.6    8.4   0.5   0.4   0.3   0.3   0.3   0.3   0.9   4.6   0.0   0.0   0.1   0.5   0.6   0.5   0.5  0.57  0.55  0.50  0.00  0.00   71.08   90.05    3.25    0.00    1.09
 1991 313   129    24     2    27.3   24.6   16576   16.2    8.3   0.4   0.4   0.3   0.3   0.3   0.3   0.8   4.7   0.0   0.0   0.1   0.5   0.6   0.5   0.5  0.57  0.54  0.50  0.00  0.00   71.74   90.57    3.25    0.00    1.09
 1991 314   130    24     2    27.3   24.3   16575   16.0    8.3   0.4   0.4   0.3   0.3   0.3   0.3   0.8   4.7   0.0   0.0   0.1   0.5   0.6   0.5   0.5  0.57  0.53  0.50  0.00  0.00   72.39   91.09    3.25    0.00    1.10
 1991 315   131    24     2    27.3   24.1   16575   15.8    8.3   0.4   0.4   0.3   0.3   0.3   0.3   0.7   4.7   0.0   0.0   0.1   0.5   0.6   0.5   0.5  0.57  0.52  0.50  0.00  0.00   73.03   91.60    3.25    0.00    1.10
 1991 316   132    24     2    27.3   23.9   16574   15.7    8.2   0.4   0.4   0.3   0.3   0.3   0.3   0.6   4.7   0.0   0.0   0.1   0.5   0.6   0.5   0.5  0.57  0.51  0.48  0.00  0.00   73.64   92.12    3.25    0.00    1.10
 1991 317   133    24     2    27.3   23.7   16574   15.6    8.1   0.4   0.4   0.3   0.3   0.3   0.3   0.5   4.7   0.0   0.0   0.1   0.5   0.6   0.5   0.5  0.57  0.50  0.47  0.00  0.00   74.22   92.61    3.25    0.00    1.10
 1991 318   134    24     2    27.3   23.5   16573   15.5    8.1   0.4   0.4   0.3   0.3   0.3   0.3   0.5   4.7   0.0   0.0   0.1   0.5   0.6   0.5   0.5  0.57  0.50  0.46  0.00  0.00   74.79   93.10    3.25    0.00    1.11
 1991 319   135    24     2    27.3   23.3   16573   15.3    8.0   0.4   0.4   0.3   0.3   0.3   0.3   0.4   4.7   0.0   0.0   0.1   0.5   0.6   0.5   0.5  0.56  0.49  0.45  0.00  0.00   75.32   93.56    3.25    0.00    1.11
 1991 320   136    24     2    27.3   23.2   16572   15.3    7.9   0.4   0.3   0.3   0.3   0.3   0.3   0.4   4.7   0.0   0.0   0.1   0.5   0.6   0.5   0.5  0.56  0.48  0.44  0.00  0.00   75.83   94.01    3.25    0.00    1.11
 1991 321   137    24     2    27.3   23.0   16572   15.1    7.8   0.4   0.4   0.3   0.3   0.3   0.3   0.4   4.7   0.0   0.0   0.1   0.5   0.6   0.5   0.5  0.56  0.48  0.43  0.00  0.00   76.34   94.47    3.25    0.00    1.11
 1991 322   138    24     2    27.3   22.3   16571   14.5    7.8   0.4   0.4   0.3   0.3   0.3   0.3   0.3   4.5   0.0   0.0   0.1   0.5   0.6   0.5   0.5  0.56  0.47  0.42  0.00  0.00   76.84   94.93    3.25    0.00    1.12
 1991 323   139    24     2    27.3   21.6   16571   13.9    7.7   0.4   0.4   0.3   0.3   0.3   0.3   0.3   4.2   0.0   0.0   0.1   0.5   0.6   0.5   0.5  0.56  0.47  0.41  0.00  0.00   77.34   95.41    3.25    0.00    1.12
 1991 324   140    24     2    27.3   20.8   16570   13.2    7.6   0.4   0.4   0.3   0.3   0.3   0.3   0.3   4.0   0.0   0.0   0.1   0.4   0.5   0.5   0.5  0.56  0.46  0.40  0.00  0.00   77.84   95.90    3.25    0.00    1.12
 1991 325   141    24     2    27.3   20.1   16570   12.6    7.5   0.4   0.4   0.3   0.3   0.3   0.3   0.3   3.7   0.0   0.0   0.1   0.4   0.5   0.5   0.5  0.56  0.45  0.39  0.00  0.00   78.32   96.38    3.25    0.00    1.12
 1991 326   142    24     2    27.3   19.5   16569   12.1    7.4   0.4   0.4   0.3   0.3   0.3   0.3   0.3   3.5   0.0   0.0   0.1   0.4   0.5   0.5   0.5  0.55  0.45  0.38  0.00  0.00   78.80   96.88    3.25    0.00    1.13
 1991 327   143    24     2    27.3   18.9   16569   11.6    7.3   0.4   0.4   0.3   0.3   0.3   0.3   0.3   3.3   0.0   0.0   0.1   0.3   0.5   0.5   0.5  0.55  0.44  0.38  0.00  0.00   79.29   97.40    3.25    0.00    1.13
 1991 328   144    24     2    27.3   18.3   16568   11.2    7.2   0.4   0.4   0.3   0.3   0.3   0.3   0.3   3.1   0.0   0.0   0.1   0.3   0.5   0.5   0.5  0.55  0.43  0.37  0.00  0.00   79.78   97.94    3.25    0.00    1.13
 1991 329   145    24     2    27.3   17.8   16568   10.8    7.1   0.1   0.2   0.4   0.4   0.3   0.3   0.3   2.9   0.0   0.0   0.1   0.3   0.5   0.5   0.4  0.55  0.43  0.36  0.00  0.00   80.26   98.45    3.25    0.00    1.13
 1991 330   146    24     2    27.3   17.5   16567   10.0    7.5   0.1   0.2   0.2   0.3   0.3   0.3   0.3   2.7   0.0   0.0   0.2   0.4   0.6   0.5   0.5  0.55  0.42  0.35  0.00  0.00   80.94   98.63    3.25    0.00    1.13
 1991 331   147    24     2    27.3   17.3   16567    9.4    8.0   0.1   0.2   0.2   0.3   0.3   0.3   0.3   2.6   0.0   0.0   0.3   0.5   0.7   0.5   0.5  0.56  0.41  0.34  0.00  0.00   81.65   98.80    3.25    0.00    1.14
 1991 332   148    24     2    27.3   17.3   16566    9.0    8.2   0.2   0.2   0.2   0.3   0.2   0.3   0.3   2.4   0.0   0.0   0.4   0.6   0.7   0.6   0.5  0.56  0.41  0.33  0.00  0.00   82.31   98.98    3.25    0.00    1.14
 1991 333   149    24     2    27.3   17.1   16565    8.9    8.2   0.5   0.2   0.2   0.3   0.3   0.3   0.3   2.3   0.0   0.0   0.1   0.7   0.7   0.6   0.5  0.56  0.40  0.32  0.00  0.00   82.95   99.34    3.25    0.00    1.14
 1991 334   150    24     2    27.3   16.9   16565    8.6    8.3   0.4   0.3   0.3   0.3   0.3   0.3   0.3   2.1   0.0   0.0   0.2   0.7   0.7   0.6   0.6  0.57  0.40  0.32  0.00  0.00   83.61   99.52    3.26    0.00    1.15
 1991 335   151    24     2    27.3   16.7   16564    8.5    8.2   0.5   0.3   0.3   0.3   0.3   0.3   0.3   2.0   0.0   0.0   0.1   0.7   0.7   0.6   0.5  0.57  0.40  0.31  0.00  0.00   84.34   99.92    3.26    0.00    1.15
 1991 336   152    24     2    27.3   16.3   16564    8.4    7.9   0.4   0.5   0.3   0.3   0.3   0.3   0.3   1.9   0.0   0.0   0.1   0.5   0.7   0.6   0.5  0.58  0.39  0.30  0.00  0.00   85.11  100.50    3.26    0.00    1.15
 1991 337   153    24     2    27.3   15.9   16563    8.2    7.7   0.4   0.4   0.3   0.3   0.3   0.3   0.3   1.8   0.0   0.0   0.1   0.5   0.6   0.6   0.5  0.58  0.39  0.29  0.00  0.00   85.91  101.19    3.26    0.00    1.16
 1991 338   154    24     2    27.3   15.5   16562    7.9    7.6   0.4   0.4   0.3   0.3   0.3   0.3   0.3   1.7   0.0   0.0   0.1   0.5   0.6   0.5   0.5  0.58  0.39  0.28  0.00  0.00   86.71  101.83    3.26    0.00    1.16
 1991 339   155    24     2    27.3   15.3   16561    7.7    7.6   0.3   0.4   0.4   0.3   0.3   0.3   0.3   1.6   0.0   0.0   0.1   0.5   0.6   0.5   0.5  0.58  0.38  0.28  0.00  0.00   87.55  102.50    3.26    0.00    1.16
 1991 340   156    24     2    27.3   15.1   16561    7.2    7.9   0.3   0.3   0.3   0.3   0.3   0.3   0.3   1.5   0.0   0.0   0.2   0.6   0.7   0.5   0.5  0.59  0.38  0.27  0.00  0.00   88.37  102.81    3.26    0.00    1.16
 1991 341   157    24     2    27.3   15.1   16560    7.3    7.7   0.7   0.3   0.3   0.3   0.3   0.3   0.3   1.4   0.0   0.0   0.0   0.7   0.6   0.5   0.5  0.59  0.38  0.26  0.00  0.00   89.22  103.50    3.26    0.00    1.17
 1991 342   158    24     2    27.3   14.7   16559    7.1    7.5   0.3   0.5   0.3   0.3   0.3   0.3   0.3   1.3   0.0   0.0   0.2   0.5   0.6   0.5   0.5  0.59  0.37  0.26  0.00  0.00   90.06  104.16    3.26    0.00    1.17
[...]
 1995 286   102    24     2     1.9   80.6   16592   63.1   17.4   0.7   2.0   4.5   8.4   7.7   3.3   2.1   1.6   0.0   0.0   0.2   0.6   1.0   0.6   0.6  2.28  0.97  0.46  0.00  0.00   54.23   80.11    1.99    0.00    0.99
 1995 287   103    24     2     1.9   76.5   16591   59.6   17.0   0.7   1.7   3.8   7.9   7.3   3.2   2.2   1.6   0.0   0.0   0.1   0.7   0.9   0.6   0.6  2.20  0.97  0.46  0.00  0.00   54.77   80.61    1.99    0.00    0.99
 1995 288   104    24     2     1.9   74.0   16591   57.4   16.6   0.8   1.6   3.4   7.6   7.0   3.1   2.2   1.6   0.0   0.0   0.1   0.6   0.9   0.6   0.6  2.14  0.98  0.45  0.00  0.00   55.32   81.19    1.99    0.00    1.00
 1995 289   105    24     2     1.9   69.6   16590   53.5   16.0   0.7   1.4   2.8   7.0   6.5   3.0   2.2   1.6   0.0   0.0   0.1   0.6   0.8   0.6   0.6  2.05  0.98  0.45  0.00  0.00   55.90   81.77    1.99    0.00    1.00
 1995 290   106    24     2     1.9   65.1   16590   49.6   15.5   0.6   1.2   2.2   6.5   6.0   2.8   2.2   1.6   0.0   0.0   0.1   0.6   0.8   0.6   0.6  1.95  0.98  0.45  0.00  0.00   56.48   82.34    2.00    0.00    1.00
 1995 291   107    24     2     1.9   63.2   16589   47.9   15.2   0.7   1.2   1.9   6.2   5.8   2.7   2.2   1.6   0.0   0.0   0.1   0.5   0.8   0.6   0.6  1.90  0.98  0.45  0.00  0.00   57.07   82.89    2.00    0.00    1.01
 1995 292   108    24     2     1.9   58.6   16589   43.9   14.7   0.6   0.9   1.5   5.6   5.2   2.5   2.2   1.6   0.0   0.0   0.1   0.5   0.7   0.6   0.6  1.79  0.98  0.45  0.00  0.00   57.69   83.47    2.00    0.00    1.01
 1995 293   109    24     2     1.9   55.7   16588   41.4   14.3   0.6   0.8   1.2   5.2   4.9   2.4   2.2   1.6   0.0   0.0   0.1   0.5   0.7   0.6   0.6  1.71  0.98  0.45  0.00  0.00   58.31   84.04    2.00    0.00    1.01
 1995 294   110    24     2     1.9   50.9   16588   37.2   13.7   0.5   0.6   0.8   4.5   4.3   2.2   2.2   1.6   0.0   0.0   0.1   0.5   0.7   0.6   0.5  1.59  0.98  0.45  0.00  0.00   58.90   84.58    2.00    0.00    1.02
 1995 295   111    24     2     1.9   46.6   16587   33.5   13.1   0.4   0.5   0.6   3.8   3.7   2.0   2.2   1.6   0.0   0.0   0.1   0.5   0.6   0.5   0.5  1.48  0.98  0.45  0.00  0.00   59.46   85.10    2.01    0.00    1.02
 1995 296   112    24     2     1.9   41.3   16586   28.9   12.4   0.4   0.4   0.3   3.0   3.0   1.7   2.2   1.7   0.0   0.0   0.1   0.5   0.6   0.5   0.5  1.33  0.99  0.45  0.00  0.00   60.03   85.64    2.01    0.00    1.02
 1995 297   113    24     2     1.9   36.8   16586   25.1   11.7   0.4   0.4   0.3   2.3   2.4   1.4   2.2   1.7   0.0   0.0   0.1   0.4   0.6   0.5   0.5  1.19  0.99  0.44  0.00  0.00   60.61   86.18    2.01    0.00    1.02
 1995 298   114    24     2     1.9   33.4   16585   22.2   11.2   0.2   0.4   0.4   1.8   1.9   1.2   2.3   1.7   0.0   0.0   0.1   0.4   0.6   0.5   0.5  1.07  0.99  0.44  0.00  0.00   61.21   86.74    2.01    0.00    1.03
 1995 299   115    24     2     1.9   30.8   16585   19.7   11.0   0.1   0.2   0.3   1.4   1.5   1.0   2.3   1.7   0.0   0.0   0.2   0.5   0.6   0.5   0.5  0.98  0.99  0.44  0.00  0.00   61.93   87.11    2.01    0.00    1.03
 1995 300   116    24     2     1.9   28.9   16584   17.9   11.0   0.2   0.3   0.3   1.1   1.2   0.8   2.3   1.7   0.0   0.0   0.3   0.6   0.7   0.5   0.5  0.90  0.99  0.44  0.00  0.00   62.64   87.40    2.01    0.00    1.03
 1995 301   117    24     2     1.9   27.5   16583   16.5   10.9   0.2   0.3   0.3   0.8   0.9   0.7   2.3   1.7   0.0   0.0   0.4   0.7   0.7   0.5   0.5  0.84  0.99  0.44  0.00  0.00   63.30   87.68    2.01    0.00    1.03
 1995 302   118    24     2     1.9   26.2   16583   15.8   10.4   0.6   0.3   0.3   0.7   0.8   0.6   2.3   1.7   0.0   0.0   0.1   0.7   0.6   0.5   0.5  0.79  0.97  0.44  0.00  0.00   63.91   88.27    2.01    0.00    1.03
 1995 303   119    24     2     1.9   24.8   16582   14.9    9.9   0.4   0.4   0.3   0.5   0.6   0.5   2.3   1.7   0.0   0.0   0.1   0.5   0.6   0.5   0.5  0.75  0.95  0.44  0.00  0.00   64.44   88.77    2.01    0.00    1.04
 1995 304   120    24     2     1.9   23.9   16582   14.2    9.7   0.3   0.3   0.3   0.4   0.5   0.4   2.4   1.7   0.0   0.0   0.1   0.5   0.6   0.5   0.5  0.71  0.94  0.44  0.00  0.00   64.95   89.21    2.02    0.00    1.04
 1995 305   121    24     2     1.9   23.2   16581   13.7    9.5   0.3   0.3   0.3   0.3   0.4   0.3   2.4   1.7   0.0   0.0   0.1   0.5   0.6   0.5   0.5  0.69  0.92  0.44  0.00  0.00   65.48   89.66    2.02    0.00    1.04
 1995 306   122    24     2     1.9   22.8   16581   13.4    9.4   0.4   0.4   0.3   0.3   0.4   0.3   2.4   1.7   0.0   0.0   0.1   0.5   0.6   0.5   0.5  0.66  0.90  0.43  0.00  0.00   66.06   90.15    2.02    0.00    1.05
 1995 307   123    24     2     1.9   22.6   16580   13.3    9.3   0.4   0.4   0.3   0.3   0.3   0.3   2.5   1.7   0.0   0.0   0.1   0.5   0.6   0.5   0.5  0.64  0.89  0.43  0.00  0.00   66.69   90.69    2.02    0.00    1.05
 1995 308   124    24     2     1.9   21.8   16580   12.8    9.0   0.4   0.4   0.3   0.3   0.3   0.3   2.2   1.7   0.0   0.0   0.1   0.5   0.6   0.5   0.5  0.63  0.83  0.43  0.00  0.00   67.35   91.29    2.02    0.00    1.05
 1995 309   125    24     2     1.9   21.0   16579   12.3    8.7   0.4   0.4   0.3   0.3   0.3   0.3   2.0   1.7   0.0   0.0   0.1   0.5   0.6   0.5   0.5  0.62  0.77  0.43  0.00  0.00   68.03   91.95    2.02    0.00    1.05
 1995 310   126    24     2     1.9   20.2   16578   11.8    8.5   0.4   0.4   0.3   0.3   0.3   0.3   1.8   1.7   0.0   0.0   0.1   0.4   0.6   0.5   0.5  0.60  0.73  0.43  0.00  0.00   68.71   92.63    2.02    0.00    1.06
 1995 311   127    24     2     1.9   19.6   16578   11.3    8.3   0.4   0.4   0.3   0.3   0.3   0.3   1.6   1.7   0.0   0.0   0.1   0.4   0.6   0.5   0.5  0.60  0.68  0.43  0.00  0.00   69.39   93.30    2.02    0.00    1.06
 1995 312   128    24     2     1.9   18.9   16577   10.8    8.1   0.2   0.3   0.4   0.4   0.3   0.3   1.4   1.7   0.0   0.0   0.1   0.4   0.6   0.5   0.5  0.59  0.65  0.43  0.00  0.00   70.04   93.94    2.02    0.00    1.06
 1995 313   129    24     2     1.9   18.7   16576   10.1    8.5   0.2   0.3   0.3   0.3   0.3   0.3   1.2   1.7   0.0   0.0   0.2   0.5   0.7   0.5   0.5  0.58  0.62  0.43  0.00  0.00   70.82   94.16    2.02    0.00    1.06
 1995 314   130    24     2     1.9   18.5   16576    9.7    8.8   0.2   0.3   0.3   0.3   0.3   0.3   1.1   1.7   0.0   0.0   0.3   0.6   0.7   0.6   0.5  0.58  0.60  0.43  0.00  0.00   71.56   94.39    2.02    0.00    1.06
 1995 315   131    24     2     1.9   18.4   16575    9.7    8.7   0.6   0.3   0.3   0.3   0.3   0.3   1.0   1.8   0.0   0.0   0.1   0.7   0.7   0.6   0.5  0.57  0.58  0.43  0.00  0.00   72.26   94.85    2.02    0.00    1.06
 1995 316   132    24     2     1.9   17.9   16574    9.5    8.3   0.3   0.4   0.3   0.3   0.3   0.3   0.9   1.8   0.0   0.0   0.1   0.5   0.6   0.6   0.5  0.57  0.56  0.42  0.00  0.00   72.93   95.42    2.02    0.00    1.07
 1995 317   133    24     2     1.9   17.5   16574    9.3    8.2   0.4   0.4   0.3   0.3   0.3   0.3   0.8   1.8   0.0   0.0   0.1   0.5   0.6   0.5   0.5  0.56  0.55  0.42  0.00  0.00   73.59   95.96    2.02    0.00    1.07
 1995 318   134    24     2     1.9   17.2   16573    9.1    8.1   0.4   0.4   0.3   0.3   0.3   0.3   0.7   1.8   0.0   0.0   0.1   0.5   0.6   0.5   0.5  0.56  0.53  0.41  0.00  0.00   74.26   96.51    2.02    0.00    1.07
 1995 319   135    24     2     1.9   17.0   16573    9.0    8.0   0.3   0.4   0.3   0.3   0.3   0.3   0.6   1.8   0.0   0.0   0.1   0.5   0.6   0.5   0.5  0.56  0.52  0.40  0.00  0.00   74.94   97.06    2.02    0.00    1.07
 1995 320   136    24     2     1.9   16.9   16572    8.7    8.2   0.1   0.2   0.3   0.3   0.3   0.3   0.6   1.8   0.0   0.0   0.2   0.6   0.6   0.5   0.5  0.56  0.52  0.40  0.00  0.00   75.62   97.44    2.02    0.00    1.07
 1995 321   137    24     2     1.9   16.8   16571    8.4    8.5   0.2   0.2   0.3   0.3   0.3   0.3   0.5   1.8   0.0   0.0   0.3   0.7   0.7   0.6   0.5  0.56  0.51  0.39  0.00  0.00   76.29   97.68    2.02    0.00    1.08
 1995 322   138    24     2     1.9   17.0   16571    8.3    8.7   0.2   0.3   0.3   0.2   0.3   0.3   0.4   1.8   0.0   0.0   0.4   0.7   0.7   0.6   0.5  0.55  0.50  0.38  0.00  0.00   76.98   97.93    2.02    0.00    1.08
 1995 323   139    24     2     1.9   16.8   16570    8.4    8.5   0.7   0.3   0.3   0.3   0.3   0.3   0.4   1.8   0.0   0.0   0.1   0.7   0.7   0.6   0.5  0.55  0.50  0.37  0.00  0.00   77.66   98.42    2.02    0.00    1.08
 1995 324   140    24     2     1.9   16.3   16569    8.2    8.1   0.3   0.4   0.3   0.3   0.3   0.3   0.4   1.7   0.0   0.0   0.1   0.5   0.6   0.6   0.5  0.55  0.49  0.36  0.00  0.00   78.34   99.03    2.02    0.00    1.08
 1995 325   141    24     2     1.9   15.8   16569    7.9    7.9   0.4   0.4   0.3   0.3   0.3   0.3   0.3   1.6   0.0   0.0   0.1   0.5   0.6   0.6   0.5  0.55  0.48  0.35  0.00  0.00   79.01   99.60    2.02    0.00    1.08
 1995 326   142    24     2     1.9   15.4   16568    7.6    7.9   0.4   0.4   0.3   0.3   0.3   0.3   0.3   1.5   0.0   0.0   0.1   0.5   0.6   0.5   0.5  0.55  0.48  0.35  0.00  0.00   79.70  100.16    2.02    0.00    1.09
 1995 327   143    24     2     1.9   15.2   16568    7.3    7.8   0.4   0.4   0.3   0.3   0.3   0.3   0.3   1.4   0.0   0.0   0.1   0.5   0.6   0.5   0.5  0.55  0.47  0.34  0.00  0.00   80.41  100.75    2.02    0.00    1.09
 1995 328   144    24     2     1.9   14.9   16567    7.1    7.8   0.4   0.4   0.3   0.3   0.3   0.3   0.3   1.3   0.0   0.0   0.1   0.5   0.6   0.5   0.5  0.55  0.47  0.33  0.00  0.00   81.13  101.33    2.02    0.00    1.09
 1995 329   145    24     2     1.9   14.7   16566    6.9    7.7   0.4   0.4   0.3   0.3   0.3   0.3   0.3   1.3   0.0   0.0   0.1   0.5   0.6   0.5   0.5  0.55  0.46  0.33  0.00  0.00   81.84  101.92    2.02    0.00    1.09
 1995 330   146    24     2     1.9   14.4   16566    6.8    7.7   0.4   0.4   0.3   0.3   0.3   0.3   0.3   1.2   0.0   0.0   0.1   0.5   0.6   0.5   0.5  0.55  0.45  0.32  0.00  0.00   82.55  102.50    2.02    0.00    1.09
 1995 331   147    24     2     1.9   14.2   16565    6.6    7.6   0.4   0.4   0.3   0.3   0.3   0.3   0.3   1.1   0.0   0.0   0.1   0.5   0.6   0.5   0.5  0.55  0.45  0.31  0.00  0.00   83.24  103.09    2.02    0.00    1.10
 1995 332   148    24     2     1.9   14.0   16564    6.4    7.5   0.4   0.4   0.3   0.3   0.3   0.3   0.3   1.1   0.0   0.0   0.1   0.5   0.6   0.5   0.5  0.55  0.44  0.31  0.00  0.00   83.89  103.64    2.02    0.00    1.10
 1995 333   149    24     2     1.9   13.8   16564    6.3    7.5   0.4   0.4   0.3   0.3   0.3   0.3   0.3   1.0   0.0   0.0   0.1   0.5   0.6   0.5   0.5  0.55  0.44  0.30  0.00  0.00   84.50  104.20    2.02    0.00    1.10
 1995 334   150    24     2     1.9   13.5   16563    6.2    7.4   0.4   0.4   0.3   0.3   0.3   0.3   0.3   1.0   0.0   0.0   0.1   0.5   0.6   0.5   0.5  0.55  0.43  0.29  0.00  0.00   85.10  104.75    2.02    0.00    1.10
 1995 335   151    24     2     1.9   13.4   16563    6.1    7.3   0.4   0.4   0.3   0.3   0.3   0.3   0.3   0.9   0.0   0.0   0.1   0.4   0.6   0.5   0.5  0.55  0.43  0.29  0.00  0.00   85.69  105.31    2.02    0.00    1.11
 1995 336   152    24     2     1.9   13.1   16562    5.9    7.2   0.4   0.4   0.3   0.3   0.3   0.3   0.3   0.9   0.0   0.0   0.1   0.4   0.6   0.5   0.5  0.55  0.42  0.28  0.00  0.00   86.27  105.87    2.02    0.00    1.11
 1995 337   153    24     2     1.9   13.0   16562    5.9    7.1   0.4   0.4   0.3   0.3   0.3   0.3   0.3   0.8   0.0   0.0   0.1   0.4   0.5   0.5   0.5  0.55  0.41  0.28  0.00  0.00   86.84  106.44    2.02    0.00    1.11
 1995 338   154    24     2     1.9   12.8   16561    5.8    7.0   0.4   0.4   0.3   0.3   0.3   0.3   0.3   0.8   0.0   0.0   0.1   0.4   0.5   0.5   0.5  0.54  0.41  0.27  0.00  0.00   87.40  107.02    2.02    0.00    1.11
 1995 339   155    24     2     1.9   12.6   16561    5.7    6.9   0.4   0.4   0.3   0.3   0.3   0.3   0.3   0.7   0.0   0.0   0.1   0.3   0.5   0.5   0.5  0.54  0.40  0.26  0.00  0.00   87.94  107.60    2.02    0.00    1.12
 1995 340   156    24     2     1.9   12.3   16560    5.6    6.8   0.4   0.4   0.3   0.3   0.3   0.3   0.3   0.7   0.0   0.0   0.1   0.3   0.5   0.5   0.5  0.54  0.40  0.26  0.00  0.00   88.46  108.16    2.02    0.00    1.12
 1995 341   157    24     2     1.9   12.1   16560    5.5    6.7   0.4   0.4   0.3   0.3   0.3   0.3   0.3   0.7   0.0   0.0   0.1   0.3   0.5   0.5   0.5  0.54  0.39  0.25  0.00  0.00   88.96  108.73    2.02    0.00    1.12
 1995 342   158    24     2     1.9   11.9   16559    5.4    6.5   0.4   0.4   0.3   0.3   0.3   0.3   0.3   0.6   0.0   0.0   0.1   0.2   0.5   0.4   0.5  0.54  0.38  0.25  0.00  0.00   89.44  109.30    2.02    0.00    1.12
 1995 343   159    24     2     1.9   11.7   16559    5.3    6.4   0.4   0.3   0.3   0.3   0.3   0.3   0.3   0.6   0.0   0.0   0.1   0.2   0.5   0.4   0.4  0.54  0.37  0.24  0.00  0.00   89.89  109.82    2.02    0.00    1.12
 1995 344   160    24     2     1.9   11.6   16558    5.3    6.3   0.5   0.3   0.3   0.3   0.3   0.3   0.3   0.6   0.0   0.0   0.1   0.2   0.5   0.4   0.4  0.54  0.37  0.23  0.00  0.00   90.29  110.30    2.02    0.00    1.12
 1995 345   161    24     2     1.9   11.4   16558    5.2    6.2   0.6   0.3   0.3   0.3   0.3   0.3   0.3   0.5   0.0   0.0   0.1   0.2   0.5   0.4   0.4  0.53  0.36  0.23  0.00  0.00   90.66  110.76    2.02    0.00    1.13
 1995 346   162    24     2     1.9   11.3   16558    5.2    6.1   0.7   0.3   0.3   0.3   0.3   0.3   0.3   0.5   0.0   0.0   0.1   0.2   0.5   0.4   0.4  0.53  0.35  0.22  0.00  0.00   91.00  111.19    2.02    0.00    1.13
 1995 347   163    24     2     1.9   11.2   16557    5.2    6.0   0.8   0.3   0.3   0.3   0.3   0.3   0.3   0.5   0.0   0.0   0.1   0.2   0.5   0.4   0.4  0.53  0.35  0.22  0.00  0.00   91.31  111.60    2.02    0.00    1.13
 1995 348   164    24     2     1.9   11.1   16557    5.2    5.9   0.9   0.3   0.3   0.3   0.3   0.3   0.3   0.5   0.0   0.0   0.0   0.2   0.5   0.4   0.4  0.53  0.34  0.21  0.00  0.00   91.62  112.01    2.02    0.00    1.13
 1995 349   165    24     2     1.9   10.9   16557    5.2    5.7   1.0   0.3   0.3   0.3   0.3   0.3   0.3   0.4   0.0   0.0   0.0   0.2   0.4   0.3   0.4  0.53  0.33  0.21  0.00  0.00   91.92  112.42    2.02    0.00    1.13
 1995 350   166    24     2     1.9   10.8   16557    5.2    5.6   1.1   0.3   0.3   0.3   0.3   0.3   0.3   0.4   0.0   0.0   0.0   0.2   0.4   0.3   0.4  0.53  0.33  0.20  0.00  0.00   92.21  112.82    2.02    0.00    1.13
 1995 351   167    24     2     1.9   10.7   16556    5.2    5.5   1.1   0.3   0.3   0.3   0.3   0.3   0.3   0.4   0.0   0.0   0.0   0.1   0.4   0.3   0.3  0.53  0.32  0.19  0.00  0.00   92.50  113.23    2.02    0.00    1.13
 1995 352   168    24     2     1.9   10.6   16556    5.3    5.4   1.2   0.3   0.3   0.3   0.3   0.3   0.3   0.4   0.0   0.0   0.0   0.1   0.4   0.3   0.3  0.52  0.31  0.19  0.00  0.00   92.79  113.63    2.02    0.00    1.13
 1995 353   169    24     2     1.9   10.6   16556    5.3    5.2   1.2   0.3   0.3   0.3   0.3   0.3   0.3   0.4   0.0   0.0   0.0   0.1   0.4   0.3   0.3  0.52  0.30  0.18  0.00  0.00   93.07  114.04    2.02    0.00    1.14
 1995 354   170    24     2     1.9   10.5   16555    5.4    5.1   1.3   0.4   0.3   0.3   0.3   0.3   0.3   0.4   0.0   0.0   0.0   0.1   0.4   0.3   0.3  0.52  0.30  0.18  0.00  0.00   93.36  114.44    2.02    0.00    1.14
 1995 355   171    24     2     1.9   10.5   16555    5.5    5.0   1.3   0.4   0.4   0.3   0.3   0.3   0.3   0.4   0.0   0.0   0.0   0.1   0.4   0.3   0.3  0.52  0.29  0.17  0.00  0.00   93.64  114.83    2.02    0.00    1.14
 1995 356   172    24     2     1.9   10.6   16555    5.7    4.9   0.7   0.8   0.4   0.3   0.3   0.3   0.3   0.4   0.0   0.0   0.1   0.1   0.3   0.2   0.3  0.52  0.28  0.17  0.00  0.00   93.93  115.21    2.02    0.00    1.14
 1995 357   173    24     2     1.9   10.2   16554    5.1    5.1   0.0   0.2   0.4   0.5   0.3   0.3   0.3   0.4   0.0   0.0   0.2   0.2   0.3   0.2   0.3  0.52  0.28  0.16  0.00  0.00   94.42  115.55    2.02    0.00    1.14
 1995 358   174    24     2     1.9   10.4   16554    5.0    5.3   0.4   0.2   0.3   0.4   0.4   0.3   0.3   0.4   0.0   0.0   0.0   0.4   0.5   0.3   0.3  0.52  0.27  0.16  0.00  0.00   95.12  115.96    2.02    0.00    1.14
 1995 359   175    24     2     1.9   10.6   16553    4.7    5.9   0.3   0.2   0.3   0.3   0.4   0.3   0.3   0.3   0.0   0.0   0.2   0.5   0.6   0.3   0.3  0.52  0.27  0.16  0.00  0.00   95.83  116.11    2.02    0.00    1.14
 1995 360   176    24     2     1.9   10.8   16552    4.5    6.3   0.3   0.2   0.3   0.3   0.3   0.3   0.3   0.3   0.0   0.0   0.3   0.6   0.7   0.4   0.3  0.52  0.26  0.15  0.00  0.00   96.52  116.31    2.02    0.00    1.14
 1995 361   177    24     2     1.9   10.9   16552    4.9    6.0   0.6   0.4   0.3   0.3   0.3   0.3   0.3   0.3   0.0   0.0   0.1   0.5   0.6   0.4   0.3  0.52  0.25  0.15  0.00  0.00   97.18  116.99    2.02    0.00    1.14
 1995 362   178    24     2     1.9   10.7   16551    4.7    6.0   0.3   0.4   0.3   0.3   0.3   0.3   0.3   0.3   0.0   0.0   0.1   0.5   0.6   0.4   0.3  0.51  0.25  0.14  0.00  0.00   97.83  117.47    2.02    0.00    1.15
 1995 363   179    24     2     1.9   10.8   16551    4.8    6.0   0.4   0.4   0.3   0.3   0.3   0.3   0.3   0.3   0.0   0.0   0.1   0.5   0.6   0.4   0.3  0.51  0.24  0.14  0.00  0.00   98.51  118.01    2.02    0.00    1.15
 1995 364   180    24     2     1.9   10.9   16550    4.8    6.1   0.4   0.4   0.3   0.3   0.3   0.3   0.3   0.3   0.0   0.0   0.1   0.5   0.6   0.4   0.4  0.51  0.24  0.14  0.00  0.00   99.22  118.58    2.02    0.00    1.15
 1995 365   181    24     2     1.9   10.9   16549    4.8    6.1   0.4   0.4   0.3   0.3   0.3   0.3   0.3   0.3   0.0   0.0   0.1   0.5   0.6   0.4   0.4  0.51  0.24  0.13  0.00  0.00   99.92  119.16    2.02    0.00    1.16
 1996 001   182    24     2     1.9   10.8   16549    4.8    6.0   0.4   0.4   0.3   0.3   0.3   0.3   0.3   0.3   0.0   0.0   0.1   0.5   0.6   0.4   0.4  0.51  0.23  0.13  0.00  0.00  100.58  119.74    2.02    0.00    1.16
 1996 002   183    24     2     1.9   10.8   16548    4.8    6.0   0.4   0.4   0.3   0.3   0.3   0.3   0.3   0.3   0.0   0.0   0.1   0.4   0.6   0.5   0.4  0.51  0.23  0.13  0.00  0.00  101.22  120.32    2.02    0.00    1.16
 1996 003   184    24     2     1.9   10.7   16548    4.8    5.9   0.4   0.4   0.3   0.3   0.3   0.3   0.3   0.3   0.0   0.0   0.1   0.4   0.6   0.5   0.4  0.51  0.22  0.12  0.00  0.00  101.82  120.90    2.02    0.00    1.16
 1996 004   185    24     2     1.9   10.6   16547    4.8    5.8   0.4   0.4   0.3   0.3   0.3   0.3   0.3   0.3   0.0   0.0   0.1   0.3   0.6   0.5   0.4  0.51  0.22  0.12  0.00  0.00  102.39  121.49    2.02    0.00    1.16
 1996 005   186    24     2     1.9   10.5   16547    4.7    5.8   0.4   0.4   0.3   0.3   0.3   0.3   0.3   0.3   0.0   0.0   0.1   0.3   0.5   0.5   0.4  0.51  0.21  0.12  0.00  0.00  102.99  122.04    2.02    0.00    1.17
 1996 006   187    24     2     1.9   11.1   16546    5.4    5.7   0.6   0.5   0.4   0.3   0.3   0.3   0.3   0.3   0.0   0.0   0.1   0.3   0.6   0.4   0.4  0.51  0.21  0.12  0.00  0.00  103.55  122.66    2.02    0.00    1.17
 1996 007   188    24     2     1.9   11.6   16546    5.9    5.7   0.7   0.6   0.5   0.4   0.3   0.3   0.3   0.3   0.0   0.0   0.1   0.3   0.6   0.4   0.4  0.51  0.21  0.11  0.00  0.00  104.06  123.18    2.02    0.00    1.17
 1996 008   189    24     2     1.9   12.1   16545    6.4    5.7   0.9   0.8   0.6   0.4   0.4   0.3   0.3   0.3   0.0   0.0   0.1   0.3   0.6   0.4   0.4  0.51  0.20  0.11  0.00  0.00  104.52  123.70    2.02    0.00    1.17
