*SIMULATION OVERVIEW FILE

*DSSAT Cropping System Model Ver. 4.0.2.000               Aug 23, 2016; 20:22:29
                                                                                
*RUN   1        : UYSB                                                          
 MODEL          : CRGRO040 - SOYBEAN                                            
 EXPERIMENT     : UYSB0398 SN late to create DSS                                
 TREATMENT  1   : UYSB                                                          
                                                                                
 CROP           : SOYBEAN        CULTIVAR : GM 4 UY          ECOTYPE :SB0401    
 STARTING DATE  : AUG 20 1999                                                   
 PLANTING DATE  : AUG 23 1999    PLANTS/m2 :  7.0     ROW SPACING :  15.cm      
 WEATHER        : UYTA   1999                                                   
 SOIL           : UYSS0N2002     TEXTURE :       -  N20-02    SNIA CLAY RISS    
 SOIL INITIAL C : DEPTH:125cm EXTR. H2O:186.3mm  NO3: 30.1kg/ha  NH4: 23.9kg/ha 
 WATER BALANCE  : AUTOMATIC IRRIGATION - REFILL PROFILE                         
 IRRIGATION     : AUTOMATIC - PLANTING -> MATURITY [ SOIL DEPTH:30.00m 50.%]    
 NITROGEN BAL.  : SOIL-N, N-UPTAKE & DYNAMIC N-FIXATION SIMULATION              
 N-FERTILIZER   :        1 kg/ha IN     1 APPLICATIONS                          
 RESIDUE/MANURE : INITIAL :     0 kg/ha ;       0 kg/ha IN     0 APPLICATIONS   
 ENVIRONM. OPT. : DAYL=    0.00  SRAD=    0.00  TMAX=    0.00  TMIN=    0.00    
                  RAIN=    0.00  CO2 = R330.00  DEW =    0.00  WIND=    0.00    
 SIMULATION OPT : WATER   :Y  NITROGEN:Y  N-FIX:Y  PHOSPH :N  PESTS  :N         
                  PHOTO   :C  ET      :R  INFIL:S  HYDROL :R  SOM    :G         
 MANAGEMENT OPT : PLANTING:R  IRRIG   :A  FERT :D  RESIDUE:N  HARVEST:M  WTH:M  
                                                                                
*SUMMARY OF SOIL AND GENETIC INPUT PARAMETERS                                   
                                                                                
   SOIL LOWER UPPER   SAT  EXTR  INIT   ROOT   BULK     pH    NO3    NH4    ORG 
  DEPTH LIMIT LIMIT    SW    SW    SW   DIST   DENS                          C  
   cm   cm3/cm3    cm3/cm3    cm3/cm3         g/cm3         ugN/g  ugN/g     %  
------------------------------------------------------------------------------- 
  0-  5 0.331 0.542 0.585 0.211 0.394   1.00   1.11   6.50   5.00   1.50   2.74 
  5- 15 0.331 0.542 0.585 0.211 0.394   1.00   1.11   6.50   5.00   1.50   2.74 
 15- 30 0.331 0.542 0.585 0.211 0.394   1.00   1.11   6.50   5.00   1.50   2.74 
 30- 45 0.290 0.438 0.491 0.148 0.334   0.43   1.26   6.50   4.60   1.50   1.07 
 45- 60 0.292 0.431 0.480 0.138 0.375   0.39   1.29   6.27   2.45   1.50   0.90 
 60- 90 0.293 0.419 0.466 0.126 0.419   0.32   1.34   6.00   0.00   1.50   0.64 
 90-108 0.286 0.408 0.460 0.122 0.408   0.23   1.36   6.00   0.00   1.50   0.35 
108-125 0.276 0.395 0.456 0.119 0.395   0.12   1.38   6.00   0.00   1.50   0.14 
                                                                                
TOT-125  37.3  55.9  62.1  18.6  49.1  <--cm   -  kg/ha-->   30.1   23.9 166127 
SOIL ALBEDO    : 0.09      EVAPORATION LIMIT : 6.00         MIN. FACTOR  : 1.00 
RUNOFF CURVE # :10.00      DRAINAGE RATE     : 0.40         FERT. FACTOR : 1.00 
                                                                                
 SOYBEAN    CULTIVAR :UY0141-GM 4 UY            ECOTYPE :SB0401                 
 CSDVAR :13.39  PPSEN  : 0.29  EMG-FLW:21.50  FLW-FSD:18.00  FSD-PHM : 32.00    
 WTPSD  :0.190  SDPDVR : 2.20  SDFDUR :23.00  PODDUR :10.00  XFRUIT  :  1.00    
                                                                                
                                                                                
                                                                                
                                                                                
*SIMULATED CROP AND SOIL STATUS AT MAIN DEVELOPMENT STAGES

 RUN NO.     1     UYSB                    

        CROP GROWTH   BIOMASS         LEAF   CROP N     STRESS  
   DATE  AGE STAGE      kg/ha    LAI   NUM  kg/ha  %   H2O    N 
 ------  --- ---------- -----  -----  ----  ---  ---  ----  ----
 20 AUG    0 Start Sim      0   0.00   0.0    0  0.0  0.00  0.00
 23 AUG    0 Sowing         0   0.00   0.0    0  0.0  0.00  0.00
  2 SEP   10 Emergence      4   0.01   0.0    0  5.1  0.00  0.00
  2 SEP   10 End Juven.     4   0.01   0.0    0  5.1  0.00  0.00
 18 SEP   26 Unifoliate     9   0.01   1.1    0  4.9  0.00  0.00
 18 SEP   26 Flower Ind     9   0.01   1.1    0  4.9  0.00  0.00
  2 NOV   71 First Flwr   461   0.71   7.6   20  4.3  0.00  0.00
 16 NOV   85 First Pod   1575   1.56   9.8   64  4.1  0.00  0.00
  7 DEC  106 First Seed  4424   2.29  14.0  137  3.1  0.00  0.02
 18 DEC  117 End Leaf    5824   2.20  16.5  176  3.0  0.00  0.00
 22 DEC  121 End Msnode  6174   2.14  17.3  186  3.0  0.00  0.00
 25 DEC  124 End Pod     6456   2.10  17.3  195  3.0  0.00  0.00
 25 JAN  155 Phys. Mat   8148   1.55  17.3  280  3.4  0.00  0.01
  6 FEB  167 Harv. Mat   6834   0.10  17.3  250  3.7  0.00  0.06
  6 FEB  167 Harvest     6834   0.10  17.3  250  3.7  0.00  0.00


*MAIN GROWTH AND DEVELOPMENT VARIABLES

@     VARIABLE                          SIMULATED     MEASURED
      --------                          ---------     --------
      Anthesis day (dap)                       71          -99
      First pod day (dap)                      85          -99
      First seed day (dap)                    106          -99
      Physiological maturity day (dap)        155          -99
      Yield at harvest maturity (kg [dm]/    3416          -99
      Pod/Ear/Panicle weight at maturity     5097          -99
      Number at maturity (no/m2)             2258          -99
      Unit wt at maturity (g [dm]/unit)    0.1513          -99
      Number at maturity (no/unit)           2.20          -99
      Tops weight at maturity (kg [dm]/ha    6834          -99
      By-product produced (stalk) at matu    3420          -99
      Leaf area index, maximum               2.29          -99
      Harvest index at maturity             0.500          -99
      Threshing % at maturity               67.01          -99
      Grain N at maturity (kg/ha)             210          -99
      Tops N at maturity (kg/ha)              250          -99
      Stem N at maturity (kg/ha)               13          -99
      Grain N at maturity (%)                6.16          -99
      Tops weight at anthesis (kg [dm]/ha     461          -99
      Tops N at anthesis (kg/ha)               20          -99
      Leaf number per stem at maturity      17.34          -99
      Grain oil at maturity (%)             20.97          -99
      Canopy height (m)                      0.80          -99
      Harvest maturity day (dap)              167          -99


*ENVIRONMENTAL AND STRESS FACTORS

 |-----Development Phase------|-------------Environment--------------|---------Stress----------|
                              |--------Average-------|---Cumulative--|  (0=Min, 1=Max Stress)  |
                         Time  Temp  Temp Solar Photop         Evapo |----Water---|--Nitrogen--|
                         Span   Max   Min   Rad  [day]   Rain  Trans  Photo         Photo
                         days    øC    øC MJ/m2     hr     mm     mm  synth Growth  synth Growth
------------------------------------------------------------------------------------------------
 Emergence -First Flower   61  21.3  10.6  17.2  12.36  159.3  106.1  0.000  0.000  0.000  0.000
 First Flower-First Seed   35  25.9  12.6  24.4  13.70   45.8  166.5  0.000  0.000  0.000  0.014
 First Seed - Phys. Mat.   49  31.1  16.6  25.7  13.97   73.2  305.8  0.000  0.000  0.089  0.005
 Emergence  - Phys. Mat.  145  25.7  13.1  21.8  13.23  278.3  578.4  0.000  0.000  0.011  0.005

                   Soybean YIELD :     3416 kg/ha    [Dry weight] 

************************************************************************************************

*DSSAT Cropping System Model Ver. 4.0.2.000               Aug 23, 2016; 20:22:29
                                                                                
*RUN   2        : UYSB                                                          
 MODEL          : CRGRO040 - SOYBEAN                                            
 EXPERIMENT     : UYSB0398 SN late to create DSS                                
 TREATMENT  1   : UYSB                                                          
                                                                                
 CROP           : SOYBEAN        CULTIVAR : GM 4 UY          ECOTYPE :SB0401    
 STARTING DATE  : AUG 20 1999                                                   
 PLANTING DATE  : AUG 23 1999    PLANTS/m2 :  7.0     ROW SPACING :  15.cm      
 WEATHER        : UYTA   1999                                                   
 SOIL           : UYSS0N2002     TEXTURE :       -  N20-02    SNIA CLAY RISS    
 SOIL INITIAL C : DEPTH:125cm EXTR. H2O:186.3mm  NO3: 30.1kg/ha  NH4: 23.9kg/ha 
 WATER BALANCE  : AUTOMATIC IRRIGATION - REFILL PROFILE                         
 IRRIGATION     : AUTOMATIC - PLANTING -> MATURITY [ SOIL DEPTH:30.00m 50.%]    
 NITROGEN BAL.  : SOIL-N, N-UPTAKE & DYNAMIC N-FIXATION SIMULATION              
 N-FERTILIZER   :        1 kg/ha IN     1 APPLICATIONS                          
 RESIDUE/MANURE : INITIAL :     0 kg/ha ;       0 kg/ha IN     0 APPLICATIONS   
 ENVIRONM. OPT. : DAYL=    0.00  SRAD=    0.00  TMAX=    0.00  TMIN=    0.00    
                  RAIN=    0.00  CO2 = R330.00  DEW =    0.00  WIND=    0.00    
 SIMULATION OPT : WATER   :Y  NITROGEN:Y  N-FIX:Y  PHOSPH :N  PESTS  :N         
                  PHOTO   :C  ET      :R  INFIL:S  HYDROL :R  SOM    :G         
 MANAGEMENT OPT : PLANTING:R  IRRIG   :A  FERT :D  RESIDUE:N  HARVEST:M  WTH:M  
                                                                                
*SUMMARY OF SOIL AND GENETIC INPUT PARAMETERS                                   
                                                                                
   SOIL LOWER UPPER   SAT  EXTR  INIT   ROOT   BULK     pH    NO3    NH4    ORG 
  DEPTH LIMIT LIMIT    SW    SW    SW   DIST   DENS                          C  
   cm   cm3/cm3    cm3/cm3    cm3/cm3         g/cm3         ugN/g  ugN/g     %  
------------------------------------------------------------------------------- 
  0-  5 0.331 0.542 0.585 0.211 0.394   1.00   1.11   6.50   5.00   1.50   2.74 
  5- 15 0.331 0.542 0.585 0.211 0.394   1.00   1.11   6.50   5.00   1.50   2.74 
 15- 30 0.331 0.542 0.585 0.211 0.394   1.00   1.11   6.50   5.00   1.50   2.74 
 30- 45 0.290 0.438 0.491 0.148 0.334   0.43   1.26   6.50   4.60   1.50   1.07 
 45- 60 0.292 0.431 0.480 0.138 0.375   0.39   1.29   6.27   2.45   1.50   0.90 
 60- 90 0.293 0.419 0.466 0.126 0.419   0.32   1.34   6.00   0.00   1.50   0.64 
 90-108 0.286 0.408 0.460 0.122 0.408   0.23   1.36   6.00   0.00   1.50   0.35 
108-125 0.276 0.395 0.456 0.119 0.395   0.12   1.38   6.00   0.00   1.50   0.14 
                                                                                
TOT-125  37.3  55.9  62.1  18.6  49.1  <--cm   -  kg/ha-->   30.1   23.9 166127 
SOIL ALBEDO    : 0.09      EVAPORATION LIMIT : 6.00         MIN. FACTOR  : 1.00 
RUNOFF CURVE # :10.00      DRAINAGE RATE     : 0.40         FERT. FACTOR : 1.00 
                                                                                
 SOYBEAN    CULTIVAR :UY0141-GM 4 UY            ECOTYPE :SB0401                 
 CSDVAR :13.39  PPSEN  : 0.29  EMG-FLW:21.50  FLW-FSD:18.00  FSD-PHM : 32.00    
 WTPSD  :0.190  SDPDVR : 2.20  SDFDUR :23.00  PODDUR :10.00  XFRUIT  :  1.00    
                                                                                
                                                                                
                                                                                
                                                                                
*SIMULATED CROP AND SOIL STATUS AT MAIN DEVELOPMENT STAGES

 RUN NO.     2     UYSB                    

        CROP GROWTH   BIOMASS         LEAF   CROP N     STRESS  
   DATE  AGE STAGE      kg/ha    LAI   NUM  kg/ha  %   H2O    N 
 ------  --- ---------- -----  -----  ----  ---  ---  ----  ----
 19 AUG    0 Start Sim      0   0.00   0.0    0  0.0  0.00  0.00
 22 AUG    0 Sowing         0   0.00   0.0    0  0.0  0.00  0.00
  1 SEP   10 Emergence      4   0.01   0.0    0  5.1  0.00  0.00
  1 SEP   10 End Juven.     4   0.01   0.0    0  5.1  0.00  0.00
 20 SEP   29 Unifoliate     9   0.02   1.1    0  4.9  0.00  0.00
 21 SEP   30 Flower Ind    10   0.02   1.2    0  5.0  0.00  0.00
  2 NOV   72 First Flwr   380   0.56   7.4   16  4.3  0.00  0.00
 16 NOV   86 First Pod   1255   1.33   9.6   51  4.1  0.00  0.00
  9 DEC  109 First Seed  4196   2.11  14.0  129  3.1  0.00  0.01
 20 DEC  120 End Leaf    5575   2.04  16.4  167  3.0  0.00  0.00
 25 DEC  125 End Msnode  5986   1.97  17.3  179  3.0  0.00  0.00
 27 DEC  127 End Pod     6062   1.94  17.3  181  3.0  0.00  0.00
 27 JAN  158 Phys. Mat   7711   1.44  17.3  260  3.4  0.00  0.00
  8 FEB  170 Harv. Mat   6371   0.09  17.3  232  3.6  0.00  0.02
  8 FEB  170 Harvest     6371   0.09  17.3  232  3.6  0.00  0.00


*MAIN GROWTH AND DEVELOPMENT VARIABLES

@     VARIABLE                          SIMULATED     MEASURED
      --------                          ---------     --------
      Anthesis day (dap)                       72          -99
      First pod day (dap)                      86          -99
      First seed day (dap)                    109          -99
      Physiological maturity day (dap)        158          -99
      Yield at harvest maturity (kg [dm]/    3131          -99
      Pod/Ear/Panicle weight at maturity     4683          -99
      Number at maturity (no/m2)             2080          -99
      Unit wt at maturity (g [dm]/unit)    0.1506          -99
      Number at maturity (no/unit)           2.20          -99
      Tops weight at maturity (kg [dm]/ha    6371          -99
      By-product produced (stalk) at matu    3240          -99
      Leaf area index, maximum               2.11          -99
      Harvest index at maturity             0.491          -99
      Threshing % at maturity               66.87          -99
      Grain N at maturity (kg/ha)             195          -99
      Tops N at maturity (kg/ha)              232          -99
      Stem N at maturity (kg/ha)               12          -99
      Grain N at maturity (%)                6.24          -99
      Tops weight at anthesis (kg [dm]/ha     380          -99
      Tops N at anthesis (kg/ha)               16          -99
      Leaf number per stem at maturity      17.32          -99
      Grain oil at maturity (%)             20.21          -99
      Canopy height (m)                      0.79          -99
      Harvest maturity day (dap)              170          -99


*ENVIRONMENTAL AND STRESS FACTORS

 |-----Development Phase------|-------------Environment--------------|---------Stress----------|
                              |--------Average-------|---Cumulative--|  (0=Min, 1=Max Stress)  |
                         Time  Temp  Temp Solar Photop         Evapo |----Water---|--Nitrogen--|
                         Span   Max   Min   Rad  [day]   Rain  Trans  Photo         Photo
                         days    øC    øC MJ/m2     hr     mm     mm  synth Growth  synth Growth
------------------------------------------------------------------------------------------------
 Emergence -First Flower   62  20.6  10.5  16.3  12.38  376.7  138.2  0.000  0.000  0.000  0.000
 First Flower-First Seed   37  24.6  12.4  23.4  13.74   65.5  170.1  0.000  0.000  0.000  0.007
 First Seed - Phys. Mat.   49  28.5  16.7  24.1  13.96  280.9  264.8  0.000  0.000  0.090  0.000
 Emergence  - Phys. Mat.  148  24.2  13.0  20.7  13.24  723.1  573.1  0.000  0.000  0.011  0.002

                   Soybean YIELD :     3131 kg/ha    [Dry weight] 

************************************************************************************************

*DSSAT Cropping System Model Ver. 4.0.2.000               Aug 23, 2016; 20:22:29
                                                                                
*RUN   3        : UYSB                                                          
 MODEL          : CRGRO040 - SOYBEAN                                            
 EXPERIMENT     : UYSB0398 SN late to create DSS                                
 TREATMENT  1   : UYSB                                                          
                                                                                
 CROP           : SOYBEAN        CULTIVAR : GM 4 UY          ECOTYPE :SB0401    
 STARTING DATE  : AUG 20 1999                                                   
 PLANTING DATE  : AUG 23 1999    PLANTS/m2 :  7.0     ROW SPACING :  15.cm      
 WEATHER        : UYTA   1999                                                   
 SOIL           : UYSS0N2002     TEXTURE :       -  N20-02    SNIA CLAY RISS    
 SOIL INITIAL C : DEPTH:125cm EXTR. H2O:186.3mm  NO3: 30.1kg/ha  NH4: 23.9kg/ha 
 WATER BALANCE  : AUTOMATIC IRRIGATION - REFILL PROFILE                         
 IRRIGATION     : AUTOMATIC - PLANTING -> MATURITY [ SOIL DEPTH:30.00m 50.%]    
 NITROGEN BAL.  : SOIL-N, N-UPTAKE & DYNAMIC N-FIXATION SIMULATION              
 N-FERTILIZER   :        1 kg/ha IN     1 APPLICATIONS                          
 RESIDUE/MANURE : INITIAL :     0 kg/ha ;       0 kg/ha IN     0 APPLICATIONS   
 ENVIRONM. OPT. : DAYL=    0.00  SRAD=    0.00  TMAX=    0.00  TMIN=    0.00    
                  RAIN=    0.00  CO2 = R330.00  DEW =    0.00  WIND=    0.00    
 SIMULATION OPT : WATER   :Y  NITROGEN:Y  N-FIX:Y  PHOSPH :N  PESTS  :N         
                  PHOTO   :C  ET      :R  INFIL:S  HYDROL :R  SOM    :G         
 MANAGEMENT OPT : PLANTING:R  IRRIG   :A  FERT :D  RESIDUE:N  HARVEST:M  WTH:M  
                                                                                
*SUMMARY OF SOIL AND GENETIC INPUT PARAMETERS                                   
                                                                                
   SOIL LOWER UPPER   SAT  EXTR  INIT   ROOT   BULK     pH    NO3    NH4    ORG 
  DEPTH LIMIT LIMIT    SW    SW    SW   DIST   DENS                          C  
   cm   cm3/cm3    cm3/cm3    cm3/cm3         g/cm3         ugN/g  ugN/g     %  
------------------------------------------------------------------------------- 
  0-  5 0.331 0.542 0.585 0.211 0.394   1.00   1.11   6.50   5.00   1.50   2.74 
  5- 15 0.331 0.542 0.585 0.211 0.394   1.00   1.11   6.50   5.00   1.50   2.74 
 15- 30 0.331 0.542 0.585 0.211 0.394   1.00   1.11   6.50   5.00   1.50   2.74 
 30- 45 0.290 0.438 0.491 0.148 0.334   0.43   1.26   6.50   4.60   1.50   1.07 
 45- 60 0.292 0.431 0.480 0.138 0.375   0.39   1.29   6.27   2.45   1.50   0.90 
 60- 90 0.293 0.419 0.466 0.126 0.419   0.32   1.34   6.00   0.00   1.50   0.64 
 90-108 0.286 0.408 0.460 0.122 0.408   0.23   1.36   6.00   0.00   1.50   0.35 
108-125 0.276 0.395 0.456 0.119 0.395   0.12   1.38   6.00   0.00   1.50   0.14 
                                                                                
TOT-125  37.3  55.9  62.1  18.6  49.1  <--cm   -  kg/ha-->   30.1   23.9 166127 
SOIL ALBEDO    : 0.09      EVAPORATION LIMIT : 6.00         MIN. FACTOR  : 1.00 
RUNOFF CURVE # :10.00      DRAINAGE RATE     : 0.40         FERT. FACTOR : 1.00 
                                                                                
 SOYBEAN    CULTIVAR :UY0141-GM 4 UY            ECOTYPE :SB0401                 
 CSDVAR :13.39  PPSEN  : 0.29  EMG-FLW:21.50  FLW-FSD:18.00  FSD-PHM : 32.00    
 WTPSD  :0.190  SDPDVR : 2.20  SDFDUR :23.00  PODDUR :10.00  XFRUIT  :  1.00    
                                                                                
                                                                                
                                                                                
                                                                                
*SIMULATED CROP AND SOIL STATUS AT MAIN DEVELOPMENT STAGES

 RUN NO.     3     UYSB                    

        CROP GROWTH   BIOMASS         LEAF   CROP N     STRESS  
   DATE  AGE STAGE      kg/ha    LAI   NUM  kg/ha  %   H2O    N 
 ------  --- ---------- -----  -----  ----  ---  ---  ----  ----
 20 AUG    0 Start Sim      0   0.00   0.0    0  0.0  0.00  0.00
 23 AUG    0 Sowing         0   0.00   0.0    0  0.0  0.00  0.00
  1 SEP    9 Emergence      4   0.01   0.0    0  5.1  0.00  0.00
  1 SEP    9 End Juven.     4   0.01   0.0    0  5.1  0.00  0.00
 21 SEP   29 Flower Ind     9   0.01   1.0    0  4.8  0.00  0.00
 22 SEP   30 Unifoliate    10   0.02   1.2    0  4.9  0.00  0.00
 27 OCT   65 First Flwr   277   0.45   6.8   12  4.3  0.00  0.00
  9 NOV   78 First Pod    944   1.09   9.1   38  4.0  0.00  0.00
 29 NOV   98 First Seed  3081   1.69  13.0   92  3.0  0.00  0.03
 13 DEC  112 End Leaf    4327   1.62  15.4  126  2.9  0.00  0.00
 17 DEC  116 End Msnode  4667   1.58  16.2  136  2.9  0.00  0.00
 18 DEC  117 End Pod     4730   1.57  16.2  138  2.9  0.00  0.00
 20 JAN  150 Phys. Mat   6606   1.17  16.2  219  3.3  0.00  0.00
  1 FEB  162 Harv. Mat   5437   0.08  16.2  194  3.6  0.00  0.02
  1 FEB  162 Harvest     5437   0.08  16.2  194  3.6  0.00  0.00


*MAIN GROWTH AND DEVELOPMENT VARIABLES

@     VARIABLE                          SIMULATED     MEASURED
      --------                          ---------     --------
      Anthesis day (dap)                       65          -99
      First pod day (dap)                      78          -99
      First seed day (dap)                     98          -99
      Physiological maturity day (dap)        150          -99
      Yield at harvest maturity (kg [dm]/    2593          -99
      Pod/Ear/Panicle weight at maturity     4050          -99
      Number at maturity (no/m2)             1713          -99
      Unit wt at maturity (g [dm]/unit)    0.1513          -99
      Number at maturity (no/unit)           2.20          -99
      Tops weight at maturity (kg [dm]/ha    5437          -99
      By-product produced (stalk) at matu    2840          -99
      Leaf area index, maximum               1.69          -99
      Harvest index at maturity             0.477          -99
      Threshing % at maturity               64.03          -99
      Grain N at maturity (kg/ha)             157          -99
      Tops N at maturity (kg/ha)              194          -99
      Stem N at maturity (kg/ha)               11          -99
      Grain N at maturity (%)                6.04          -99
      Tops weight at anthesis (kg [dm]/ha     277          -99
      Tops N at anthesis (kg/ha)               12          -99
      Leaf number per stem at maturity      16.20          -99
      Grain oil at maturity (%)             20.36          -99
      Canopy height (m)                      0.76          -99
      Harvest maturity day (dap)              162          -99


*ENVIRONMENTAL AND STRESS FACTORS

 |-----Development Phase------|-------------Environment--------------|---------Stress----------|
                              |--------Average-------|---Cumulative--|  (0=Min, 1=Max Stress)  |
                         Time  Temp  Temp Solar Photop         Evapo |----Water---|--Nitrogen--|
                         Span   Max   Min   Rad  [day]   Rain  Trans  Photo         Photo
                         days    øC    øC MJ/m2     hr     mm     mm  synth Growth  synth Growth
------------------------------------------------------------------------------------------------
 Emergence -First Flower   56  20.5  11.8  14.4  12.25  474.0  110.8  0.000  0.000  0.000  0.000
 First Flower-First Seed   33  24.5  14.1  21.2  13.56  251.0  135.1  0.000  0.000  0.000  0.016
 First Seed - Phys. Mat.   52  26.5  14.9  24.8  13.99  107.3  266.3  0.000  0.000  0.085  0.003
 Emergence  - Phys. Mat.  141  23.6  13.5  19.8  13.20  832.3  512.2  0.000  0.000  0.013  0.005

                   Soybean YIELD :     2593 kg/ha    [Dry weight] 

************************************************************************************************

*DSSAT Cropping System Model Ver. 4.0.2.000               Aug 23, 2016; 20:22:29
                                                                                
*RUN   4        : UYSB                                                          
 MODEL          : CRGRO040 - SOYBEAN                                            
 EXPERIMENT     : UYSB0398 SN late to create DSS                                
 TREATMENT  1   : UYSB                                                          
                                                                                
 CROP           : SOYBEAN        CULTIVAR : GM 4 UY          ECOTYPE :SB0401    
 STARTING DATE  : AUG 20 1999                                                   
 PLANTING DATE  : AUG 23 1999    PLANTS/m2 :  7.0     ROW SPACING :  15.cm      
 WEATHER        : UYTA   1999                                                   
 SOIL           : UYSS0N2002     TEXTURE :       -  N20-02    SNIA CLAY RISS    
 SOIL INITIAL C : DEPTH:125cm EXTR. H2O:186.3mm  NO3: 30.1kg/ha  NH4: 23.9kg/ha 
 WATER BALANCE  : AUTOMATIC IRRIGATION - REFILL PROFILE                         
 IRRIGATION     : AUTOMATIC - PLANTING -> MATURITY [ SOIL DEPTH:30.00m 50.%]    
 NITROGEN BAL.  : SOIL-N, N-UPTAKE & DYNAMIC N-FIXATION SIMULATION              
 N-FERTILIZER   :        1 kg/ha IN     1 APPLICATIONS                          
 RESIDUE/MANURE : INITIAL :     0 kg/ha ;       0 kg/ha IN     0 APPLICATIONS   
 ENVIRONM. OPT. : DAYL=    0.00  SRAD=    0.00  TMAX=    0.00  TMIN=    0.00    
                  RAIN=    0.00  CO2 = R330.00  DEW =    0.00  WIND=    0.00    
 SIMULATION OPT : WATER   :Y  NITROGEN:Y  N-FIX:Y  PHOSPH :N  PESTS  :N         
                  PHOTO   :C  ET      :R  INFIL:S  HYDROL :R  SOM    :G         
 MANAGEMENT OPT : PLANTING:R  IRRIG   :A  FERT :D  RESIDUE:N  HARVEST:M  WTH:M  
                                                                                
*SUMMARY OF SOIL AND GENETIC INPUT PARAMETERS                                   
                                                                                
   SOIL LOWER UPPER   SAT  EXTR  INIT   ROOT   BULK     pH    NO3    NH4    ORG 
  DEPTH LIMIT LIMIT    SW    SW    SW   DIST   DENS                          C  
   cm   cm3/cm3    cm3/cm3    cm3/cm3         g/cm3         ugN/g  ugN/g     %  
------------------------------------------------------------------------------- 
  0-  5 0.331 0.542 0.585 0.211 0.394   1.00   1.11   6.50   5.00   1.50   2.74 
  5- 15 0.331 0.542 0.585 0.211 0.394   1.00   1.11   6.50   5.00   1.50   2.74 
 15- 30 0.331 0.542 0.585 0.211 0.394   1.00   1.11   6.50   5.00   1.50   2.74 
 30- 45 0.290 0.438 0.491 0.148 0.334   0.43   1.26   6.50   4.60   1.50   1.07 
 45- 60 0.292 0.431 0.480 0.138 0.375   0.39   1.29   6.27   2.45   1.50   0.90 
 60- 90 0.293 0.419 0.466 0.126 0.419   0.32   1.34   6.00   0.00   1.50   0.64 
 90-108 0.286 0.408 0.460 0.122 0.408   0.23   1.36   6.00   0.00   1.50   0.35 
108-125 0.276 0.395 0.456 0.119 0.395   0.12   1.38   6.00   0.00   1.50   0.14 
                                                                                
TOT-125  37.3  55.9  62.1  18.6  49.1  <--cm   -  kg/ha-->   30.1   23.9 166127 
SOIL ALBEDO    : 0.09      EVAPORATION LIMIT : 6.00         MIN. FACTOR  : 1.00 
RUNOFF CURVE # :10.00      DRAINAGE RATE     : 0.40         FERT. FACTOR : 1.00 
                                                                                
 SOYBEAN    CULTIVAR :UY0141-GM 4 UY            ECOTYPE :SB0401                 
 CSDVAR :13.39  PPSEN  : 0.29  EMG-FLW:21.50  FLW-FSD:18.00  FSD-PHM : 32.00    
 WTPSD  :0.190  SDPDVR : 2.20  SDFDUR :23.00  PODDUR :10.00  XFRUIT  :  1.00    
                                                                                
                                                                                
                                                                                
                                                                                
*SIMULATED CROP AND SOIL STATUS AT MAIN DEVELOPMENT STAGES

 RUN NO.     4     UYSB                    

        CROP GROWTH   BIOMASS         LEAF   CROP N     STRESS  
   DATE  AGE STAGE      kg/ha    LAI   NUM  kg/ha  %   H2O    N 
 ------  --- ---------- -----  -----  ----  ---  ---  ----  ----
 20 AUG    0 Start Sim      0   0.00   0.0    0  0.0  0.00  0.00
 23 AUG    0 Sowing         0   0.00   0.0    0  0.0  0.00  0.00
 30 AUG    7 Emergence      4   0.01   0.0    0  5.1  0.00  0.00
 30 AUG    7 End Juven.     4   0.01   0.0    0  5.1  0.00  0.00
 22 SEP   30 Unifoliate    10   0.01   1.0    0  4.9  0.00  0.00
 25 SEP   33 Flower Ind    13   0.02   1.4    1  5.0  0.00  0.00
 26 OCT   64 First Flwr   278   0.44   7.0   11  4.0  0.00  0.00
  9 NOV   78 First Pod    873   0.97   9.3   36  4.1  0.00  0.00
 27 NOV   96 First Seed  2578   1.48  13.3   76  3.0  0.00  0.03
  9 DEC  108 End Leaf    3434   1.39  15.6  103  3.0  0.00  0.00
 12 DEC  111 End Msnode  3630   1.37  16.2  110  3.0  0.00  0.00
 15 DEC  114 End Pod     3812   1.34  16.2  118  3.1  0.00  0.00
 17 JAN  147 Phys. Mat   5387   0.99  16.2  202  3.7  0.00  0.01
 29 JAN  159 Harv. Mat   4703   0.07  16.2  189  4.0  0.00  0.04
 29 JAN  159 Harvest     4703   0.07  16.2  189  4.0  0.00  0.00


*MAIN GROWTH AND DEVELOPMENT VARIABLES

@     VARIABLE                          SIMULATED     MEASURED
      --------                          ---------     --------
      Anthesis day (dap)                       64          -99
      First pod day (dap)                      78          -99
      First seed day (dap)                     96          -99
      Physiological maturity day (dap)        147          -99
      Yield at harvest maturity (kg [dm]/    2706          -99
      Pod/Ear/Panicle weight at maturity     3838          -99
      Number at maturity (no/m2)             1531          -99
      Unit wt at maturity (g [dm]/unit)    0.1768          -99
      Number at maturity (no/unit)           2.20          -99
      Tops weight at maturity (kg [dm]/ha    4703          -99
      By-product produced (stalk) at matu    2000          -99
      Leaf area index, maximum               1.48          -99
      Harvest index at maturity             0.575          -99
      Threshing % at maturity               70.51          -99
      Grain N at maturity (kg/ha)             167          -99
      Tops N at maturity (kg/ha)              189          -99
      Stem N at maturity (kg/ha)                6          -99
      Grain N at maturity (%)                6.18          -99
      Tops weight at anthesis (kg [dm]/ha     278          -99
      Tops N at anthesis (kg/ha)               11          -99
      Leaf number per stem at maturity      16.20          -99
      Grain oil at maturity (%)             20.42          -99
      Canopy height (m)                      0.80          -99
      Harvest maturity day (dap)              159          -99


*ENVIRONMENTAL AND STRESS FACTORS

 |-----Development Phase------|-------------Environment--------------|---------Stress----------|
                              |--------Average-------|---Cumulative--|  (0=Min, 1=Max Stress)  |
                         Time  Temp  Temp Solar Photop         Evapo |----Water---|--Nitrogen--|
                         Span   Max   Min   Rad  [day]   Rain  Trans  Photo         Photo
                         days    øC    øC MJ/m2     hr     mm     mm  synth Growth  synth Growth
------------------------------------------------------------------------------------------------
 Emergence -First Flower   57  20.9  10.9  16.0  12.20  546.2  124.3  0.000  0.000  0.000  0.001
 First Flower-First Seed   32  24.7  14.8  20.0  13.52  339.2  128.6  0.000  0.000  0.000  0.019
 First Seed - Phys. Mat.   51  26.9  16.9  21.6  14.00  317.1  223.7  0.000  0.000  0.132  0.005
 Emergence  - Phys. Mat.  140  24.0  14.0  18.9  13.16   1203    477  0.000  0.000  0.030  0.007

                   Soybean YIELD :     2706 kg/ha    [Dry weight] 

************************************************************************************************

*DSSAT Cropping System Model Ver. 4.0.2.000               Aug 23, 2016; 20:22:29
                                                                                
*RUN   5        : UYSB                                                          
 MODEL          : CRGRO040 - SOYBEAN                                            
 EXPERIMENT     : UYSB0398 SN late to create DSS                                
 TREATMENT  1   : UYSB                                                          
                                                                                
 CROP           : SOYBEAN        CULTIVAR : GM 4 UY          ECOTYPE :SB0401    
 STARTING DATE  : AUG 20 1999                                                   
 PLANTING DATE  : AUG 23 1999    PLANTS/m2 :  7.0     ROW SPACING :  15.cm      
 WEATHER        : UYTA   1999                                                   
 SOIL           : UYSS0N2002     TEXTURE :       -  N20-02    SNIA CLAY RISS    
 SOIL INITIAL C : DEPTH:125cm EXTR. H2O:186.3mm  NO3: 30.1kg/ha  NH4: 23.9kg/ha 
 WATER BALANCE  : AUTOMATIC IRRIGATION - REFILL PROFILE                         
 IRRIGATION     : AUTOMATIC - PLANTING -> MATURITY [ SOIL DEPTH:30.00m 50.%]    
 NITROGEN BAL.  : SOIL-N, N-UPTAKE & DYNAMIC N-FIXATION SIMULATION              
 N-FERTILIZER   :        1 kg/ha IN     1 APPLICATIONS                          
 RESIDUE/MANURE : INITIAL :     0 kg/ha ;       0 kg/ha IN     0 APPLICATIONS   
 ENVIRONM. OPT. : DAYL=    0.00  SRAD=    0.00  TMAX=    0.00  TMIN=    0.00    
                  RAIN=    0.00  CO2 = R330.00  DEW =    0.00  WIND=    0.00    
 SIMULATION OPT : WATER   :Y  NITROGEN:Y  N-FIX:Y  PHOSPH :N  PESTS  :N         
                  PHOTO   :C  ET      :R  INFIL:S  HYDROL :R  SOM    :G         
 MANAGEMENT OPT : PLANTING:R  IRRIG   :A  FERT :D  RESIDUE:N  HARVEST:M  WTH:M  
                                                                                
*SUMMARY OF SOIL AND GENETIC INPUT PARAMETERS                                   
                                                                                
   SOIL LOWER UPPER   SAT  EXTR  INIT   ROOT   BULK     pH    NO3    NH4    ORG 
  DEPTH LIMIT LIMIT    SW    SW    SW   DIST   DENS                          C  
   cm   cm3/cm3    cm3/cm3    cm3/cm3         g/cm3         ugN/g  ugN/g     %  
------------------------------------------------------------------------------- 
  0-  5 0.331 0.542 0.585 0.211 0.394   1.00   1.11   6.50   5.00   1.50   2.74 
  5- 15 0.331 0.542 0.585 0.211 0.394   1.00   1.11   6.50   5.00   1.50   2.74 
 15- 30 0.331 0.542 0.585 0.211 0.394   1.00   1.11   6.50   5.00   1.50   2.74 
 30- 45 0.290 0.438 0.491 0.148 0.334   0.43   1.26   6.50   4.60   1.50   1.07 
 45- 60 0.292 0.431 0.480 0.138 0.375   0.39   1.29   6.27   2.45   1.50   0.90 
 60- 90 0.293 0.419 0.466 0.126 0.419   0.32   1.34   6.00   0.00   1.50   0.64 
 90-108 0.286 0.408 0.460 0.122 0.408   0.23   1.36   6.00   0.00   1.50   0.35 
108-125 0.276 0.395 0.456 0.119 0.395   0.12   1.38   6.00   0.00   1.50   0.14 
                                                                                
TOT-125  37.3  55.9  62.1  18.6  49.1  <--cm   -  kg/ha-->   30.1   23.9 166127 
SOIL ALBEDO    : 0.09      EVAPORATION LIMIT : 6.00         MIN. FACTOR  : 1.00 
RUNOFF CURVE # :10.00      DRAINAGE RATE     : 0.40         FERT. FACTOR : 1.00 
                                                                                
 SOYBEAN    CULTIVAR :UY0141-GM 4 UY            ECOTYPE :SB0401                 
 CSDVAR :13.39  PPSEN  : 0.29  EMG-FLW:21.50  FLW-FSD:18.00  FSD-PHM : 32.00    
 WTPSD  :0.190  SDPDVR : 2.20  SDFDUR :23.00  PODDUR :10.00  XFRUIT  :  1.00    
                                                                                
                                                                                
                                                                                
                                                                                
*SIMULATED CROP AND SOIL STATUS AT MAIN DEVELOPMENT STAGES

 RUN NO.     5     UYSB                    

        CROP GROWTH   BIOMASS         LEAF   CROP N     STRESS  
   DATE  AGE STAGE      kg/ha    LAI   NUM  kg/ha  %   H2O    N 
 ------  --- ---------- -----  -----  ----  ---  ---  ----  ----
 20 AUG    0 Start Sim      0   0.00   0.0    0  0.0  0.00  0.00
 23 AUG    0 Sowing         0   0.00   0.0    0  0.0  0.00  0.00
  6 SEP   14 Emergence      4   0.01   0.0    0  5.2  0.00  0.00
  6 SEP   14 End Juven.     4   0.01   0.0    0  5.2  0.00  0.00
 26 SEP   34 Unifoliate     9   0.01   1.1    0  4.9  0.00  0.00
 26 SEP   34 Flower Ind     9   0.01   1.1    0  4.9  0.00  0.00
  7 NOV   76 First Flwr   563   0.69   7.5   24  4.3  0.00  0.00
 20 NOV   89 First Pod   1535   1.63  10.0   62  4.0  0.00  0.00
 11 DEC  110 First Seed  4394   2.27  14.3  131  3.0  0.00  0.06
 24 DEC  123 End Leaf    5711   2.16  16.7  169  3.0  0.00  0.00
 28 DEC  127 End Msnode  5949   2.11  17.5  178  3.0  0.00  0.00
 30 DEC  129 End Pod     6140   2.08  17.5  184  3.0  0.00  0.00
 29 JAN  159 Phys. Mat   7929   1.54  17.5  271  3.4  0.00  0.01
 10 FEB  171 Harv. Mat   6649   0.10  17.5  245  3.7  0.00  0.02
 10 FEB  171 Harvest     6649   0.10  17.5  245  3.7  0.00  0.00


*MAIN GROWTH AND DEVELOPMENT VARIABLES

@     VARIABLE                          SIMULATED     MEASURED
      --------                          ---------     --------
      Anthesis day (dap)                       76          -99
      First pod day (dap)                      89          -99
      First seed day (dap)                    110          -99
      Physiological maturity day (dap)        159          -99
      Yield at harvest maturity (kg [dm]/    3348          -99
      Pod/Ear/Panicle weight at maturity     5057          -99
      Number at maturity (no/m2)             2120          -99
      Unit wt at maturity (g [dm]/unit)    0.1579          -99
      Number at maturity (no/unit)           2.20          -99
      Tops weight at maturity (kg [dm]/ha    6649          -99
      By-product produced (stalk) at matu    3300          -99
      Leaf area index, maximum               2.27          -99
      Harvest index at maturity             0.504          -99
      Threshing % at maturity               66.20          -99
      Grain N at maturity (kg/ha)             207          -99
      Tops N at maturity (kg/ha)              245          -99
      Stem N at maturity (kg/ha)               12          -99
      Grain N at maturity (%)                6.18          -99
      Tops weight at anthesis (kg [dm]/ha     563          -99
      Tops N at anthesis (kg/ha)               24          -99
      Leaf number per stem at maturity      17.51          -99
      Grain oil at maturity (%)             20.59          -99
      Canopy height (m)                      0.81          -99
      Harvest maturity day (dap)              171          -99


*ENVIRONMENTAL AND STRESS FACTORS

 |-----Development Phase------|-------------Environment--------------|---------Stress----------|
                              |--------Average-------|---Cumulative--|  (0=Min, 1=Max Stress)  |
                         Time  Temp  Temp Solar Photop         Evapo |----Water---|--Nitrogen--|
                         Span   Max   Min   Rad  [day]   Rain  Trans  Photo         Photo
                         days    øC    øC MJ/m2     hr     mm     mm  synth Growth  synth Growth
------------------------------------------------------------------------------------------------
 Emergence -First Flower   62  22.0   9.8  19.3  12.50  187.0  126.6  0.000  0.000  0.000  0.000
 First Flower-First Seed   34  26.2  14.1  22.8  13.79  221.6  164.9  0.000  0.000  0.000  0.036
 First Seed - Phys. Mat.   49  27.8  15.6  24.2  13.94  122.9  268.6  0.000  0.000  0.074  0.004
 Emergence  - Phys. Mat.  145  24.9  12.8  21.8  13.29  531.5  560.1  0.000  0.000  0.006  0.010

                   Soybean YIELD :     3348 kg/ha    [Dry weight] 

************************************************************************************************

*DSSAT Cropping System Model Ver. 4.0.2.000               Aug 23, 2016; 20:22:29
                                                                                
*RUN   6        : UYSB                                                          
 MODEL          : CRGRO040 - SOYBEAN                                            
 EXPERIMENT     : UYSB0398 SN late to create DSS                                
 TREATMENT  1   : UYSB                                                          
                                                                                
 CROP           : SOYBEAN        CULTIVAR : GM 4 UY          ECOTYPE :SB0401    
 STARTING DATE  : AUG 20 1999                                                   
 PLANTING DATE  : AUG 23 1999    PLANTS/m2 :  7.0     ROW SPACING :  15.cm      
 WEATHER        : UYTA   1999                                                   
 SOIL           : UYSS0N2002     TEXTURE :       -  N20-02    SNIA CLAY RISS    
 SOIL INITIAL C : DEPTH:125cm EXTR. H2O:186.3mm  NO3: 30.1kg/ha  NH4: 23.9kg/ha 
 WATER BALANCE  : AUTOMATIC IRRIGATION - REFILL PROFILE                         
 IRRIGATION     : AUTOMATIC - PLANTING -> MATURITY [ SOIL DEPTH:30.00m 50.%]    
 NITROGEN BAL.  : SOIL-N, N-UPTAKE & DYNAMIC N-FIXATION SIMULATION              
 N-FERTILIZER   :        1 kg/ha IN     1 APPLICATIONS                          
 RESIDUE/MANURE : INITIAL :     0 kg/ha ;       0 kg/ha IN     0 APPLICATIONS   
 ENVIRONM. OPT. : DAYL=    0.00  SRAD=    0.00  TMAX=    0.00  TMIN=    0.00    
                  RAIN=    0.00  CO2 = R330.00  DEW =    0.00  WIND=    0.00    
 SIMULATION OPT : WATER   :Y  NITROGEN:Y  N-FIX:Y  PHOSPH :N  PESTS  :N         
                  PHOTO   :C  ET      :R  INFIL:S  HYDROL :R  SOM    :G         
 MANAGEMENT OPT : PLANTING:R  IRRIG   :A  FERT :D  RESIDUE:N  HARVEST:M  WTH:M  
                                                                                
*SUMMARY OF SOIL AND GENETIC INPUT PARAMETERS                                   
                                                                                
   SOIL LOWER UPPER   SAT  EXTR  INIT   ROOT   BULK     pH    NO3    NH4    ORG 
  DEPTH LIMIT LIMIT    SW    SW    SW   DIST   DENS                          C  
   cm   cm3/cm3    cm3/cm3    cm3/cm3         g/cm3         ugN/g  ugN/g     %  
------------------------------------------------------------------------------- 
  0-  5 0.331 0.542 0.585 0.211 0.394   1.00   1.11   6.50   5.00   1.50   2.74 
  5- 15 0.331 0.542 0.585 0.211 0.394   1.00   1.11   6.50   5.00   1.50   2.74 
 15- 30 0.331 0.542 0.585 0.211 0.394   1.00   1.11   6.50   5.00   1.50   2.74 
 30- 45 0.290 0.438 0.491 0.148 0.334   0.43   1.26   6.50   4.60   1.50   1.07 
 45- 60 0.292 0.431 0.480 0.138 0.375   0.39   1.29   6.27   2.45   1.50   0.90 
 60- 90 0.293 0.419 0.466 0.126 0.419   0.32   1.34   6.00   0.00   1.50   0.64 
 90-108 0.286 0.408 0.460 0.122 0.408   0.23   1.36   6.00   0.00   1.50   0.35 
108-125 0.276 0.395 0.456 0.119 0.395   0.12   1.38   6.00   0.00   1.50   0.14 
                                                                                
TOT-125  37.3  55.9  62.1  18.6  49.1  <--cm   -  kg/ha-->   30.1   23.9 166127 
SOIL ALBEDO    : 0.09      EVAPORATION LIMIT : 6.00         MIN. FACTOR  : 1.00 
RUNOFF CURVE # :10.00      DRAINAGE RATE     : 0.40         FERT. FACTOR : 1.00 
                                                                                
 SOYBEAN    CULTIVAR :UY0141-GM 4 UY            ECOTYPE :SB0401                 
 CSDVAR :13.39  PPSEN  : 0.29  EMG-FLW:21.50  FLW-FSD:18.00  FSD-PHM : 32.00    
 WTPSD  :0.190  SDPDVR : 2.20  SDFDUR :23.00  PODDUR :10.00  XFRUIT  :  1.00    
                                                                                
                                                                                
                                                                                
                                                                                
*SIMULATED CROP AND SOIL STATUS AT MAIN DEVELOPMENT STAGES

 RUN NO.     6     UYSB                    

        CROP GROWTH   BIOMASS         LEAF   CROP N     STRESS  
   DATE  AGE STAGE      kg/ha    LAI   NUM  kg/ha  %   H2O    N 
 ------  --- ---------- -----  -----  ----  ---  ---  ----  ----
 19 AUG    0 Start Sim      0   0.00   0.0    0  0.0  0.00  0.00
 22 AUG    0 Sowing         0   0.00   0.0    0  0.0  0.00  0.00
  2 SEP   11 Emergence      4   0.01   0.0    0  5.1  0.00  0.00
  2 SEP   11 End Juven.     4   0.01   0.0    0  5.1  0.00  0.00
 18 SEP   27 Flower Ind     9   0.01   1.0    0  4.8  0.00  0.00
 19 SEP   28 Unifoliate     9   0.02   1.1    0  4.9  0.00  0.00
 10 NOV   80 First Flwr   648   0.86   8.0   28  4.3  0.00  0.00
 24 NOV   94 First Pod   1856   1.87  10.4   75  4.0  0.00  0.00
 14 DEC  114 First Seed  4861   2.70  14.9  150  3.1  0.00  0.04
 27 DEC  127 End Leaf    6677   2.57  17.5  203  3.0  0.00  0.00
 30 DEC  130 End Msnode  6863   2.51  18.1  208  3.0  0.00  0.00
  2 JAN  133 End Pod     7124   2.45  18.1  217  3.0  0.00  0.00
  1 FEB  163 Phys. Mat   9076   1.81  18.1  317  3.5  0.00  0.00
 13 FEB  175 Harv. Mat   7683   0.12  18.1  287  3.7  0.00  0.05
 13 FEB  175 Harvest     7683   0.12  18.1  287  3.7  0.00  0.00


*MAIN GROWTH AND DEVELOPMENT VARIABLES

@     VARIABLE                          SIMULATED     MEASURED
      --------                          ---------     --------
      Anthesis day (dap)                       80          -99
      First pod day (dap)                      94          -99
      First seed day (dap)                    114          -99
      Physiological maturity day (dap)        163          -99
      Yield at harvest maturity (kg [dm]/    3937          -99
      Pod/Ear/Panicle weight at maturity     5897          -99
      Number at maturity (no/m2)             2629          -99
      Unit wt at maturity (g [dm]/unit)    0.1497          -99
      Number at maturity (no/unit)           2.20          -99
      Tops weight at maturity (kg [dm]/ha    7683          -99
      By-product produced (stalk) at matu    3750          -99
      Leaf area index, maximum               2.70          -99
      Harvest index at maturity             0.512          -99
      Threshing % at maturity               66.76          -99
      Grain N at maturity (kg/ha)             243          -99
      Tops N at maturity (kg/ha)              287          -99
      Stem N at maturity (kg/ha)               13          -99
      Grain N at maturity (%)                6.17          -99
      Tops weight at anthesis (kg [dm]/ha     648          -99
      Tops N at anthesis (kg/ha)               28          -99
      Leaf number per stem at maturity      18.13          -99
      Grain oil at maturity (%)             20.42          -99
      Canopy height (m)                      0.81          -99
      Harvest maturity day (dap)              175          -99


*ENVIRONMENTAL AND STRESS FACTORS

 |-----Development Phase------|-------------Environment--------------|---------Stress----------|
                              |--------Average-------|---Cumulative--|  (0=Min, 1=Max Stress)  |
                         Time  Temp  Temp Solar Photop         Evapo |----Water---|--Nitrogen--|
                         Span   Max   Min   Rad  [day]   Rain  Trans  Photo         Photo
                         days    øC    øC MJ/m2     hr     mm     mm  synth Growth  synth Growth
------------------------------------------------------------------------------------------------
 Emergence -First Flower   69  21.6   9.4  18.1  12.51  269.8  134.7  0.000  0.000  0.000  0.000
 First Flower-First Seed   34  25.9  14.3  23.2  13.86   53.1  172.2  0.000  0.000  0.000  0.023
 First Seed - Phys. Mat.   49  30.1  15.8  26.4  13.91  148.4  301.1  0.000  0.000  0.108  0.002
 Emergence  - Phys. Mat.  152  25.3  12.6  21.9  13.26  471.3  607.9  0.000  0.000  0.015  0.006

                   Soybean YIELD :     3937 kg/ha    [Dry weight] 

************************************************************************************************

*DSSAT Cropping System Model Ver. 4.0.2.000               Aug 23, 2016; 20:22:29
                                                                                
*RUN   7        : UYSB                                                          
 MODEL          : CRGRO040 - SOYBEAN                                            
 EXPERIMENT     : UYSB0398 SN late to create DSS                                
 TREATMENT  1   : UYSB                                                          
                                                                                
 CROP           : SOYBEAN        CULTIVAR : GM 4 UY          ECOTYPE :SB0401    
 STARTING DATE  : AUG 20 1999                                                   
 PLANTING DATE  : AUG 23 1999    PLANTS/m2 :  7.0     ROW SPACING :  15.cm      
 WEATHER        : UYTA   1999                                                   
 SOIL           : UYSS0N2002     TEXTURE :       -  N20-02    SNIA CLAY RISS    
 SOIL INITIAL C : DEPTH:125cm EXTR. H2O:186.3mm  NO3: 30.1kg/ha  NH4: 23.9kg/ha 
 WATER BALANCE  : AUTOMATIC IRRIGATION - REFILL PROFILE                         
 IRRIGATION     : AUTOMATIC - PLANTING -> MATURITY [ SOIL DEPTH:30.00m 50.%]    
 NITROGEN BAL.  : SOIL-N, N-UPTAKE & DYNAMIC N-FIXATION SIMULATION              
 N-FERTILIZER   :        1 kg/ha IN     1 APPLICATIONS                          
 RESIDUE/MANURE : INITIAL :     0 kg/ha ;       0 kg/ha IN     0 APPLICATIONS   
 ENVIRONM. OPT. : DAYL=    0.00  SRAD=    0.00  TMAX=    0.00  TMIN=    0.00    
                  RAIN=    0.00  CO2 = R330.00  DEW =    0.00  WIND=    0.00    
 SIMULATION OPT : WATER   :Y  NITROGEN:Y  N-FIX:Y  PHOSPH :N  PESTS  :N         
                  PHOTO   :C  ET      :R  INFIL:S  HYDROL :R  SOM    :G         
 MANAGEMENT OPT : PLANTING:R  IRRIG   :A  FERT :D  RESIDUE:N  HARVEST:M  WTH:M  
                                                                                
*SUMMARY OF SOIL AND GENETIC INPUT PARAMETERS                                   
                                                                                
   SOIL LOWER UPPER   SAT  EXTR  INIT   ROOT   BULK     pH    NO3    NH4    ORG 
  DEPTH LIMIT LIMIT    SW    SW    SW   DIST   DENS                          C  
   cm   cm3/cm3    cm3/cm3    cm3/cm3         g/cm3         ugN/g  ugN/g     %  
------------------------------------------------------------------------------- 
  0-  5 0.331 0.542 0.585 0.211 0.394   1.00   1.11   6.50   5.00   1.50   2.74 
  5- 15 0.331 0.542 0.585 0.211 0.394   1.00   1.11   6.50   5.00   1.50   2.74 
 15- 30 0.331 0.542 0.585 0.211 0.394   1.00   1.11   6.50   5.00   1.50   2.74 
 30- 45 0.290 0.438 0.491 0.148 0.334   0.43   1.26   6.50   4.60   1.50   1.07 
 45- 60 0.292 0.431 0.480 0.138 0.375   0.39   1.29   6.27   2.45   1.50   0.90 
 60- 90 0.293 0.419 0.466 0.126 0.419   0.32   1.34   6.00   0.00   1.50   0.64 
 90-108 0.286 0.408 0.460 0.122 0.408   0.23   1.36   6.00   0.00   1.50   0.35 
108-125 0.276 0.395 0.456 0.119 0.395   0.12   1.38   6.00   0.00   1.50   0.14 
                                                                                
TOT-125  37.3  55.9  62.1  18.6  49.1  <--cm   -  kg/ha-->   30.1   23.9 166127 
SOIL ALBEDO    : 0.09      EVAPORATION LIMIT : 6.00         MIN. FACTOR  : 1.00 
RUNOFF CURVE # :10.00      DRAINAGE RATE     : 0.40         FERT. FACTOR : 1.00 
                                                                                
 SOYBEAN    CULTIVAR :UY0141-GM 4 UY            ECOTYPE :SB0401                 
 CSDVAR :13.39  PPSEN  : 0.29  EMG-FLW:21.50  FLW-FSD:18.00  FSD-PHM : 32.00    
 WTPSD  :0.190  SDPDVR : 2.20  SDFDUR :23.00  PODDUR :10.00  XFRUIT  :  1.00    
                                                                                
                                                                                
                                                                                
                                                                                
*SIMULATED CROP AND SOIL STATUS AT MAIN DEVELOPMENT STAGES

 RUN NO.     7     UYSB                    

        CROP GROWTH   BIOMASS         LEAF   CROP N     STRESS  
   DATE  AGE STAGE      kg/ha    LAI   NUM  kg/ha  %   H2O    N 
 ------  --- ---------- -----  -----  ----  ---  ---  ----  ----
 20 AUG    0 Start Sim      0   0.00   0.0    0  0.0  0.00  0.00
 23 AUG    0 Sowing         0   0.00   0.0    0  0.0  0.00  0.00
  6 SEP   14 Emergence      4   0.01   0.0    0  5.1  0.00  0.00
  6 SEP   14 End Juven.     4   0.01   0.0    0  5.1  0.00  0.00
 27 SEP   35 Unifoliate    10   0.01   1.1    0  4.9  0.00  0.00
 27 SEP   35 Flower Ind    10   0.01   1.1    0  4.9  0.00  0.00
 15 NOV   84 First Flwr   698   0.83   7.9   30  4.3  0.00  0.00
 26 NOV   95 First Pod   1857   1.92  10.4   71  3.8  0.00  0.00
 19 DEC  118 First Seed  5295   2.81  15.0  166  3.1  0.00  0.00
 30 DEC  129 End Leaf    6789   2.70  17.5  206  3.0  0.00  0.00
  3 JAN  133 End Msnode  7066   2.62  18.4  214  3.0  0.00  0.00
  5 JAN  135 End Pod     7230   2.58  18.4  219  3.0  0.00  0.00
  3 FEB  164 Phys. Mat   9141   1.91  18.4  314  3.4  0.00  0.00
 15 FEB  176 Harv. Mat   7576   0.13  18.4  282  3.7  0.00  0.03
 15 FEB  176 Harvest     7576   0.13  18.4  282  3.7  0.00  0.00


*MAIN GROWTH AND DEVELOPMENT VARIABLES

@     VARIABLE                          SIMULATED     MEASURED
      --------                          ---------     --------
      Anthesis day (dap)                       84          -99
      First pod day (dap)                      95          -99
      First seed day (dap)                    118          -99
      Physiological maturity day (dap)        164          -99
      Yield at harvest maturity (kg [dm]/    3852          -99
      Pod/Ear/Panicle weight at maturity     5620          -99
      Number at maturity (no/m2)             2466          -99
      Unit wt at maturity (g [dm]/unit)    0.1562          -99
      Number at maturity (no/unit)           2.20          -99
      Tops weight at maturity (kg [dm]/ha    7576          -99
      By-product produced (stalk) at matu    3720          -99
      Leaf area index, maximum               2.81          -99
      Harvest index at maturity             0.508          -99
      Threshing % at maturity               68.54          -99
      Grain N at maturity (kg/ha)             242          -99
      Tops N at maturity (kg/ha)              282          -99
      Stem N at maturity (kg/ha)               14          -99
      Grain N at maturity (%)                6.28          -99
      Tops weight at anthesis (kg [dm]/ha     698          -99
      Tops N at anthesis (kg/ha)               30          -99
      Leaf number per stem at maturity      18.40          -99
      Grain oil at maturity (%)             20.47          -99
      Canopy height (m)                      0.84          -99
      Harvest maturity day (dap)              176          -99


*ENVIRONMENTAL AND STRESS FACTORS

 |-----Development Phase------|-------------Environment--------------|---------Stress----------|
                              |--------Average-------|---Cumulative--|  (0=Min, 1=Max Stress)  |
                         Time  Temp  Temp Solar Photop         Evapo |----Water---|--Nitrogen--|
                         Span   Max   Min   Rad  [day]   Rain  Trans  Photo         Photo
                         days    øC    øC MJ/m2     hr     mm     mm  synth Growth  synth Growth
------------------------------------------------------------------------------------------------
 Emergence -First Flower   70  20.3   9.9  18.9  12.62  354.9  150.9  0.000  0.000  0.000  0.000
 First Flower-First Seed   34  27.7  14.3  25.1  13.91   73.4  179.2  0.000  0.000  0.000  0.000
 First Seed - Phys. Mat.   46  30.5  17.1  25.0  13.87   95.1  271.1  0.000  0.000  0.106  0.000
 Emergence  - Phys. Mat.  150  25.1  13.1  22.2  13.30  523.4  601.3  0.000  0.000  0.013  0.000

                   Soybean YIELD :     3852 kg/ha    [Dry weight] 

************************************************************************************************

*DSSAT Cropping System Model Ver. 4.0.2.000               Aug 23, 2016; 20:22:29
                                                                                
*RUN   8        : UYSB                                                          
 MODEL          : CRGRO040 - SOYBEAN                                            
 EXPERIMENT     : UYSB0398 SN late to create DSS                                
 TREATMENT  1   : UYSB                                                          
                                                                                
 CROP           : SOYBEAN        CULTIVAR : GM 4 UY          ECOTYPE :SB0401    
 STARTING DATE  : AUG 20 1999                                                   
 PLANTING DATE  : AUG 23 1999    PLANTS/m2 :  7.0     ROW SPACING :  15.cm      
 WEATHER        : UYTA   1999                                                   
 SOIL           : UYSS0N2002     TEXTURE :       -  N20-02    SNIA CLAY RISS    
 SOIL INITIAL C : DEPTH:125cm EXTR. H2O:186.3mm  NO3: 30.1kg/ha  NH4: 23.9kg/ha 
 WATER BALANCE  : AUTOMATIC IRRIGATION - REFILL PROFILE                         
 IRRIGATION     : AUTOMATIC - PLANTING -> MATURITY [ SOIL DEPTH:30.00m 50.%]    
 NITROGEN BAL.  : SOIL-N, N-UPTAKE & DYNAMIC N-FIXATION SIMULATION              
 N-FERTILIZER   :        1 kg/ha IN     1 APPLICATIONS                          
 RESIDUE/MANURE : INITIAL :     0 kg/ha ;       0 kg/ha IN     0 APPLICATIONS   
 ENVIRONM. OPT. : DAYL=    0.00  SRAD=    0.00  TMAX=    0.00  TMIN=    0.00    
                  RAIN=    0.00  CO2 = R330.00  DEW =    0.00  WIND=    0.00    
 SIMULATION OPT : WATER   :Y  NITROGEN:Y  N-FIX:Y  PHOSPH :N  PESTS  :N         
                  PHOTO   :C  ET      :R  INFIL:S  HYDROL :R  SOM    :G         
 MANAGEMENT OPT : PLANTING:R  IRRIG   :A  FERT :D  RESIDUE:N  HARVEST:M  WTH:M  
                                                                                
*SUMMARY OF SOIL AND GENETIC INPUT PARAMETERS                                   
                                                                                
   SOIL LOWER UPPER   SAT  EXTR  INIT   ROOT   BULK     pH    NO3    NH4    ORG 
  DEPTH LIMIT LIMIT    SW    SW    SW   DIST   DENS                          C  
   cm   cm3/cm3    cm3/cm3    cm3/cm3         g/cm3         ugN/g  ugN/g     %  
------------------------------------------------------------------------------- 
  0-  5 0.331 0.542 0.585 0.211 0.394   1.00   1.11   6.50   5.00   1.50   2.74 
  5- 15 0.331 0.542 0.585 0.211 0.394   1.00   1.11   6.50   5.00   1.50   2.74 
 15- 30 0.331 0.542 0.585 0.211 0.394   1.00   1.11   6.50   5.00   1.50   2.74 
 30- 45 0.290 0.438 0.491 0.148 0.334   0.43   1.26   6.50   4.60   1.50   1.07 
 45- 60 0.292 0.431 0.480 0.138 0.375   0.39   1.29   6.27   2.45   1.50   0.90 
 60- 90 0.293 0.419 0.466 0.126 0.419   0.32   1.34   6.00   0.00   1.50   0.64 
 90-108 0.286 0.408 0.460 0.122 0.408   0.23   1.36   6.00   0.00   1.50   0.35 
108-125 0.276 0.395 0.456 0.119 0.395   0.12   1.38   6.00   0.00   1.50   0.14 
                                                                                
TOT-125  37.3  55.9  62.1  18.6  49.1  <--cm   -  kg/ha-->   30.1   23.9 166127 
SOIL ALBEDO    : 0.09      EVAPORATION LIMIT : 6.00         MIN. FACTOR  : 1.00 
RUNOFF CURVE # :10.00      DRAINAGE RATE     : 0.40         FERT. FACTOR : 1.00 
                                                                                
 SOYBEAN    CULTIVAR :UY0141-GM 4 UY            ECOTYPE :SB0401                 
 CSDVAR :13.39  PPSEN  : 0.29  EMG-FLW:21.50  FLW-FSD:18.00  FSD-PHM : 32.00    
 WTPSD  :0.190  SDPDVR : 2.20  SDFDUR :23.00  PODDUR :10.00  XFRUIT  :  1.00    
                                                                                
                                                                                
                                                                                
                                                                                
*SIMULATED CROP AND SOIL STATUS AT MAIN DEVELOPMENT STAGES

 RUN NO.     8     UYSB                    

        CROP GROWTH   BIOMASS         LEAF   CROP N     STRESS  
   DATE  AGE STAGE      kg/ha    LAI   NUM  kg/ha  %   H2O    N 
 ------  --- ---------- -----  -----  ----  ---  ---  ----  ----
 20 AUG    0 Start Sim      0   0.00   0.0    0  0.0  0.00  0.00
 23 AUG    0 Sowing         0   0.00   0.0    0  0.0  0.00  0.00
  3 SEP   11 Emergence      4   0.01   0.0    0  5.1  0.00  0.00
  3 SEP   11 End Juven.     4   0.01   0.0    0  5.1  0.00  0.00
 22 SEP   30 Unifoliate    10   0.02   1.1    0  4.9  0.00  0.00
 24 SEP   32 Flower Ind    12   0.02   1.3    1  4.9  0.00  0.00
  1 NOV   70 First Flwr   487   0.74   7.7   21  4.3  0.00  0.00
 14 NOV   83 First Pod   1560   1.59   9.9   64  4.1  0.00  0.00
  4 DEC  103 First Seed  3988   2.15  14.1  118  3.0  0.00  0.06
 15 DEC  114 End Leaf    5279   2.07  16.6  158  3.0  0.00  0.00
 18 DEC  117 End Msnode  5404   2.02  17.3  162  3.0  0.00  0.00
 22 DEC  121 End Pod     5667   1.96  17.3  172  3.0  0.00  0.00
 22 JAN  152 Phys. Mat   7738   1.45  17.3  285  3.7  0.00  0.01
  3 FEB  164 Harv. Mat   6621   0.10  17.3  265  4.0  0.00  0.02
  3 FEB  164 Harvest     6621   0.10  17.3  265  4.0  0.00  0.00


*MAIN GROWTH AND DEVELOPMENT VARIABLES

@     VARIABLE                          SIMULATED     MEASURED
      --------                          ---------     --------
      Anthesis day (dap)                       70          -99
      First pod day (dap)                      83          -99
      First seed day (dap)                    103          -99
      Physiological maturity day (dap)        152          -99
      Yield at harvest maturity (kg [dm]/    3700          -99
      Pod/Ear/Panicle weight at maturity     5282          -99
      Number at maturity (no/m2)             2201          -99
      Unit wt at maturity (g [dm]/unit)    0.1681          -99
      Number at maturity (no/unit)           2.20          -99
      Tops weight at maturity (kg [dm]/ha    6621          -99
      By-product produced (stalk) at matu    2920          -99
      Leaf area index, maximum               2.15          -99
      Harvest index at maturity             0.559          -99
      Threshing % at maturity               70.05          -99
      Grain N at maturity (kg/ha)             233          -99
      Tops N at maturity (kg/ha)              265          -99
      Stem N at maturity (kg/ha)                9          -99
      Grain N at maturity (%)                6.30          -99
      Tops weight at anthesis (kg [dm]/ha     487          -99
      Tops N at anthesis (kg/ha)               21          -99
      Leaf number per stem at maturity      17.30          -99
      Grain oil at maturity (%)             20.31          -99
      Canopy height (m)                      0.83          -99
      Harvest maturity day (dap)              164          -99


*ENVIRONMENTAL AND STRESS FACTORS

 |-----Development Phase------|-------------Environment--------------|---------Stress----------|
                              |--------Average-------|---Cumulative--|  (0=Min, 1=Max Stress)  |
                         Time  Temp  Temp Solar Photop         Evapo |----Water---|--Nitrogen--|
                         Span   Max   Min   Rad  [day]   Rain  Trans  Photo         Photo
                         days    øC    øC MJ/m2     hr     mm     mm  synth Growth  synth Growth
------------------------------------------------------------------------------------------------
 Emergence -First Flower   59  22.7  10.3  18.9  12.36   88.4   95.8  0.000  0.000  0.000  0.000
 First Flower-First Seed   33  25.5  13.9  22.5  13.67  116.5  150.8  0.000  0.000  0.000  0.035
 First Seed - Phys. Mat.   49  29.2  17.1  25.3  13.99  243.2  275.9  0.000  0.000  0.119  0.007
 Emergence  - Phys. Mat.  141  25.6  13.5  22.0  13.23  448.1  522.5  0.000  0.000  0.023  0.011

                   Soybean YIELD :     3700 kg/ha    [Dry weight] 

************************************************************************************************

*DSSAT Cropping System Model Ver. 4.0.2.000               Aug 23, 2016; 20:22:29
                                                                                
*RUN   9        : UYSB                                                          
 MODEL          : CRGRO040 - SOYBEAN                                            
 EXPERIMENT     : UYSB0398 SN late to create DSS                                
 TREATMENT  1   : UYSB                                                          
                                                                                
 CROP           : SOYBEAN        CULTIVAR : GM 4 UY          ECOTYPE :SB0401    
 STARTING DATE  : AUG 20 1999                                                   
 PLANTING DATE  : AUG 23 1999    PLANTS/m2 :  7.0     ROW SPACING :  15.cm      
 WEATHER        : UYTA   1999                                                   
 SOIL           : UYSS0N2002     TEXTURE :       -  N20-02    SNIA CLAY RISS    
 SOIL INITIAL C : DEPTH:125cm EXTR. H2O:186.3mm  NO3: 30.1kg/ha  NH4: 23.9kg/ha 
 WATER BALANCE  : AUTOMATIC IRRIGATION - REFILL PROFILE                         
 IRRIGATION     : AUTOMATIC - PLANTING -> MATURITY [ SOIL DEPTH:30.00m 50.%]    
 NITROGEN BAL.  : SOIL-N, N-UPTAKE & DYNAMIC N-FIXATION SIMULATION              
 N-FERTILIZER   :        1 kg/ha IN     1 APPLICATIONS                          
 RESIDUE/MANURE : INITIAL :     0 kg/ha ;       0 kg/ha IN     0 APPLICATIONS   
 ENVIRONM. OPT. : DAYL=    0.00  SRAD=    0.00  TMAX=    0.00  TMIN=    0.00    
                  RAIN=    0.00  CO2 = R330.00  DEW =    0.00  WIND=    0.00    
 SIMULATION OPT : WATER   :Y  NITROGEN:Y  N-FIX:Y  PHOSPH :N  PESTS  :N         
                  PHOTO   :C  ET      :R  INFIL:S  HYDROL :R  SOM    :G         
 MANAGEMENT OPT : PLANTING:R  IRRIG   :A  FERT :D  RESIDUE:N  HARVEST:M  WTH:M  
                                                                                
*SUMMARY OF SOIL AND GENETIC INPUT PARAMETERS                                   
                                                                                
   SOIL LOWER UPPER   SAT  EXTR  INIT   ROOT   BULK     pH    NO3    NH4    ORG 
  DEPTH LIMIT LIMIT    SW    SW    SW   DIST   DENS                          C  
   cm   cm3/cm3    cm3/cm3    cm3/cm3         g/cm3         ugN/g  ugN/g     %  
------------------------------------------------------------------------------- 
  0-  5 0.331 0.542 0.585 0.211 0.394   1.00   1.11   6.50   5.00   1.50   2.74 
  5- 15 0.331 0.542 0.585 0.211 0.394   1.00   1.11   6.50   5.00   1.50   2.74 
 15- 30 0.331 0.542 0.585 0.211 0.394   1.00   1.11   6.50   5.00   1.50   2.74 
 30- 45 0.290 0.438 0.491 0.148 0.334   0.43   1.26   6.50   4.60   1.50   1.07 
 45- 60 0.292 0.431 0.480 0.138 0.375   0.39   1.29   6.27   2.45   1.50   0.90 
 60- 90 0.293 0.419 0.466 0.126 0.419   0.32   1.34   6.00   0.00   1.50   0.64 
 90-108 0.286 0.408 0.460 0.122 0.408   0.23   1.36   6.00   0.00   1.50   0.35 
108-125 0.276 0.395 0.456 0.119 0.395   0.12   1.38   6.00   0.00   1.50   0.14 
                                                                                
TOT-125  37.3  55.9  62.1  18.6  49.1  <--cm   -  kg/ha-->   30.1   23.9 166127 
SOIL ALBEDO    : 0.09      EVAPORATION LIMIT : 6.00         MIN. FACTOR  : 1.00 
RUNOFF CURVE # :10.00      DRAINAGE RATE     : 0.40         FERT. FACTOR : 1.00 
                                                                                
 SOYBEAN    CULTIVAR :UY0141-GM 4 UY            ECOTYPE :SB0401                 
 CSDVAR :13.39  PPSEN  : 0.29  EMG-FLW:21.50  FLW-FSD:18.00  FSD-PHM : 32.00    
 WTPSD  :0.190  SDPDVR : 2.20  SDFDUR :23.00  PODDUR :10.00  XFRUIT  :  1.00    
                                                                                
                                                                                
                                                                                
                                                                                
*SIMULATED CROP AND SOIL STATUS AT MAIN DEVELOPMENT STAGES

 RUN NO.     9     UYSB                    

        CROP GROWTH   BIOMASS         LEAF   CROP N     STRESS  
   DATE  AGE STAGE      kg/ha    LAI   NUM  kg/ha  %   H2O    N 
 ------  --- ---------- -----  -----  ----  ---  ---  ----  ----
 20 AUG    0 Start Sim      0   0.00   0.0    0  0.0  0.00  0.00
 23 AUG    0 Sowing         0   0.00   0.0    0  0.0  0.00  0.00
  5 SEP   13 Emergence      4   0.01   0.0    0  5.1  0.00  0.00
  5 SEP   13 End Juven.     4   0.01   0.0    0  5.1  0.00  0.00
 11 SEP   19 Flower Ind     6   0.01   0.8    0  5.0  0.00  0.00
 14 SEP   22 Unifoliate     7   0.02   1.1    0  5.0  0.00  0.00
 24 OCT   62 First Flwr   270   0.40   6.7   12  4.4  0.00  0.00
  5 NOV   74 First Pod    829   0.95   8.8   34  4.1  0.00  0.00
 27 NOV   96 First Seed  3039   1.38  12.7   84  2.8  0.00  0.10
  8 DEC  107 End Leaf    4121   1.35  15.0  114  2.8  0.00  0.00
 12 DEC  111 End Msnode  4417   1.31  15.8  124  2.8  0.00  0.00
 14 DEC  113 End Pod     4499   1.29  15.8  127  2.8  0.00  0.00
 15 JAN  145 Phys. Mat   5880   0.96  15.8  207  3.5  0.00  0.01
 27 JAN  157 Harv. Mat   4977   0.06  15.8  189  3.8  0.00  0.00
 27 JAN  157 Harvest     4977   0.06  15.8  189  3.8  0.00  0.00


*MAIN GROWTH AND DEVELOPMENT VARIABLES

@     VARIABLE                          SIMULATED     MEASURED
      --------                          ---------     --------
      Anthesis day (dap)                       62          -99
      First pod day (dap)                      74          -99
      First seed day (dap)                     96          -99
      Physiological maturity day (dap)        145          -99
      Yield at harvest maturity (kg [dm]/    2540          -99
      Pod/Ear/Panicle weight at maturity     3853          -99
      Number at maturity (no/m2)             1685          -99
      Unit wt at maturity (g [dm]/unit)    0.1508          -99
      Number at maturity (no/unit)           2.20          -99
      Tops weight at maturity (kg [dm]/ha    4977          -99
      By-product produced (stalk) at matu    2440          -99
      Leaf area index, maximum               1.39          -99
      Harvest index at maturity             0.510          -99
      Threshing % at maturity               65.93          -99
      Grain N at maturity (kg/ha)             159          -99
      Tops N at maturity (kg/ha)              189          -99
      Stem N at maturity (kg/ha)                8          -99
      Grain N at maturity (%)                6.25          -99
      Tops weight at anthesis (kg [dm]/ha     270          -99
      Tops N at anthesis (kg/ha)               12          -99
      Leaf number per stem at maturity      15.82          -99
      Grain oil at maturity (%)             20.66          -99
      Canopy height (m)                      0.76          -99
      Harvest maturity day (dap)              157          -99


*ENVIRONMENTAL AND STRESS FACTORS

 |-----Development Phase------|-------------Environment--------------|---------Stress----------|
                              |--------Average-------|---Cumulative--|  (0=Min, 1=Max Stress)  |
                         Time  Temp  Temp Solar Photop         Evapo |----Water---|--Nitrogen--|
                         Span   Max   Min   Rad  [day]   Rain  Trans  Photo         Photo
                         days    øC    øC MJ/m2     hr     mm     mm  synth Growth  synth Growth
------------------------------------------------------------------------------------------------
 Emergence -First Flower   49  21.8  12.8  13.5  12.27  235.4   86.4  0.000  0.000  0.000  0.000
 First Flower-First Seed   34  24.3  12.9  22.7  13.50  129.6  143.8  0.000  0.000  0.000  0.063
 First Seed - Phys. Mat.   49  30.1  16.4  26.4  14.00   74.5  280.0  0.000  0.000  0.068  0.006
 Emergence  - Phys. Mat.  132  25.5  14.2  20.7  13.23  439.5  510.2  0.000  0.000  0.007  0.019

                   Soybean YIELD :     2540 kg/ha    [Dry weight] 

************************************************************************************************

*DSSAT Cropping System Model Ver. 4.0.2.000               Aug 23, 2016; 20:22:29
                                                                                
*RUN  10        : UYSB                                                          
 MODEL          : CRGRO040 - SOYBEAN                                            
 EXPERIMENT     : UYSB0398 SN late to create DSS                                
 TREATMENT  1   : UYSB                                                          
                                                                                
 CROP           : SOYBEAN        CULTIVAR : GM 4 UY          ECOTYPE :SB0401    
 STARTING DATE  : AUG 20 1999                                                   
 PLANTING DATE  : AUG 23 1999    PLANTS/m2 :  7.0     ROW SPACING :  15.cm      
 WEATHER        : UYTA   1999                                                   
 SOIL           : UYSS0N2002     TEXTURE :       -  N20-02    SNIA CLAY RISS    
 SOIL INITIAL C : DEPTH:125cm EXTR. H2O:186.3mm  NO3: 30.1kg/ha  NH4: 23.9kg/ha 
 WATER BALANCE  : AUTOMATIC IRRIGATION - REFILL PROFILE                         
 IRRIGATION     : AUTOMATIC - PLANTING -> MATURITY [ SOIL DEPTH:30.00m 50.%]    
 NITROGEN BAL.  : SOIL-N, N-UPTAKE & DYNAMIC N-FIXATION SIMULATION              
 N-FERTILIZER   :        1 kg/ha IN     1 APPLICATIONS                          
 RESIDUE/MANURE : INITIAL :     0 kg/ha ;       0 kg/ha IN     0 APPLICATIONS   
 ENVIRONM. OPT. : DAYL=    0.00  SRAD=    0.00  TMAX=    0.00  TMIN=    0.00    
                  RAIN=    0.00  CO2 = R330.00  DEW =    0.00  WIND=    0.00    
 SIMULATION OPT : WATER   :Y  NITROGEN:Y  N-FIX:Y  PHOSPH :N  PESTS  :N         
                  PHOTO   :C  ET      :R  INFIL:S  HYDROL :R  SOM    :G         
 MANAGEMENT OPT : PLANTING:R  IRRIG   :A  FERT :D  RESIDUE:N  HARVEST:M  WTH:M  
                                                                                
*SUMMARY OF SOIL AND GENETIC INPUT PARAMETERS                                   
                                                                                
   SOIL LOWER UPPER   SAT  EXTR  INIT   ROOT   BULK     pH    NO3    NH4    ORG 
  DEPTH LIMIT LIMIT    SW    SW    SW   DIST   DENS                          C  
   cm   cm3/cm3    cm3/cm3    cm3/cm3         g/cm3         ugN/g  ugN/g     %  
------------------------------------------------------------------------------- 
  0-  5 0.331 0.542 0.585 0.211 0.394   1.00   1.11   6.50   5.00   1.50   2.74 
  5- 15 0.331 0.542 0.585 0.211 0.394   1.00   1.11   6.50   5.00   1.50   2.74 
 15- 30 0.331 0.542 0.585 0.211 0.394   1.00   1.11   6.50   5.00   1.50   2.74 
 30- 45 0.290 0.438 0.491 0.148 0.334   0.43   1.26   6.50   4.60   1.50   1.07 
 45- 60 0.292 0.431 0.480 0.138 0.375   0.39   1.29   6.27   2.45   1.50   0.90 
 60- 90 0.293 0.419 0.466 0.126 0.419   0.32   1.34   6.00   0.00   1.50   0.64 
 90-108 0.286 0.408 0.460 0.122 0.408   0.23   1.36   6.00   0.00   1.50   0.35 
108-125 0.276 0.395 0.456 0.119 0.395   0.12   1.38   6.00   0.00   1.50   0.14 
                                                                                
TOT-125  37.3  55.9  62.1  18.6  49.1  <--cm   -  kg/ha-->   30.1   23.9 166127 
SOIL ALBEDO    : 0.09      EVAPORATION LIMIT : 6.00         MIN. FACTOR  : 1.00 
RUNOFF CURVE # :10.00      DRAINAGE RATE     : 0.40         FERT. FACTOR : 1.00 
                                                                                
 SOYBEAN    CULTIVAR :UY0141-GM 4 UY            ECOTYPE :SB0401                 
 CSDVAR :13.39  PPSEN  : 0.29  EMG-FLW:21.50  FLW-FSD:18.00  FSD-PHM : 32.00    
 WTPSD  :0.190  SDPDVR : 2.20  SDFDUR :23.00  PODDUR :10.00  XFRUIT  :  1.00    
                                                                                
                                                                                
                                                                                
                                                                                
*SIMULATED CROP AND SOIL STATUS AT MAIN DEVELOPMENT STAGES

 RUN NO.    10     UYSB                    

        CROP GROWTH   BIOMASS         LEAF   CROP N     STRESS  
   DATE  AGE STAGE      kg/ha    LAI   NUM  kg/ha  %   H2O    N 
 ------  --- ---------- -----  -----  ----  ---  ---  ----  ----
 19 AUG    0 Start Sim      0   0.00   0.0    0  0.0  0.00  0.00
 22 AUG    0 Sowing         0   0.00   0.0    0  0.0  0.00  0.00
  1 SEP   10 Emergence      4   0.01   0.0    0  5.1  0.00  0.00
  1 SEP   10 End Juven.     4   0.01   0.0    0  5.1  0.00  0.00
 25 SEP   34 Unifoliate    11   0.01   1.1    1  4.9  0.00  0.00
 26 SEP   35 Flower Ind    12   0.02   1.2    1  4.9  0.00  0.00
  4 NOV   74 First Flwr   436   0.60   7.4   19  4.3  0.00  0.00
 14 NOV   84 First Pod   1299   1.46   9.7   53  4.1  0.00  0.00
  5 DEC  105 First Seed  4105   2.15  14.1  126  3.1  0.00  0.02
 16 DEC  116 End Leaf    5311   2.05  16.6  161  3.0  0.00  0.00
 20 DEC  120 End Msnode  5644   1.99  17.5  173  3.1  0.00  0.00
 23 DEC  123 End Pod     5717   1.94  17.5  176  3.1  0.00  0.00
 23 JAN  154 Phys. Mat   7697   1.45  17.5  280  3.6  0.00  0.01
  4 FEB  166 Harv. Mat   6541   0.10  17.5  258  4.0  0.00  0.02
  4 FEB  166 Harvest     6541   0.10  17.5  258  4.0  0.00  0.00


*MAIN GROWTH AND DEVELOPMENT VARIABLES

@     VARIABLE                          SIMULATED     MEASURED
      --------                          ---------     --------
      Anthesis day (dap)                       74          -99
      First pod day (dap)                      84          -99
      First seed day (dap)                    105          -99
      Physiological maturity day (dap)        154          -99
      Yield at harvest maturity (kg [dm]/    3582          -99
      Pod/Ear/Panicle weight at maturity     5234          -99
      Number at maturity (no/m2)             2241          -99
      Unit wt at maturity (g [dm]/unit)    0.1598          -99
      Number at maturity (no/unit)           2.20          -99
      Tops weight at maturity (kg [dm]/ha    6541          -99
      By-product produced (stalk) at matu    2960          -99
      Leaf area index, maximum               2.15          -99
      Harvest index at maturity             0.548          -99
      Threshing % at maturity               68.44          -99
[...]
  5 SEP   13 End Juven.     4   0.01   0.0    0  5.1  0.00  0.00
 26 SEP   34 Unifoliate    11   0.02   1.2    1  4.9  0.00  0.00
 27 SEP   35 Flower Ind    12   0.02   1.4    1  4.9  0.00  0.00
  7 NOV   76 First Flwr   550   0.69   7.6   23  4.3  0.00  0.00
 21 NOV   90 First Pod   1670   1.75  10.1   68  4.1  0.00  0.00
 11 DEC  110 First Seed  4810   2.56  14.7  149  3.1  0.00  0.02
 23 DEC  122 End Leaf    5970   2.43  17.2  182  3.0  0.00  0.00
 27 DEC  126 End Msnode  6332   2.37  17.8  194  3.1  0.00  0.00
 29 DEC  128 End Pod     6476   2.33  17.8  199  3.1  0.00  0.00
 29 JAN  159 Phys. Mat   8550   1.73  17.8  301  3.5  0.00  0.01
 10 FEB  171 Harv. Mat   7098   0.12  17.8  271  3.8  0.00  0.02
 10 FEB  171 Harvest     7098   0.12  17.8  271  3.8  0.00  0.00


*MAIN GROWTH AND DEVELOPMENT VARIABLES

@     VARIABLE                          SIMULATED     MEASURED
      --------                          ---------     --------
      Anthesis day (dap)                       76          -99
      First pod day (dap)                      90          -99
      First seed day (dap)                    110          -99
      Physiological maturity day (dap)        159          -99
      Yield at harvest maturity (kg [dm]/    3650          -99
      Pod/Ear/Panicle weight at maturity     5467          -99
      Number at maturity (no/m2)             2325          -99
      Unit wt at maturity (g [dm]/unit)    0.1570          -99
      Number at maturity (no/unit)           2.20          -99
      Tops weight at maturity (kg [dm]/ha    7098          -99
      By-product produced (stalk) at matu    3450          -99
      Leaf area index, maximum               2.56          -99
      Harvest index at maturity             0.514          -99
      Threshing % at maturity               66.76          -99
      Grain N at maturity (kg/ha)             229          -99
      Tops N at maturity (kg/ha)              271          -99
      Stem N at maturity (kg/ha)               12          -99
      Grain N at maturity (%)                6.29          -99
      Tops weight at anthesis (kg [dm]/ha     550          -99
      Tops N at anthesis (kg/ha)               23          -99
      Leaf number per stem at maturity      17.80          -99
      Grain oil at maturity (%)             20.55          -99
      Canopy height (m)                      0.83          -99
      Harvest maturity day (dap)              171          -99


*ENVIRONMENTAL AND STRESS FACTORS

 |-----Development Phase------|-------------Environment--------------|---------Stress----------|
                              |--------Average-------|---Cumulative--|  (0=Min, 1=Max Stress)  |
                         Time  Temp  Temp Solar Photop         Evapo |----Water---|--Nitrogen--|
                         Span   Max   Min   Rad  [day]   Rain  Trans  Photo         Photo
                         days    øC    øC MJ/m2     hr     mm     mm  synth Growth  synth Growth
------------------------------------------------------------------------------------------------
 Emergence -First Flower   63  21.5  10.2  17.9  12.49  246.5  116.9  0.000  0.000  0.000  0.000
 First Flower-First Seed   34  27.3  14.2  25.2  13.79  104.0  177.0  0.000  0.000  0.000  0.009
 First Seed - Phys. Mat.   49  29.9  16.2  24.8  13.94   58.4  288.6  0.000  0.000  0.115  0.004
 Emergence  - Phys. Mat.  146  25.7  13.2  21.9  13.28  408.9  582.6  0.000  0.000  0.020  0.003

                   Soybean YIELD :     3650 kg/ha    [Dry weight] 

************************************************************************************************

*DSSAT Cropping System Model Ver. 4.0.2.000               Aug 23, 2016; 20:22:29
                                                                                
*RUN  14        : UYSB                                                          
 MODEL          : CRGRO040 - SOYBEAN                                            
 EXPERIMENT     : UYSB0398 SN late to create DSS                                
 TREATMENT  1   : UYSB                                                          
                                                                                
 CROP           : SOYBEAN        CULTIVAR : GM 4 UY          ECOTYPE :SB0401    
 STARTING DATE  : AUG 20 1999                                                   
 PLANTING DATE  : AUG 23 1999    PLANTS/m2 :  7.0     ROW SPACING :  15.cm      
 WEATHER        : UYTA   1999                                                   
 SOIL           : UYSS0N2002     TEXTURE :       -  N20-02    SNIA CLAY RISS    
 SOIL INITIAL C : DEPTH:125cm EXTR. H2O:186.3mm  NO3: 30.1kg/ha  NH4: 23.9kg/ha 
 WATER BALANCE  : AUTOMATIC IRRIGATION - REFILL PROFILE                         
 IRRIGATION     : AUTOMATIC - PLANTING -> MATURITY [ SOIL DEPTH:30.00m 50.%]    
 NITROGEN BAL.  : SOIL-N, N-UPTAKE & DYNAMIC N-FIXATION SIMULATION              
 N-FERTILIZER   :        1 kg/ha IN     1 APPLICATIONS                          
 RESIDUE/MANURE : INITIAL :     0 kg/ha ;       0 kg/ha IN     0 APPLICATIONS   
 ENVIRONM. OPT. : DAYL=    0.00  SRAD=    0.00  TMAX=    0.00  TMIN=    0.00    
                  RAIN=    0.00  CO2 = R330.00  DEW =    0.00  WIND=    0.00    
 SIMULATION OPT : WATER   :Y  NITROGEN:Y  N-FIX:Y  PHOSPH :N  PESTS  :N         
                  PHOTO   :C  ET      :R  INFIL:S  HYDROL :R  SOM    :G         
 MANAGEMENT OPT : PLANTING:R  IRRIG   :A  FERT :D  RESIDUE:N  HARVEST:M  WTH:M  
                                                                                
*SUMMARY OF SOIL AND GENETIC INPUT PARAMETERS                                   
                                                                                
   SOIL LOWER UPPER   SAT  EXTR  INIT   ROOT   BULK     pH    NO3    NH4    ORG 
  DEPTH LIMIT LIMIT    SW    SW    SW   DIST   DENS                          C  
   cm   cm3/cm3    cm3/cm3    cm3/cm3         g/cm3         ugN/g  ugN/g     %  
------------------------------------------------------------------------------- 
  0-  5 0.331 0.542 0.585 0.211 0.394   1.00   1.11   6.50   5.00   1.50   2.74 
  5- 15 0.331 0.542 0.585 0.211 0.394   1.00   1.11   6.50   5.00   1.50   2.74 
 15- 30 0.331 0.542 0.585 0.211 0.394   1.00   1.11   6.50   5.00   1.50   2.74 
 30- 45 0.290 0.438 0.491 0.148 0.334   0.43   1.26   6.50   4.60   1.50   1.07 
 45- 60 0.292 0.431 0.480 0.138 0.375   0.39   1.29   6.27   2.45   1.50   0.90 
 60- 90 0.293 0.419 0.466 0.126 0.419   0.32   1.34   6.00   0.00   1.50   0.64 
 90-108 0.286 0.408 0.460 0.122 0.408   0.23   1.36   6.00   0.00   1.50   0.35 
108-125 0.276 0.395 0.456 0.119 0.395   0.12   1.38   6.00   0.00   1.50   0.14 
                                                                                
TOT-125  37.3  55.9  62.1  18.6  49.1  <--cm   -  kg/ha-->   30.1   23.9 166127 
SOIL ALBEDO    : 0.09      EVAPORATION LIMIT : 6.00         MIN. FACTOR  : 1.00 
RUNOFF CURVE # :10.00      DRAINAGE RATE     : 0.40         FERT. FACTOR : 1.00 
                                                                                
 SOYBEAN    CULTIVAR :UY0141-GM 4 UY            ECOTYPE :SB0401                 
 CSDVAR :13.39  PPSEN  : 0.29  EMG-FLW:21.50  FLW-FSD:18.00  FSD-PHM : 32.00    
 WTPSD  :0.190  SDPDVR : 2.20  SDFDUR :23.00  PODDUR :10.00  XFRUIT  :  1.00    
                                                                                
                                                                                
                                                                                
                                                                                
*SIMULATED CROP AND SOIL STATUS AT MAIN DEVELOPMENT STAGES

 RUN NO.    14     UYSB                    

        CROP GROWTH   BIOMASS         LEAF   CROP N     STRESS  
   DATE  AGE STAGE      kg/ha    LAI   NUM  kg/ha  %   H2O    N 
 ------  --- ---------- -----  -----  ----  ---  ---  ----  ----
 19 AUG    0 Start Sim      0   0.00   0.0    0  0.0  0.00  0.00
 22 AUG    0 Sowing         0   0.00   0.0    0  0.0  0.00  0.00
  1 SEP   10 Emergence      4   0.01   0.1    0  5.1  0.00  0.00
  1 SEP   10 End Juven.     4   0.01   0.1    0  5.1  0.00  0.00
 15 SEP   24 Unifoliate     8   0.02   1.2    0  4.9  0.00  0.00
 15 SEP   24 Flower Ind     8   0.02   1.2    0  4.9  0.00  0.00
 27 OCT   66 First Flwr   443   0.61   7.4   19  4.3  0.00  0.00
  7 NOV   77 First Pod   1289   1.43   9.7   52  4.0  0.00  0.00
 26 NOV   96 First Seed  3737   1.93  13.6  112  3.0  0.00  0.06
  6 DEC  106 End Leaf    4628   1.84  16.0  138  3.0  0.00  0.00
 10 DEC  110 End Msnode  4981   1.80  16.8  151  3.0  0.00  0.00
 13 DEC  113 End Pod     5144   1.75  16.8  158  3.1  0.00  0.00
 15 JAN  146 Phys. Mat   7040   1.29  16.8  265  3.8  0.00  0.00
 27 JAN  158 Harv. Mat   6134   0.09  16.8  248  4.0  0.00  0.05
 27 JAN  158 Harvest     6134   0.09  16.8  248  4.0  0.00  0.00


*MAIN GROWTH AND DEVELOPMENT VARIABLES

@     VARIABLE                          SIMULATED     MEASURED
      --------                          ---------     --------
      Anthesis day (dap)                       66          -99
      First pod day (dap)                      77          -99
      First seed day (dap)                     96          -99
      Physiological maturity day (dap)        146          -99
      Yield at harvest maturity (kg [dm]/    3556          -99
      Pod/Ear/Panicle weight at maturity     4993          -99
      Number at maturity (no/m2)             2015          -99
      Unit wt at maturity (g [dm]/unit)    0.1765          -99
      Number at maturity (no/unit)           2.20          -99
      Tops weight at maturity (kg [dm]/ha    6134          -99
      By-product produced (stalk) at matu    2580          -99
      Leaf area index, maximum               1.93          -99
      Harvest index at maturity             0.580          -99
      Threshing % at maturity               71.22          -99
      Grain N at maturity (kg/ha)             219          -99
      Tops N at maturity (kg/ha)              248          -99
      Stem N at maturity (kg/ha)                8          -99
      Grain N at maturity (%)                6.17          -99
      Tops weight at anthesis (kg [dm]/ha     443          -99
      Tops N at anthesis (kg/ha)               19          -99
      Leaf number per stem at maturity      16.83          -99
      Grain oil at maturity (%)             20.22          -99
      Canopy height (m)                      0.81          -99
      Harvest maturity day (dap)              158          -99


*ENVIRONMENTAL AND STRESS FACTORS

 |-----Development Phase------|-------------Environment--------------|---------Stress----------|
                              |--------Average-------|---Cumulative--|  (0=Min, 1=Max Stress)  |
                         Time  Temp  Temp Solar Photop         Evapo |----Water---|--Nitrogen--|
                         Span   Max   Min   Rad  [day]   Rain  Trans  Photo         Photo
                         days    øC    øC MJ/m2     hr     mm     mm  synth Growth  synth Growth
------------------------------------------------------------------------------------------------
 Emergence -First Flower   56  21.9  11.3  16.1  12.28  337.4  103.8  0.000  0.000  0.000  0.000
 First Flower-First Seed   30  27.0  14.6  23.5  13.55   68.8  145.5  0.000  0.000  0.000  0.038
 First Seed - Phys. Mat.   50  29.2  15.9  24.2  14.00  304.3  268.8  0.000  0.000  0.132  0.003
 Emergence  - Phys. Mat.  136  25.7  13.7  20.7  13.19  710.5  518.1  0.000  0.000  0.031  0.009

                   Soybean YIELD :     3556 kg/ha    [Dry weight] 

************************************************************************************************

*DSSAT Cropping System Model Ver. 4.0.2.000               Aug 23, 2016; 20:22:29
                                                                                
*RUN  15        : UYSB                                                          
 MODEL          : CRGRO040 - SOYBEAN                                            
 EXPERIMENT     : UYSB0398 SN late to create DSS                                
 TREATMENT  1   : UYSB                                                          
                                                                                
 CROP           : SOYBEAN        CULTIVAR : GM 4 UY          ECOTYPE :SB0401    
 STARTING DATE  : AUG 20 1999                                                   
 PLANTING DATE  : AUG 23 1999    PLANTS/m2 :  7.0     ROW SPACING :  15.cm      
 WEATHER        : UYTA   1999                                                   
 SOIL           : UYSS0N2002     TEXTURE :       -  N20-02    SNIA CLAY RISS    
 SOIL INITIAL C : DEPTH:125cm EXTR. H2O:186.3mm  NO3: 30.1kg/ha  NH4: 23.9kg/ha 
 WATER BALANCE  : AUTOMATIC IRRIGATION - REFILL PROFILE                         
 IRRIGATION     : AUTOMATIC - PLANTING -> MATURITY [ SOIL DEPTH:30.00m 50.%]    
 NITROGEN BAL.  : SOIL-N, N-UPTAKE & DYNAMIC N-FIXATION SIMULATION              
 N-FERTILIZER   :        1 kg/ha IN     1 APPLICATIONS                          
 RESIDUE/MANURE : INITIAL :     0 kg/ha ;       0 kg/ha IN     0 APPLICATIONS   
 ENVIRONM. OPT. : DAYL=    0.00  SRAD=    0.00  TMAX=    0.00  TMIN=    0.00    
                  RAIN=    0.00  CO2 = R330.00  DEW =    0.00  WIND=    0.00    
 SIMULATION OPT : WATER   :Y  NITROGEN:Y  N-FIX:Y  PHOSPH :N  PESTS  :N         
                  PHOTO   :C  ET      :R  INFIL:S  HYDROL :R  SOM    :G         
 MANAGEMENT OPT : PLANTING:R  IRRIG   :A  FERT :D  RESIDUE:N  HARVEST:M  WTH:M  
                                                                                
*SUMMARY OF SOIL AND GENETIC INPUT PARAMETERS                                   
                                                                                
   SOIL LOWER UPPER   SAT  EXTR  INIT   ROOT   BULK     pH    NO3    NH4    ORG 
  DEPTH LIMIT LIMIT    SW    SW    SW   DIST   DENS                          C  
   cm   cm3/cm3    cm3/cm3    cm3/cm3         g/cm3         ugN/g  ugN/g     %  
------------------------------------------------------------------------------- 
  0-  5 0.331 0.542 0.585 0.211 0.394   1.00   1.11   6.50   5.00   1.50   2.74 
  5- 15 0.331 0.542 0.585 0.211 0.394   1.00   1.11   6.50   5.00   1.50   2.74 
 15- 30 0.331 0.542 0.585 0.211 0.394   1.00   1.11   6.50   5.00   1.50   2.74 
 30- 45 0.290 0.438 0.491 0.148 0.334   0.43   1.26   6.50   4.60   1.50   1.07 
 45- 60 0.292 0.431 0.480 0.138 0.375   0.39   1.29   6.27   2.45   1.50   0.90 
 60- 90 0.293 0.419 0.466 0.126 0.419   0.32   1.34   6.00   0.00   1.50   0.64 
 90-108 0.286 0.408 0.460 0.122 0.408   0.23   1.36   6.00   0.00   1.50   0.35 
108-125 0.276 0.395 0.456 0.119 0.395   0.12   1.38   6.00   0.00   1.50   0.14 
                                                                                
TOT-125  37.3  55.9  62.1  18.6  49.1  <--cm   -  kg/ha-->   30.1   23.9 166127 
SOIL ALBEDO    : 0.09      EVAPORATION LIMIT : 6.00         MIN. FACTOR  : 1.00 
RUNOFF CURVE # :10.00      DRAINAGE RATE     : 0.40         FERT. FACTOR : 1.00 
                                                                                
 SOYBEAN    CULTIVAR :UY0141-GM 4 UY            ECOTYPE :SB0401                 
 CSDVAR :13.39  PPSEN  : 0.29  EMG-FLW:21.50  FLW-FSD:18.00  FSD-PHM : 32.00    
 WTPSD  :0.190  SDPDVR : 2.20  SDFDUR :23.00  PODDUR :10.00  XFRUIT  :  1.00    
                                                                                
                                                                                
                                                                                
                                                                                
*SIMULATED CROP AND SOIL STATUS AT MAIN DEVELOPMENT STAGES

 RUN NO.    15     UYSB                    

        CROP GROWTH   BIOMASS         LEAF   CROP N     STRESS  
   DATE  AGE STAGE      kg/ha    LAI   NUM  kg/ha  %   H2O    N 
 ------  --- ---------- -----  -----  ----  ---  ---  ----  ----
 20 AUG    0 Start Sim      0   0.00   0.0    0  0.0  0.00  0.00
 23 AUG    0 Sowing         0   0.00   0.0    0  0.0  0.00  0.00
  4 SEP   12 Emergence      4   0.01   0.0    0  5.1  0.00  0.00
  4 SEP   12 End Juven.     4   0.01   0.0    0  5.1  0.00  0.00
 15 SEP   23 Unifoliate     8   0.01   1.1    0  4.9  0.00  0.00
 15 SEP   23 Flower Ind     8   0.01   1.1    0  4.9  0.00  0.00
  2 NOV   71 First Flwr   417   0.64   7.5   18  4.3  0.00  0.00
 14 NOV   83 First Pod   1322   1.52   9.9   50  3.8  0.00  0.02
  3 DEC  102 First Seed  3799   2.17  14.0  114  3.0  0.00  0.02
 14 DEC  113 End Leaf    5128   2.09  16.4  154  3.0  0.00  0.00
 18 DEC  117 End Msnode  5468   2.03  17.3  166  3.0  0.00  0.00
 21 DEC  120 End Pod     5668   1.98  17.3  174  3.1  0.00  0.00
 21 JAN  151 Phys. Mat   7423   1.48  17.3  271  3.7  0.00  0.00
  2 FEB  163 Harv. Mat   6288   0.10  17.3  250  4.0  0.00  0.02
  2 FEB  163 Harvest     6288   0.10  17.3  250  4.0  0.00  0.00


*MAIN GROWTH AND DEVELOPMENT VARIABLES

@     VARIABLE                          SIMULATED     MEASURED
      --------                          ---------     --------
      Anthesis day (dap)                       71          -99
      First pod day (dap)                      83          -99
      First seed day (dap)                    102          -99
      Physiological maturity day (dap)        151          -99
      Yield at harvest maturity (kg [dm]/    3339          -99
      Pod/Ear/Panicle weight at maturity     4973          -99
      Number at maturity (no/m2)             2222          -99
      Unit wt at maturity (g [dm]/unit)    0.1503          -99
      Number at maturity (no/unit)           2.20          -99
      Tops weight at maturity (kg [dm]/ha    6288          -99
      By-product produced (stalk) at matu    2950          -99
      Leaf area index, maximum               2.17          -99
      Harvest index at maturity             0.531          -99
      Threshing % at maturity               67.14          -99
      Grain N at maturity (kg/ha)             215          -99
      Tops N at maturity (kg/ha)              250          -99
      Stem N at maturity (kg/ha)               10          -99
      Grain N at maturity (%)                6.45          -99
      Tops weight at anthesis (kg [dm]/ha     417          -99
      Tops N at anthesis (kg/ha)               18          -99
      Leaf number per stem at maturity      17.34          -99
      Grain oil at maturity (%)             20.60          -99
      Canopy height (m)                      0.83          -99
      Harvest maturity day (dap)              163          -99


*ENVIRONMENTAL AND STRESS FACTORS

 |-----Development Phase------|-------------Environment--------------|---------Stress----------|
                              |--------Average-------|---Cumulative--|  (0=Min, 1=Max Stress)  |
                         Time  Temp  Temp Solar Photop         Evapo |----Water---|--Nitrogen--|
                         Span   Max   Min   Rad  [day]   Rain  Trans  Photo         Photo
                         days    øC    øC MJ/m2     hr     mm     mm  synth Growth  synth Growth
------------------------------------------------------------------------------------------------
 Emergence -First Flower   59  22.1  10.4  16.9  12.39  353.6  107.3  0.000  0.000  0.000  0.000
 First Flower-First Seed   31  25.9  15.7  22.6  13.67  280.6  156.4  0.000  0.000  0.000  0.021
 First Seed - Phys. Mat.   49  31.6  18.1  25.7  13.99   88.6  305.9  0.000  0.000  0.129  0.001
 Emergence  - Phys. Mat.  139  26.3  14.3  21.3  13.24  722.8  569.6  0.000  0.000  0.027  0.005

                   Soybean YIELD :     3339 kg/ha    [Dry weight] 

************************************************************************************************
