*SOIL TEMPERATURE OUTPUT FILE (DAILY)

*DSSAT Cropping System Model Ver. 4.0.2.000               Aug 23, 2016; 20:22:29

*RUN   1        : UYSB                    
 MODEL          : CRGRO040 - Soybean         
 EXPERIMENT     : UYSB0398 SB    late to create DSS                             
 TREATMENT  1   : UYSB                    

@YEAR DOY   DAS  TS1D  TS2D  TS3D  TS4D  TS5D  TS6D  TS7D  TS8D  TS9D  TS10
 1999 232     0  22.5  21.6  20.6  19.8  19.3  18.8  18.5  18.3   0.0   0.0
 1999 233     1  23.0  22.1  21.0  20.1  19.5  19.0  18.6  18.3   0.0   0.0
 1999 234     2  21.6  20.9  20.0  19.4  19.0  18.6  18.3  18.2   0.0   0.0
 1999 235     3  20.0  19.5  18.9  18.5  18.3  18.2  18.1  18.0   0.0   0.0
 1999 236     4  19.1  18.7  18.3  18.0  18.0  17.9  17.9  17.9   0.0   0.0
 1999 237     5  17.2  17.0  17.0  17.0  17.2  17.4  17.6  17.7   0.0   0.0
 1999 238     6  15.5  15.6  15.8  16.2  16.6  17.0  17.3  17.5   0.0   0.0
 1999 239     7  15.5  15.6  15.8  16.2  16.5  17.0  17.3  17.5   0.0   0.0
 1999 240     8  15.0  15.2  15.5  15.9  16.3  16.9  17.2  17.4   0.0   0.0
 1999 241     9  14.9  15.1  15.4  15.8  16.3  16.8  17.2  17.4   0.0   0.0
 1999 242    10  16.6  16.5  16.5  16.7  16.9  17.2  17.5  17.6   0.0   0.0
 1999 243    11  18.0  17.7  17.4  17.3  17.4  17.5  17.7  17.7   0.0   0.0
 1999 244    12  18.1  17.8  17.5  17.4  17.4  17.6  17.7  17.7   0.0   0.0
 1999 245    13  19.4  18.9  18.4  18.1  17.9  17.9  17.9  17.8   0.0   0.0
 1999 246    14  19.1  18.6  18.2  17.9  17.8  17.8  17.8  17.8   0.0   0.0
 1999 247    15  17.7  17.4  17.2  17.1  17.2  17.4  17.6  17.6   0.0   0.0
 1999 248    16  16.5  16.4  16.4  16.5  16.7  17.1  17.4  17.5   0.0   0.0
 1999 249    17  17.5  17.2  17.0  17.0  17.1  17.3  17.5  17.6   0.0   0.0
 1999 250    18  17.3  17.1  16.9  16.9  17.0  17.3  17.5  17.5   0.0   0.0
 1999 251    19  17.9  17.6  17.3  17.2  17.2  17.4  17.5  17.6   0.0   0.0
 1999 252    20  18.2  17.8  17.5  17.3  17.3  17.4  17.6  17.6   0.0   0.0
 1999 253    21  17.6  17.3  17.1  17.0  17.1  17.3  17.5  17.6   0.0   0.0
 1999 254    22  16.4  16.3  16.3  16.4  16.6  17.0  17.3  17.4   0.0   0.0
 1999 255    23  16.6  16.5  16.4  16.5  16.7  17.0  17.3  17.4   0.0   0.0
 1999 256    24  17.4  17.1  16.9  16.8  16.9  17.2  17.4  17.5   0.0   0.0
 1999 257    25  17.4  17.1  16.9  16.8  16.9  17.2  17.4  17.5   0.0   0.0
 1999 258    26  18.0  17.7  17.3  17.1  17.2  17.3  17.5  17.5   0.0   0.0
 1999 259    27  19.3  18.8  18.2  17.8  17.6  17.6  17.7  17.7   0.0   0.0
 1999 260    28  20.1  19.4  18.7  18.2  17.9  17.8  17.8  17.8   0.0   0.0
 1999 261    29  21.1  20.3  19.4  18.7  18.3  18.0  17.9  17.9   0.0   0.0
 1999 262    30  21.6  20.8  19.7  19.0  18.5  18.2  18.0  17.9   0.0   0.0
 1999 263    31  22.7  21.7  20.4  19.5  18.9  18.4  18.2  18.0   0.0   0.0
 1999 264    32  22.7  21.7  20.4  19.5  18.9  18.4  18.1  18.0   0.0   0.0
 1999 265    33  22.2  21.2  20.1  19.2  18.7  18.2  18.0  18.0   0.0   0.0
 1999 266    34  20.7  19.9  19.0  18.4  18.1  17.9  17.8  17.8   0.0   0.0
 1999 267    35  21.0  20.2  19.3  18.6  18.2  17.9  17.8  17.8   0.0   0.0
 1999 268    36  19.8  19.2  18.4  17.9  17.7  17.6  17.6  17.7   0.0   0.0
 1999 269    37  18.9  18.4  17.8  17.5  17.3  17.4  17.5  17.5   0.0   0.0
 1999 270    38  18.8  18.3  17.7  17.4  17.3  17.3  17.4  17.5   0.0   0.0
 1999 271    39  18.7  18.2  17.7  17.3  17.2  17.3  17.4  17.5   0.0   0.0
 1999 272    40  17.8  17.4  17.0  16.9  16.9  17.0  17.3  17.4   0.0   0.0
 1999 273    41  18.4  17.9  17.4  17.1  17.1  17.2  17.3  17.4   0.0   0.0
 1999 274    42  17.6  17.3  16.9  16.7  16.8  17.0  17.2  17.3   0.0   0.0
 1999 275    43  16.6  16.4  16.2  16.2  16.4  16.7  17.0  17.2   0.0   0.0
 1999 276    44  15.3  15.2  15.3  15.5  15.8  16.3  16.8  17.0   0.0   0.0
 1999 277    45  14.3  14.4  14.6  15.0  15.4  16.1  16.6  16.9   0.0   0.0
 1999 278    46  13.1  13.3  13.8  14.3  14.9  15.8  16.4  16.8   0.0   0.0
 1999 279    47  14.0  14.1  14.4  14.8  15.3  16.0  16.6  16.9   0.0   0.0
 1999 280    48  14.4  14.5  14.7  15.0  15.5  16.1  16.6  16.9   0.0   0.0
 1999 281    49  15.4  15.4  15.4  15.5  15.8  16.3  16.8  17.0   0.0   0.0
 1999 282    50  16.4  16.2  16.0  16.0  16.2  16.5  16.9  17.1   0.0   0.0
 1999 283    51  17.5  17.1  16.8  16.6  16.6  16.8  17.1  17.2   0.0   0.0
 1999 284    52  18.3  17.8  17.3  17.0  16.9  17.0  17.2  17.3   0.0   0.0
 1999 285    53  18.6  18.1  17.5  17.2  17.0  17.1  17.2  17.3   0.0   0.0
 1999 286    54  18.6  18.1  17.5  17.1  17.0  17.1  17.2  17.3   0.0   0.0
 1999 287    55  18.3  17.8  17.3  17.0  16.9  16.9  17.1  17.3   0.0   0.0
 1999 288    56  18.5  18.0  17.4  17.0  16.9  17.0  17.2  17.3   0.0   0.0
 1999 289    57  18.2  17.8  17.2  16.9  16.8  16.9  17.1  17.2   0.0   0.0
 1999 290    58  19.6  18.9  18.1  17.6  17.3  17.2  17.3  17.4   0.0   0.0
 1999 291    59  21.1  20.3  19.2  18.4  17.9  17.6  17.6  17.6   0.0   0.0
 1999 292    60  23.2  22.1  20.7  19.5  18.8  18.2  17.9  17.8   0.0   0.0
 1999 293    61  24.3  23.0  21.4  20.0  19.1  18.4  18.1  17.9   0.0   0.0
 1999 294    62  25.3  23.9  22.1  20.6  19.5  18.7  18.2  18.0   0.0   0.0
 1999 295    63  24.9  23.5  21.8  20.3  19.4  18.5  18.1  18.0   0.0   0.0
 1999 296    64  24.2  22.9  21.3  19.9  19.1  18.4  18.0  17.9   0.0   0.0
 1999 297    65  23.3  22.2  20.7  19.5  18.7  18.1  17.9  17.8   0.0   0.0
 1999 298    66  22.4  21.4  20.1  19.0  18.4  17.9  17.7  17.7   0.0   0.0
 1999 299    67  21.8  20.9  19.7  18.7  18.2  17.7  17.6  17.6   0.0   0.0
 1999 300    68  22.4  21.4  20.1  19.0  18.4  17.9  17.7  17.6   0.0   0.0
 1999 301    69  23.6  22.4  20.9  19.6  18.8  18.2  17.9  17.8   0.0   0.0
 1999 302    70  24.6  23.3  21.6  20.1  19.2  18.4  18.0  17.9   0.0   0.0
 1999 303    71  24.9  23.6  21.8  20.3  19.3  18.5  18.1  17.9   0.0   0.0
 1999 304    72  25.1  23.7  21.9  20.4  19.4  18.5  18.1  17.9   0.0   0.0
 1999 305    73  24.6  23.3  21.6  20.1  19.2  18.4  18.0  17.8   0.0   0.0
 1999 306    74  24.0  22.8  21.2  19.8  19.0  18.2  17.9  17.8   0.0   0.0
 1999 307    75  23.4  22.2  20.7  19.5  18.7  18.1  17.8  17.7   0.0   0.0
 1999 308    76  22.1  21.1  19.8  18.8  18.2  17.7  17.6  17.5   0.0   0.0
 1999 309    77  21.5  20.6  19.4  18.5  18.0  17.6  17.5  17.5   0.0   0.0
 1999 310    78  22.2  21.2  19.9  18.9  18.2  17.7  17.6  17.5   0.0   0.0
 1999 311    79  21.3  20.5  19.3  18.4  17.9  17.5  17.4  17.4   0.0   0.0
 1999 312    80  20.4  19.6  18.7  17.9  17.5  17.3  17.3  17.3   0.0   0.0
 1999 313    81  20.5  19.8  18.8  18.0  17.6  17.3  17.3  17.3   0.0   0.0
 1999 314    82  20.2  19.5  18.6  17.8  17.4  17.2  17.2  17.3   0.0   0.0
 1999 315    83  19.8  19.1  18.3  17.6  17.3  17.1  17.1  17.2   0.0   0.0
 1999 316    84  21.1  20.3  19.2  18.3  17.8  17.4  17.3  17.4   0.0   0.0
 1999 317    85  22.7  21.6  20.3  19.1  18.4  17.8  17.6  17.5   0.0   0.0
 1999 318    86  24.4  23.1  21.4  20.0  19.0  18.2  17.9  17.7   0.0   0.0
 1999 319    87  26.0  24.5  22.5  20.8  19.7  18.6  18.1  17.9   0.0   0.0
 1999 320    88  26.8  25.2  23.1  21.2  20.0  18.8  18.2  18.0   0.0   0.0
 1999 321    89  26.9  25.3  23.1  21.3  20.0  18.8  18.2  18.0   0.0   0.0
 1999 322    90  27.1  25.4  23.2  21.3  20.1  18.9  18.2  18.0   0.0   0.0
 1999 323    91  27.4  25.7  23.5  21.5  20.2  19.0  18.3  18.0   0.0   0.0
 1999 324    92  26.9  25.3  23.2  21.3  20.0  18.9  18.2  18.0   0.0   0.0
 1999 325    93  26.6  25.0  22.9  21.1  19.9  18.8  18.2  17.9   0.0   0.0
 1999 326    94  26.2  24.7  22.7  20.9  19.7  18.6  18.1  17.9   0.0   0.0
 1999 327    95  25.4  24.0  22.1  20.5  19.4  18.4  18.0  17.8   0.0   0.0
 1999 328    96  25.0  23.7  21.9  20.3  19.3  18.4  17.9  17.7   0.0   0.0
 1999 329    97  25.2  23.9  22.0  20.4  19.4  18.4  17.9  17.8   0.0   0.0
 1999 330    98  24.3  23.1  21.4  20.0  19.0  18.2  17.8  17.7   0.0   0.0
 1999 331    99  24.4  23.2  21.5  20.1  19.1  18.2  17.8  17.7   0.0   0.0
 1999 332   100  25.6  24.2  22.3  20.7  19.5  18.5  18.0  17.8   0.0   0.0
 1999 333   101  26.7  25.2  23.1  21.2  20.0  18.8  18.1  17.9   0.0   0.0
 1999 334   102  27.9  26.2  23.9  21.8  20.4  19.1  18.3  18.0   0.0   0.0
 1999 335   103  29.5  27.6  25.0  22.7  21.0  19.5  18.6  18.2   0.0   0.0
 1999 336   104  28.7  26.9  24.4  22.2  20.7  19.3  18.4  18.1   0.0   0.0
 1999 337   105  27.5  25.8  23.6  21.6  20.3  19.0  18.3  18.0   0.0   0.0
 1999 338   106  27.1  25.6  23.4  21.5  20.1  18.9  18.2  17.9   0.0   0.0
 1999 339   107  24.7  23.5  21.8  20.3  19.2  18.3  17.8  17.7   0.0   0.0
 1999 340   108  23.1  22.0  20.6  19.4  18.6  17.9  17.6  17.5   0.0   0.0
 1999 341   109  23.0  22.0  20.6  19.4  18.6  17.9  17.5  17.5   0.0   0.0
 1999 342   110  23.6  22.5  21.0  19.7  18.8  18.0  17.6  17.5   0.0   0.0
 1999 343   111  23.4  22.3  20.8  19.6  18.7  17.9  17.6  17.5   0.0   0.0
 1999 344   112  25.0  23.7  22.0  20.4  19.3  18.3  17.8  17.7   0.0   0.0
 1999 345   113  26.5  25.0  23.0  21.2  19.9  18.7  18.1  17.8   0.0   0.0
 1999 346   114  27.2  25.7  23.5  21.6  20.2  18.9  18.2  17.9   0.0   0.0
 1999 347   115  27.0  25.4  23.4  21.5  20.1  18.9  18.2  17.9   0.0   0.0
 1999 348   116  26.7  25.3  23.2  21.4  20.1  18.8  18.1  17.9   0.0   0.0
 1999 349   117  26.9  25.4  23.3  21.4  20.1  18.9  18.1  17.9   0.0   0.0
 1999 350   118  27.3  25.7  23.6  21.6  20.3  18.9  18.2  17.9   0.0   0.0
 1999 351   119  28.3  26.6  24.3  22.2  20.7  19.2  18.4  18.0   0.0   0.0
 1999 352   120  30.0  28.1  25.4  23.0  21.3  19.6  18.6  18.2   0.0   0.0
 1999 353   121  30.4  28.4  25.7  23.2  21.4  19.7  18.7  18.2   0.0   0.0
 1999 354   122  30.4  28.5  25.8  23.3  21.5  19.7  18.7  18.3   0.0   0.0
 1999 355   123  30.1  28.2  25.6  23.2  21.4  19.7  18.7  18.2   0.0   0.0
 1999 356   124  29.6  27.8  25.2  22.9  21.2  19.5  18.6  18.2   0.0   0.0
 1999 357   125  28.5  26.8  24.5  22.3  20.8  19.3  18.4  18.0   0.0   0.0
 1999 358   126  29.2  27.4  24.9  22.7  21.0  19.4  18.5  18.1   0.0   0.0
 1999 359   127  30.4  28.5  25.8  23.3  21.5  19.8  18.7  18.3   0.0   0.0
 1999 360   128  31.8  29.7  26.7  24.0  22.1  20.1  18.9  18.4   0.0   0.0
 1999 361   129  33.4  31.1  27.8  24.9  22.7  20.5  19.2  18.6   0.0   0.0
 1999 362   130  32.9  30.6  27.5  24.6  22.5  20.4  19.1  18.5   0.0   0.0
 1999 363   131  31.2  29.2  26.4  23.8  21.9  20.0  18.8  18.3   0.0   0.0
 1999 364   132  28.8  27.1  24.7  22.6  21.0  19.4  18.5  18.1   0.0   0.0
 1999 365   133  27.1  25.7  23.6  21.7  20.3  19.0  18.2  17.9   0.0   0.0
 2000 001   134  25.7  24.4  22.6  20.9  19.7  18.6  18.0  17.7   0.0   0.0
 2000 002   135  26.6  25.2  23.2  21.4  20.1  18.9  18.1  17.8   0.0   0.0
 2000 003   136  27.8  26.2  24.1  22.1  20.6  19.2  18.3  18.0   0.0   0.0
 2000 004   137  29.0  27.3  24.9  22.7  21.0  19.4  18.5  18.1   0.0   0.0
 2000 005   138  29.6  27.8  25.3  23.0  21.3  19.6  18.6  18.2   0.0   0.0
 2000 006   139  30.5  28.6  25.9  23.4  21.6  19.8  18.7  18.3   0.0   0.0
 2000 007   140  31.5  29.5  26.7  24.0  22.1  20.1  18.9  18.4   0.0   0.0
 2000 008   141  32.8  30.6  27.5  24.7  22.5  20.4  19.1  18.5   0.0   0.0
 2000 009   142  33.8  31.4  28.2  25.2  22.9  20.7  19.2  18.6   0.0   0.0
 2000 010   143  34.1  31.7  28.4  25.3  23.0  20.7  19.3  18.7   0.0   0.0
 2000 011   144  34.2  31.8  28.5  25.4  23.1  20.8  19.3  18.7   0.0   0.0
 2000 012   145  34.1  31.8  28.5  25.4  23.1  20.8  19.3  18.7   0.0   0.0
 2000 013   146  34.1  31.7  28.5  25.4  23.1  20.8  19.3  18.7   0.0   0.0
 2000 014   147  32.0  30.0  27.1  24.4  22.3  20.3  19.0  18.5   0.0   0.0
 2000 015   148  31.4  29.5  26.7  24.1  22.2  20.2  19.0  18.4   0.0   0.0
 2000 016   149  31.0  29.1  26.4  23.9  22.0  20.1  18.9  18.4   0.0   0.0
 2000 017   150  29.6  27.9  25.5  23.2  21.5  19.8  18.7  18.2   0.0   0.0
 2000 018   151  28.4  26.9  24.7  22.6  21.1  19.5  18.5  18.1   0.0   0.0
 2000 019   152  29.6  27.9  25.5  23.2  21.5  19.8  18.7  18.2   0.0   0.0
 2000 020   153  30.2  28.5  26.0  23.6  21.8  19.9  18.8  18.3   0.0   0.0
 2000 021   154  30.5  28.7  26.1  23.7  21.9  20.0  18.8  18.3   0.0   0.0
 2000 022   155  30.4  28.6  26.1  23.7  21.9  20.0  18.8  18.3   0.0   0.0
 2000 023   156  30.0  28.3  25.8  23.5  21.7  19.9  18.8  18.3   0.0   0.0
 2000 024   157  29.5  27.8  25.5  23.2  21.5  19.8  18.7  18.2   0.0   0.0
 2000 025   158  28.5  27.0  24.8  22.8  21.2  19.6  18.6  18.1   0.0   0.0
 2000 026   159  27.6  26.2  24.2  22.3  20.8  19.4  18.4  18.0   0.0   0.0
 2000 027   160  27.9  26.5  24.4  22.5  21.0  19.4  18.5  18.1   0.0   0.0
 2000 028   161  28.2  26.7  24.6  22.6  21.1  19.5  18.5  18.1   0.0   0.0
 2000 029   162  28.9  27.4  25.2  23.0  21.4  19.7  18.6  18.2   0.0   0.0
 2000 030   163  29.0  27.4  25.2  23.0  21.4  19.7  18.6  18.2   0.0   0.0
 2000 031   164  28.1  26.7  24.7  22.7  21.2  19.6  18.6  18.1   0.0   0.0
 2000 032   165  27.2  25.9  24.0  22.2  20.8  19.4  18.4  18.0   0.0   0.0
 2000 033   166  26.3  25.2  23.5  21.8  20.5  19.2  18.3  17.9   0.0   0.0
 2000 034   167  25.4  24.4  22.9  21.4  20.2  18.9  18.2  17.8   0.0   0.0
 2000 035   168  25.1  24.1  22.6  21.2  20.1  18.9  18.1  17.8   0.0   0.0
 2000 036   169  26.3  25.1  23.5  21.8  20.5  19.2  18.3  18.0   0.0   0.0
 2000 037   170  28.5  27.1  25.0  23.0  21.4  19.8  18.7  18.2   0.0   0.0

*DSSAT Cropping System Model Ver. 4.0.2.000               Aug 23, 2016; 20:22:29

*RUN   2        : UYSB                    
 MODEL          : CRGRO040 - Soybean         
 EXPERIMENT     : UYSB0398 SB    late to create DSS                             
 TREATMENT  1   : UYSB                    

@YEAR DOY   DAS  TS1D  TS2D  TS3D  TS4D  TS5D  TS6D  TS7D  TS8D  TS9D  TS10
 2000 232     0  19.6  19.2  18.7  18.4  18.2  18.1  18.1  18.0   0.0   0.0
 2000 233     1  19.4  19.0  18.5  18.2  18.1  18.1  18.0  17.9   0.0   0.0
 2000 234     2  19.9  19.4  18.9  18.5  18.3  18.2  18.1  18.0   0.0   0.0
 2000 235     3  20.7  20.1  19.4  18.9  18.6  18.3  18.2  18.1   0.0   0.0
 2000 236     4  21.0  20.3  19.5  19.0  18.7  18.4  18.2  18.1   0.0   0.0
 2000 237     5  19.7  19.2  18.7  18.3  18.2  18.1  18.0  18.0   0.0   0.0
 2000 238     6  19.2  18.8  18.3  18.1  18.0  17.9  17.9  17.9   0.0   0.0
 2000 239     7  18.0  17.7  17.5  17.4  17.5  17.6  17.7  17.7   0.0   0.0
 2000 240     8  16.9  16.7  16.7  16.8  17.0  17.3  17.5  17.6   0.0   0.0
 2000 241     9  15.0  15.1  15.4  15.9  16.3  16.8  17.2  17.4   0.0   0.0
 2000 242    10  14.4  14.6  15.0  15.5  16.0  16.7  17.1  17.3   0.0   0.0
 2000 243    11  15.1  15.2  15.4  15.8  16.3  16.8  17.2  17.4   0.0   0.0
 2000 244    12  14.8  14.9  15.2  15.7  16.1  16.7  17.1  17.3   0.0   0.0
 2000 245    13  14.0  14.2  14.7  15.3  15.8  16.5  17.0  17.2   0.0   0.0
 2000 246    14  14.6  14.7  15.1  15.5  16.0  16.6  17.1  17.3   0.0   0.0
 2000 247    15  14.6  14.7  15.1  15.5  16.0  16.6  17.1  17.3   0.0   0.0
 2000 248    16  14.6  14.7  15.0  15.5  16.0  16.6  17.0  17.3   0.0   0.0
 2000 249    17  15.4  15.4  15.6  15.9  16.3  16.8  17.2  17.3   0.0   0.0
 2000 250    18  16.7  16.5  16.5  16.6  16.8  17.1  17.4  17.5   0.0   0.0
 2000 251    19  18.5  18.1  17.7  17.5  17.5  17.6  17.6  17.7   0.0   0.0
 2000 252    20  20.5  19.8  19.1  18.5  18.2  18.0  18.0  17.9   0.0   0.0
 2000 253    21  20.9  20.2  19.3  18.7  18.4  18.1  18.0  17.9   0.0   0.0
 2000 254    22  21.7  20.8  19.8  19.1  18.6  18.3  18.1  18.0   0.0   0.0
 2000 255    23  21.7  20.9  19.9  19.1  18.6  18.3  18.1  18.0   0.0   0.0
 2000 256    24  19.8  19.2  18.5  18.1  17.9  17.8  17.8  17.8   0.0   0.0
 2000 257    25  16.7  16.5  16.4  16.5  16.7  17.0  17.3  17.4   0.0   0.0
 2000 258    26  14.7  14.8  15.0  15.4  15.9  16.5  16.9  17.2   0.0   0.0
 2000 259    27  13.0  13.3  13.8  14.5  15.2  16.0  16.6  16.9   0.0   0.0
 2000 260    28  12.2  12.6  13.3  14.1  14.8  15.8  16.5  16.8   0.0   0.0
 2000 261    29  12.9  13.2  13.8  14.4  15.1  15.9  16.6  16.9   0.0   0.0
 2000 262    30  14.4  14.5  14.8  15.2  15.7  16.3  16.8  17.1   0.0   0.0
 2000 263    31  16.3  16.2  16.1  16.2  16.4  16.8  17.1  17.3   0.0   0.0
 2000 264    32  17.6  17.3  17.0  16.8  16.9  17.1  17.3  17.4   0.0   0.0
 2000 265    33  17.9  17.5  17.1  17.0  17.0  17.1  17.3  17.4   0.0   0.0
 2000 266    34  18.0  17.6  17.2  17.0  17.0  17.2  17.4  17.5   0.0   0.0
 2000 267    35  18.4  17.9  17.5  17.2  17.2  17.3  17.4  17.5   0.0   0.0
 2000 268    36  17.0  16.7  16.5  16.5  16.6  16.9  17.2  17.3   0.0   0.0
 2000 269    37  15.6  15.5  15.6  15.8  16.1  16.5  16.9  17.2   0.0   0.0
 2000 270    38  15.2  15.2  15.3  15.6  15.9  16.4  16.9  17.1   0.0   0.0
 2000 271    39  16.0  15.9  15.8  15.9  16.2  16.6  17.0  17.2   0.0   0.0
 2000 272    40  17.0  16.8  16.5  16.5  16.6  16.8  17.1  17.3   0.0   0.0
 2000 273    41  19.4  18.8  18.1  17.7  17.5  17.4  17.5  17.5   0.0   0.0
 2000 274    42  21.6  20.7  19.6  18.8  18.3  18.0  17.8  17.8   0.0   0.0
 2000 275    43  23.3  22.2  20.8  19.6  19.0  18.4  18.1  18.0   0.0   0.0
 2000 276    44  22.6  21.6  20.3  19.3  18.7  18.2  18.0  17.9   0.0   0.0
 2000 277    45  21.5  20.7  19.6  18.7  18.3  17.9  17.8  17.8   0.0   0.0
 2000 278    46  20.2  19.5  18.6  18.0  17.7  17.6  17.6  17.6   0.0   0.0
 2000 279    47  18.9  18.4  17.8  17.4  17.2  17.2  17.3  17.4   0.0   0.0
 2000 280    48  17.9  17.5  17.0  16.8  16.8  16.9  17.2  17.3   0.0   0.0
 2000 281    49  18.2  17.8  17.3  17.0  16.9  17.0  17.2  17.3   0.0   0.0
 2000 282    50  18.7  18.2  17.6  17.2  17.1  17.1  17.3  17.4   0.0   0.0
 2000 283    51  18.6  18.1  17.5  17.2  17.0  17.1  17.2  17.4   0.0   0.0
 2000 284    52  18.6  18.1  17.5  17.1  17.0  17.1  17.2  17.3   0.0   0.0
 2000 285    53  19.1  18.5  17.8  17.4  17.2  17.2  17.3  17.4   0.0   0.0
 2000 286    54  20.1  19.4  18.5  17.9  17.6  17.4  17.5  17.5   0.0   0.0
 2000 287    55  20.1  19.3  18.5  17.9  17.6  17.4  17.4  17.5   0.0   0.0
 2000 288    56  20.3  19.6  18.7  18.0  17.7  17.5  17.5  17.5   0.0   0.0
 2000 289    57  20.4  19.7  18.7  18.1  17.7  17.5  17.5  17.5   0.0   0.0
 2000 290    58  20.6  19.8  18.9  18.1  17.8  17.5  17.5  17.5   0.0   0.0
 2000 291    59  19.7  19.0  18.2  17.7  17.4  17.3  17.3  17.4   0.0   0.0
 2000 292    60  19.7  19.1  18.3  17.7  17.4  17.3  17.3  17.4   0.0   0.0
 2000 293    61  19.9  19.2  18.4  17.8  17.5  17.3  17.4  17.4   0.0   0.0
 2000 294    62  20.9  20.1  19.1  18.3  17.8  17.6  17.5  17.5   0.0   0.0
 2000 295    63  21.8  20.9  19.7  18.8  18.2  17.8  17.6  17.6   0.0   0.0
 2000 296    64  21.6  20.7  19.5  18.6  18.1  17.7  17.6  17.6   0.0   0.0
 2000 297    65  20.9  20.1  19.0  18.2  17.8  17.5  17.5  17.5   0.0   0.0
 2000 298    66  21.0  20.1  19.1  18.3  17.8  17.5  17.5  17.5   0.0   0.0
 2000 299    67  20.5  19.7  18.8  18.0  17.6  17.4  17.4  17.4   0.0   0.0
 2000 300    68  19.9  19.2  18.3  17.7  17.4  17.2  17.3  17.3   0.0   0.0
 2000 301    69  20.7  19.9  18.9  18.2  17.7  17.4  17.4  17.4   0.0   0.0
 2000 302    70  21.1  20.3  19.2  18.4  17.9  17.5  17.5  17.5   0.0   0.0
 2000 303    71  20.8  19.9  18.9  18.2  17.7  17.4  17.4  17.4   0.0   0.0
 2000 304    72  21.7  20.7  19.6  18.6  18.1  17.6  17.5  17.5   0.0   0.0
 2000 305    73  22.3  21.3  20.0  18.9  18.3  17.8  17.6  17.6   0.0   0.0
 2000 306    74  22.0  21.0  19.8  18.8  18.2  17.7  17.6  17.5   0.0   0.0
 2000 307    75  22.3  21.3  20.0  18.9  18.3  17.8  17.6  17.6   0.0   0.0
 2000 308    76  23.3  22.1  20.7  19.4  18.7  18.0  17.8  17.7   0.0   0.0
 2000 309    77  22.3  21.3  20.0  19.0  18.3  17.8  17.6  17.6   0.0   0.0
 2000 310    78  21.8  20.9  19.7  18.7  18.1  17.6  17.5  17.5   0.0   0.0
 2000 311    79  22.1  21.2  19.9  18.9  18.2  17.7  17.5  17.5   0.0   0.0
 2000 312    80  22.2  21.2  19.9  18.9  18.2  17.7  17.6  17.5   0.0   0.0
 2000 313    81  22.4  21.4  20.0  19.0  18.3  17.8  17.6  17.5   0.0   0.0
 2000 314    82  22.2  21.2  19.9  18.9  18.2  17.7  17.5  17.5   0.0   0.0
 2000 315    83  22.1  21.1  19.9  18.8  18.2  17.7  17.5  17.5   0.0   0.0
 2000 316    84  22.2  21.2  19.9  18.9  18.2  17.7  17.5  17.5   0.0   0.0
 2000 317    85  22.7  21.7  20.3  19.1  18.4  17.8  17.6  17.5   0.0   0.0
 2000 318    86  22.2  21.2  20.0  18.9  18.2  17.7  17.5  17.5   0.0   0.0
 2000 319    87  21.4  20.6  19.4  18.5  17.9  17.5  17.4  17.4   0.0   0.0
 2000 320    88  20.1  19.4  18.5  17.8  17.4  17.2  17.2  17.2   0.0   0.0
 2000 321    89  19.6  19.0  18.2  17.5  17.2  17.0  17.1  17.2   0.0   0.0
 2000 322    90  19.6  19.0  18.2  17.5  17.2  17.0  17.1  17.2   0.0   0.0
 2000 323    91  20.8  20.0  19.0  18.2  17.7  17.3  17.3  17.3   0.0   0.0
 2000 324    92  23.2  22.1  20.7  19.4  18.6  17.9  17.6  17.6   0.0   0.0
 2000 325    93  24.4  23.2  21.5  20.0  19.1  18.2  17.8  17.7   0.0   0.0
 2000 326    94  25.2  23.9  22.0  20.4  19.4  18.4  17.9  17.8   0.0   0.0
 2000 327    95  25.6  24.2  22.3  20.6  19.5  18.5  18.0  17.8   0.0   0.0
 2000 328    96  26.3  24.8  22.8  21.0  19.8  18.7  18.1  17.9   0.0   0.0
 2000 329    97  24.7  23.4  21.7  20.2  19.2  18.3  17.9  17.7   0.0   0.0
 2000 330    98  24.9  23.6  21.8  20.3  19.3  18.4  17.9  17.7   0.0   0.0
 2000 331    99  25.2  23.9  22.0  20.5  19.4  18.4  17.9  17.8   0.0   0.0
 2000 332   100  24.9  23.6  21.8  20.3  19.3  18.3  17.9  17.7   0.0   0.0
 2000 333   101  22.9  21.9  20.5  19.3  18.5  17.8  17.5  17.5   0.0   0.0
 2000 334   102  22.8  21.8  20.4  19.2  18.5  17.8  17.5  17.5   0.0   0.0
 2000 335   103  22.6  21.6  20.3  19.2  18.4  17.8  17.5  17.4   0.0   0.0
 2000 336   104  21.8  20.9  19.8  18.7  18.1  17.6  17.4  17.3   0.0   0.0
 2000 337   105  22.0  21.1  19.9  18.9  18.2  17.6  17.4  17.4   0.0   0.0
 2000 338   106  23.0  22.0  20.6  19.4  18.6  17.9  17.6  17.5   0.0   0.0
 2000 339   107  23.3  22.2  20.8  19.5  18.7  17.9  17.6  17.5   0.0   0.0
 2000 340   108  23.4  22.3  20.9  19.6  18.7  18.0  17.6  17.5   0.0   0.0
 2000 341   109  24.5  23.3  21.6  20.2  19.1  18.2  17.8  17.6   0.0   0.0
 2000 342   110  25.2  23.9  22.1  20.5  19.4  18.4  17.9  17.7   0.0   0.0
 2000 343   111  26.1  24.7  22.7  21.0  19.8  18.6  18.0  17.8   0.0   0.0
 2000 344   112  28.1  26.4  24.1  22.0  20.5  19.1  18.3  18.0   0.0   0.0
 2000 345   113  29.3  27.5  24.9  22.7  21.0  19.5  18.5  18.2   0.0   0.0
 2000 346   114  29.2  27.4  24.9  22.6  21.0  19.4  18.5  18.2   0.0   0.0
 2000 347   115  29.4  27.5  25.0  22.7  21.0  19.5  18.5  18.2   0.0   0.0
 2000 348   116  29.8  27.9  25.3  22.9  21.2  19.6  18.6  18.2   0.0   0.0
 2000 349   117  29.4  27.6  25.1  22.8  21.1  19.5  18.6  18.2   0.0   0.0
 2000 350   118  29.3  27.5  25.0  22.7  21.1  19.5  18.6  18.2   0.0   0.0
 2000 351   119  28.0  26.4  24.1  22.1  20.6  19.2  18.4  18.0   0.0   0.0
 2000 352   120  26.8  25.3  23.3  21.5  20.1  18.9  18.2  17.9   0.0   0.0
 2000 353   121  26.0  24.6  22.7  21.0  19.8  18.7  18.0  17.8   0.0   0.0
 2000 354   122  25.4  24.1  22.3  20.7  19.6  18.5  17.9  17.7   0.0   0.0
 2000 355   123  25.4  24.1  22.4  20.8  19.6  18.5  17.9  17.7   0.0   0.0
 2000 356   124  25.2  23.9  22.2  20.7  19.5  18.5  17.9  17.7   0.0   0.0
 2000 357   125  25.9  24.6  22.7  21.0  19.8  18.7  18.0  17.8   0.0   0.0
 2000 358   126  24.3  23.2  21.6  20.2  19.2  18.3  17.8  17.6   0.0   0.0
 2000 359   127  24.1  23.1  21.6  20.2  19.2  18.2  17.7  17.6   0.0   0.0
 2000 360   128  24.5  23.4  21.8  20.4  19.3  18.3  17.8  17.6   0.0   0.0
 2000 361   129  27.2  25.7  23.6  21.7  20.3  19.0  18.2  17.9   0.0   0.0
 2000 362   130  26.8  25.4  23.4  21.6  20.2  18.9  18.2  17.9   0.0   0.0
 2000 363   131  27.7  26.2  24.0  22.1  20.6  19.2  18.3  18.0   0.0   0.0
 2000 364   132  27.2  25.8  23.7  21.8  20.5  19.1  18.3  17.9   0.0   0.0
 2000 365   133  26.3  25.0  23.1  21.4  20.1  18.9  18.1  17.8   0.0   0.0
 2000 366   134  25.2  24.1  22.4  20.8  19.7  18.6  18.0  17.7   0.0   0.0
 2001 001   135  25.9  24.6  22.8  21.1  19.9  18.7  18.0  17.8   0.0   0.0
 2001 002   136  26.8  25.4  23.4  21.6  20.3  18.9  18.2  17.9   0.0   0.0
 2001 003   137  28.5  26.9  24.6  22.5  20.9  19.4  18.5  18.1   0.0   0.0
 2001 004   138  29.7  27.9  25.4  23.1  21.4  19.7  18.6  18.2   0.0   0.0
 2001 005   139  30.3  28.5  25.9  23.4  21.6  19.8  18.7  18.3   0.0   0.0
 2001 006   140  31.0  29.1  26.3  23.8  21.9  20.0  18.9  18.4   0.0   0.0
 2001 007   141  30.6  28.7  26.1  23.6  21.8  19.9  18.8  18.3   0.0   0.0
 2001 008   142  29.7  28.0  25.5  23.2  21.5  19.8  18.7  18.2   0.0   0.0
 2001 009   143  29.2  27.5  25.2  22.9  21.3  19.6  18.6  18.2   0.0   0.0
 2001 010   144  27.3  25.9  23.9  22.0  20.6  19.2  18.3  18.0   0.0   0.0
 2001 011   145  25.2  24.1  22.5  21.0  19.8  18.7  18.0  17.7   0.0   0.0
 2001 012   146  24.4  23.4  22.0  20.6  19.5  18.5  17.9  17.6   0.0   0.0
 2001 013   147  24.2  23.2  21.8  20.5  19.4  18.4  17.8  17.6   0.0   0.0
 2001 014   148  24.2  23.2  21.8  20.4  19.4  18.4  17.8  17.6   0.0   0.0
 2001 015   149  25.3  24.2  22.6  21.1  19.9  18.7  18.0  17.8   0.0   0.0
 2001 016   150  26.6  25.3  23.5  21.7  20.4  19.1  18.2  17.9   0.0   0.0
 2001 017   151  27.0  25.7  23.8  22.0  20.6  19.2  18.3  18.0   0.0   0.0
 2001 018   152  26.7  25.4  23.6  21.8  20.5  19.1  18.3  17.9   0.0   0.0
 2001 019   153  26.0  24.8  23.1  21.5  20.2  18.9  18.2  17.8   0.0   0.0
 2001 020   154  25.5  24.4  22.8  21.2  20.0  18.8  18.1  17.8   0.0   0.0
 2001 021   155  25.0  23.9  22.4  20.9  19.8  18.7  18.0  17.7   0.0   0.0
 2001 022   156  25.0  23.9  22.4  21.0  19.8  18.7  18.0  17.7   0.0   0.0
 2001 023   157  26.0  24.8  23.1  21.5  20.2  19.0  18.2  17.9   0.0   0.0
 2001 024   158  27.3  25.9  24.0  22.2  20.7  19.3  18.4  18.0   0.0   0.0
 2001 025   159  28.5  27.0  24.8  22.8  21.2  19.6  18.6  18.1   0.0   0.0
 2001 026   160  29.7  28.0  25.7  23.4  21.7  19.9  18.8  18.3   0.0   0.0
 2001 027   161  29.6  28.0  25.6  23.4  21.7  19.9  18.8  18.3   0.0   0.0
 2001 028   162  27.9  26.5  24.5  22.6  21.1  19.5  18.5  18.1   0.0   0.0
 2001 029   163  26.8  25.6  23.8  22.0  20.7  19.3  18.4  18.0   0.0   0.0
 2001 030   164  25.7  24.7  23.0  21.5  20.3  19.0  18.2  17.9   0.0   0.0
 2001 031   165  25.2  24.2  22.7  21.2  20.1  18.9  18.1  17.8   0.0   0.0
 2001 032   166  25.9  24.8  23.2  21.6  20.4  19.1  18.2  17.9   0.0   0.0
 2001 033   167  27.9  26.6  24.6  22.6  21.1  19.6  18.6  18.1   0.0   0.0
 2001 034   168  27.9  26.6  24.6  22.6  21.1  19.6  18.6  18.1   0.0   0.0
 2001 035   169  28.3  26.9  24.8  22.8  21.3  19.7  18.6  18.2   0.0   0.0
 2001 036   170  27.9  26.5  24.6  22.6  21.2  19.6  18.6  18.1   0.0   0.0
 2001 037   171  28.2  26.8  24.8  22.9  21.3  19.7  18.6  18.2   0.0   0.0
 2001 038   172  28.6  27.1  25.1  23.1  21.5  19.8  18.7  18.2   0.0   0.0
 2001 039   173  29.1  27.6  25.4  23.3  21.7  19.9  18.8  18.3   0.0   0.0

*DSSAT Cropping System Model Ver. 4.0.2.000               Aug 23, 2016; 20:22:29

*RUN   3        : UYSB                    
 MODEL          : CRGRO040 - Soybean         
 EXPERIMENT     : UYSB0398 SB    late to create DSS                             
 TREATMENT  1   : UYSB                    

@YEAR DOY   DAS  TS1D  TS2D  TS3D  TS4D  TS5D  TS6D  TS7D  TS8D  TS9D  TS10
 2001 232     0  15.2  15.3  15.7  16.1  16.5  17.0  17.4  17.5   0.0   0.0
 2001 233     1  15.1  15.3  15.6  16.1  16.5  17.0  17.3  17.5   0.0   0.0
 2001 234     2  15.2  15.4  15.7  16.1  16.5  17.0  17.4  17.5   0.0   0.0
 2001 235     3  15.2  15.3  15.6  16.0  16.5  17.0  17.3  17.5   0.0   0.0
 2001 236     4  15.5  15.6  15.8  16.2  16.6  17.0  17.4  17.5   0.0   0.0
 2001 237     5  16.4  16.4  16.4  16.6  16.9  17.2  17.5  17.6   0.0   0.0
 2001 238     6  18.3  18.0  17.7  17.6  17.6  17.7  17.8  17.8   0.0   0.0
 2001 239     7  18.7  18.3  18.0  17.8  17.7  17.8  17.8  17.8   0.0   0.0
 2001 240     8  18.6  18.2  17.9  17.7  17.7  17.7  17.8  17.8   0.0   0.0
 2001 241     9  19.2  18.8  18.3  18.0  17.9  17.9  17.9  17.9   0.0   0.0
 2001 242    10  20.0  19.4  18.8  18.4  18.2  18.1  18.0  17.9   0.0   0.0
 2001 243    11  19.2  18.8  18.3  18.0  17.9  17.9  17.9  17.8   0.0   0.0
 2001 244    12  19.3  18.8  18.3  18.0  17.9  17.9  17.9  17.8   0.0   0.0
 2001 245    13  19.5  19.0  18.5  18.1  18.0  17.9  17.9  17.9   0.0   0.0
 2001 246    14  18.4  18.1  17.7  17.5  17.5  17.6  17.7  17.7   0.0   0.0
 2001 247    15  16.4  16.3  16.3  16.5  16.7  17.1  17.3  17.5   0.0   0.0
 2001 248    16  15.1  15.2  15.4  15.8  16.2  16.7  17.1  17.3   0.0   0.0
 2001 249    17  14.7  14.8  15.1  15.5  16.0  16.6  17.0  17.2   0.0   0.0
 2001 250    18  14.8  14.9  15.2  15.6  16.0  16.6  17.0  17.2   0.0   0.0
 2001 251    19  15.2  15.3  15.4  15.8  16.2  16.7  17.1  17.3   0.0   0.0
 2001 252    20  15.5  15.5  15.6  15.9  16.3  16.8  17.1  17.3   0.0   0.0
 2001 253    21  15.8  15.7  15.8  16.0  16.4  16.8  17.2  17.3   0.0   0.0
 2001 254    22  15.7  15.7  15.8  16.0  16.3  16.8  17.1  17.3   0.0   0.0
 2001 255    23  15.9  15.8  15.8  16.1  16.4  16.8  17.2  17.3   0.0   0.0
 2001 256    24  16.2  16.1  16.1  16.2  16.5  16.9  17.2  17.4   0.0   0.0
 2001 257    25  16.3  16.1  16.1  16.3  16.5  16.9  17.2  17.4   0.0   0.0
 2001 258    26  15.7  15.7  15.7  16.0  16.3  16.7  17.1  17.3   0.0   0.0
 2001 259    27  14.8  14.9  15.1  15.5  15.9  16.5  16.9  17.2   0.0   0.0
 2001 260    28  14.3  14.4  14.7  15.2  15.7  16.3  16.8  17.1   0.0   0.0
 2001 261    29  14.5  14.6  14.9  15.3  15.7  16.4  16.9  17.1   0.0   0.0
 2001 262    30  15.8  15.7  15.7  15.9  16.2  16.7  17.1  17.2   0.0   0.0
 2001 263    31  17.9  17.5  17.2  17.0  17.0  17.2  17.4  17.5   0.0   0.0
 2001 264    32  20.1  19.5  18.7  18.2  17.9  17.8  17.7  17.7   0.0   0.0
 2001 265    33  21.9  21.0  19.9  19.1  18.6  18.2  18.0  17.9   0.0   0.0
 2001 266    34  22.3  21.3  20.1  19.2  18.7  18.3  18.0  18.0   0.0   0.0
 2001 267    35  22.9  21.8  20.5  19.5  18.9  18.4  18.1  18.0   0.0   0.0
 2001 268    36  21.7  20.8  19.7  18.9  18.4  18.1  17.9  17.9   0.0   0.0
 2001 269    37  20.4  19.7  18.8  18.2  17.9  17.7  17.7  17.7   0.0   0.0
 2001 270    38  18.5  18.1  17.5  17.3  17.2  17.3  17.4  17.5   0.0   0.0
 2001 271    39  17.9  17.5  17.1  16.9  16.9  17.1  17.3  17.4   0.0   0.0
 2001 272    40  17.1  16.8  16.5  16.5  16.6  16.9  17.1  17.3   0.0   0.0
 2001 273    41  17.2  16.9  16.6  16.6  16.6  16.9  17.1  17.3   0.0   0.0
 2001 274    42  17.7  17.3  16.9  16.8  16.8  17.0  17.2  17.3   0.0   0.0
 2001 275    43  18.2  17.8  17.3  17.1  17.0  17.1  17.3  17.4   0.0   0.0
 2001 276    44  18.1  17.7  17.2  17.0  16.9  17.1  17.2  17.4   0.0   0.0
 2001 277    45  18.1  17.6  17.2  16.9  16.9  17.0  17.2  17.3   0.0   0.0
 2001 278    46  18.1  17.7  17.2  17.0  16.9  17.0  17.2  17.3   0.0   0.0
 2001 279    47  18.3  17.9  17.3  17.1  17.0  17.1  17.2  17.4   0.0   0.0
 2001 280    48  18.6  18.1  17.5  17.2  17.1  17.1  17.3  17.4   0.0   0.0
 2001 281    49  18.6  18.1  17.6  17.2  17.1  17.1  17.3  17.4   0.0   0.0
 2001 282    50  18.1  17.6  17.1  16.9  16.8  17.0  17.2  17.3   0.0   0.0
 2001 283    51  18.6  18.1  17.5  17.2  17.1  17.1  17.3  17.4   0.0   0.0
 2001 284    52  19.0  18.4  17.8  17.3  17.2  17.2  17.3  17.4   0.0   0.0
 2001 285    53  19.2  18.6  17.9  17.4  17.2  17.2  17.3  17.4   0.0   0.0
 2001 286    54  19.9  19.2  18.4  17.8  17.5  17.4  17.4  17.5   0.0   0.0
 2001 287    55  21.1  20.2  19.2  18.4  17.9  17.7  17.6  17.6   0.0   0.0
 2001 288    56  20.6  19.8  18.9  18.1  17.8  17.5  17.5  17.5   0.0   0.0
 2001 289    57  20.6  19.8  18.9  18.2  17.8  17.5  17.5  17.5   0.0   0.0
 2001 290    58  21.2  20.4  19.3  18.5  18.0  17.7  17.6  17.6   0.0   0.0
 2001 291    59  21.9  20.9  19.7  18.8  18.2  17.8  17.7  17.7   0.0   0.0
 2001 292    60  22.3  21.3  20.1  19.0  18.4  17.9  17.8  17.7   0.0   0.0
 2001 293    61  23.6  22.4  20.9  19.7  18.9  18.2  17.9  17.8   0.0   0.0
 2001 294    62  23.2  22.1  20.6  19.5  18.7  18.1  17.9  17.8   0.0   0.0
 2001 295    63  22.5  21.4  20.1  19.1  18.4  17.9  17.7  17.7   0.0   0.0
 2001 296    64  21.8  20.9  19.7  18.7  18.2  17.8  17.6  17.6   0.0   0.0
 2001 297    65  21.9  20.9  19.7  18.7  18.2  17.8  17.6  17.6   0.0   0.0
 2001 298    66  22.8  21.7  20.3  19.2  18.5  18.0  17.8  17.7   0.0   0.0
 2001 299    67  23.4  22.3  20.8  19.5  18.8  18.1  17.9  17.8   0.0   0.0
 2001 300    68  23.8  22.6  21.0  19.7  18.9  18.2  17.9  17.8   0.0   0.0
 2001 301    69  23.8  22.6  21.0  19.8  18.9  18.2  17.9  17.8   0.0   0.0
 2001 302    70  23.2  22.1  20.6  19.4  18.7  18.1  17.8  17.7   0.0   0.0
 2001 303    71  21.3  20.5  19.3  18.5  17.9  17.6  17.5  17.5   0.0   0.0
 2001 304    72  21.2  20.3  19.2  18.4  17.9  17.5  17.4  17.5   0.0   0.0
 2001 305    73  21.8  20.8  19.6  18.7  18.1  17.7  17.5  17.5   0.0   0.0
 2001 306    74  21.6  20.7  19.5  18.6  18.0  17.6  17.5  17.5   0.0   0.0
 2001 307    75  21.5  20.6  19.5  18.5  18.0  17.6  17.5  17.5   0.0   0.0
 2001 308    76  21.9  21.0  19.7  18.7  18.1  17.7  17.5  17.5   0.0   0.0
 2001 309    77  23.0  21.9  20.5  19.3  18.5  17.9  17.7  17.6   0.0   0.0
 2001 310    78  23.3  22.2  20.7  19.4  18.7  18.0  17.7  17.7   0.0   0.0
 2001 311    79  22.7  21.6  20.3  19.1  18.4  17.9  17.6  17.6   0.0   0.0
 2001 312    80  22.4  21.4  20.1  19.0  18.3  17.8  17.6  17.5   0.0   0.0
 2001 313    81  22.2  21.2  20.0  18.9  18.2  17.7  17.5  17.5   0.0   0.0
 2001 314    82  21.5  20.6  19.5  18.5  18.0  17.5  17.4  17.4   0.0   0.0
 2001 315    83  21.6  20.7  19.5  18.6  18.0  17.6  17.4  17.4   0.0   0.0
 2001 316    84  23.3  22.2  20.7  19.5  18.7  18.0  17.7  17.6   0.0   0.0
 2001 317    85  23.8  22.6  21.0  19.7  18.8  18.1  17.8  17.7   0.0   0.0
 2001 318    86  23.9  22.7  21.1  19.8  18.9  18.1  17.8  17.7   0.0   0.0
 2001 319    87  24.1  22.9  21.3  19.9  19.0  18.2  17.8  17.7   0.0   0.0
 2001 320    88  23.1  22.0  20.6  19.4  18.6  17.9  17.6  17.6   0.0   0.0
 2001 321    89  22.5  21.4  20.1  19.0  18.3  17.7  17.5  17.5   0.0   0.0
 2001 322    90  23.5  22.4  20.8  19.6  18.7  18.0  17.7  17.6   0.0   0.0
 2001 323    91  24.5  23.2  21.5  20.1  19.1  18.3  17.8  17.7   0.0   0.0
 2001 324    92  25.9  24.4  22.5  20.8  19.6  18.6  18.1  17.9   0.0   0.0
 2001 325    93  27.1  25.5  23.3  21.4  20.1  18.9  18.2  18.0   0.0   0.0
 2001 326    94  28.0  26.2  23.9  21.8  20.4  19.1  18.4  18.1   0.0   0.0
 2001 327    95  28.8  26.9  24.4  22.2  20.7  19.3  18.5  18.2   0.0   0.0
 2001 328    96  27.1  25.4  23.3  21.4  20.1  18.9  18.2  18.0   0.0   0.0
 2001 329    97  24.4  23.2  21.5  20.1  19.1  18.3  17.8  17.7   0.0   0.0
 2001 330    98  23.1  22.0  20.6  19.4  18.6  17.9  17.6  17.5   0.0   0.0
 2001 331    99  22.3  21.3  20.1  19.0  18.3  17.7  17.5  17.4   0.0   0.0
 2001 332   100  20.6  19.9  18.9  18.1  17.6  17.3  17.2  17.2   0.0   0.0
 2001 333   101  21.1  20.3  19.3  18.4  17.8  17.4  17.3  17.3   0.0   0.0
 2001 334   102  20.9  20.1  19.1  18.3  17.7  17.3  17.2  17.2   0.0   0.0
 2001 335   103  21.7  20.8  19.7  18.7  18.0  17.5  17.3  17.3   0.0   0.0
 2001 336   104  21.8  20.9  19.8  18.8  18.1  17.6  17.4  17.3   0.0   0.0
 2001 337   105  21.1  20.3  19.3  18.4  17.8  17.4  17.2  17.3   0.0   0.0
 2001 338   106  20.7  20.0  19.0  18.2  17.7  17.3  17.2  17.2   0.0   0.0
 2001 339   107  21.6  20.8  19.7  18.7  18.0  17.5  17.3  17.3   0.0   0.0
 2001 340   108  21.7  20.9  19.7  18.7  18.1  17.5  17.3  17.3   0.0   0.0
 2001 341   109  22.2  21.3  20.1  19.0  18.3  17.7  17.4  17.4   0.0   0.0
 2001 342   110  22.1  21.2  20.0  19.0  18.3  17.7  17.4  17.4   0.0   0.0
 2001 343   111  22.2  21.3  20.1  19.0  18.3  17.7  17.4  17.4   0.0   0.0
 2001 344   112  22.7  21.7  20.4  19.3  18.5  17.8  17.5  17.4   0.0   0.0
 2001 345   113  22.7  21.7  20.4  19.3  18.5  17.8  17.5  17.4   0.0   0.0
 2001 346   114  22.7  21.8  20.5  19.3  18.5  17.8  17.5  17.4   0.0   0.0
 2001 347   115  24.2  23.0  21.5  20.0  19.1  18.2  17.7  17.6   0.0   0.0
 2001 348   116  25.2  23.9  22.1  20.6  19.5  18.4  17.9  17.7   0.0   0.0
 2001 349   117  25.5  24.2  22.4  20.8  19.6  18.5  17.9  17.7   0.0   0.0
 2001 350   118  25.7  24.4  22.5  20.9  19.7  18.6  18.0  17.8   0.0   0.0
 2001 351   119  25.8  24.4  22.6  20.9  19.7  18.6  18.0  17.8   0.0   0.0
 2001 352   120  25.9  24.5  22.7  21.0  19.8  18.6  18.0  17.8   0.0   0.0
 2001 353   121  26.2  24.8  22.9  21.2  19.9  18.7  18.1  17.8   0.0   0.0
 2001 354   122  27.0  25.5  23.4  21.5  20.2  18.9  18.2  17.9   0.0   0.0
 2001 355   123  26.1  24.7  22.8  21.1  19.8  18.7  18.0  17.8   0.0   0.0
 2001 356   124  25.3  24.0  22.3  20.7  19.6  18.5  17.9  17.7   0.0   0.0
 2001 357   125  25.0  23.8  22.2  20.6  19.5  18.5  17.9  17.7   0.0   0.0
 2001 358   126  24.8  23.6  22.0  20.5  19.4  18.4  17.8  17.6   0.0   0.0
 2001 359   127  24.5  23.4  21.8  20.4  19.3  18.3  17.8  17.6   0.0   0.0
 2001 360   128  26.4  25.0  23.1  21.3  20.0  18.8  18.1  17.8   0.0   0.0
 2001 361   129  27.8  26.3  24.1  22.1  20.6  19.2  18.3  18.0   0.0   0.0
 2001 362   130  28.7  27.0  24.6  22.5  20.9  19.4  18.4  18.1   0.0   0.0
 2001 363   131  29.2  27.5  25.0  22.8  21.1  19.5  18.5  18.1   0.0   0.0
 2001 364   132  29.7  27.9  25.4  23.1  21.4  19.7  18.6  18.2   0.0   0.0
 2001 365   133  29.7  27.9  25.4  23.1  21.4  19.7  18.6  18.2   0.0   0.0
 2002 001   134  29.1  27.4  25.0  22.8  21.1  19.5  18.5  18.1   0.0   0.0
 2002 002   135  28.6  26.9  24.6  22.5  20.9  19.4  18.5  18.1   0.0   0.0
 2002 003   136  28.2  26.6  24.3  22.3  20.8  19.3  18.4  18.0   0.0   0.0
 2002 004   137  27.5  26.0  23.9  22.0  20.5  19.1  18.3  18.0   0.0   0.0
 2002 005   138  26.0  24.7  22.9  21.2  19.9  18.7  18.0  17.8   0.0   0.0
 2002 006   139  25.1  24.0  22.3  20.8  19.6  18.5  17.9  17.7   0.0   0.0
 2002 007   140  24.3  23.3  21.8  20.4  19.3  18.4  17.8  17.6   0.0   0.0
 2002 008   141  24.5  23.4  21.9  20.5  19.4  18.4  17.8  17.6   0.0   0.0
 2002 009   142  24.4  23.3  21.8  20.4  19.4  18.4  17.8  17.6   0.0   0.0
 2002 010   143  25.6  24.4  22.7  21.1  19.9  18.7  18.0  17.8   0.0   0.0
 2002 011   144  26.7  25.4  23.5  21.6  20.3  19.0  18.2  17.9   0.0   0.0
 2002 012   145  28.3  26.7  24.5  22.5  20.9  19.4  18.4  18.0   0.0   0.0
 2002 013   146  29.1  27.4  25.1  22.9  21.2  19.6  18.6  18.1   0.0   0.0
 2002 014   147  28.4  26.8  24.6  22.6  21.0  19.4  18.5  18.1   0.0   0.0
 2002 015   148  27.3  25.9  23.9  22.0  20.6  19.2  18.3  18.0   0.0   0.0
 2002 016   149  26.2  25.0  23.2  21.5  20.2  18.9  18.1  17.8   0.0   0.0
 2002 017   150  24.9  23.8  22.3  20.8  19.7  18.6  17.9  17.7   0.0   0.0
 2002 018   151  23.4  22.6  21.3  20.1  19.1  18.2  17.7  17.5   0.0   0.0
 2002 019   152  24.4  23.4  22.0  20.6  19.5  18.5  17.9  17.6   0.0   0.0
 2002 020   153  26.3  25.1  23.3  21.6  20.3  19.0  18.2  17.9   0.0   0.0
 2002 021   154  27.2  25.8  23.9  22.0  20.6  19.2  18.3  18.0   0.0   0.0
 2002 022   155  28.5  27.0  24.8  22.7  21.1  19.5  18.5  18.1   0.0   0.0
 2002 023   156  29.9  28.2  25.7  23.4  21.7  19.9  18.7  18.3   0.0   0.0
 2002 024   157  29.9  28.2  25.8  23.5  21.7  19.9  18.8  18.3   0.0   0.0
 2002 025   158  29.1  27.5  25.3  23.1  21.5  19.8  18.7  18.2   0.0   0.0
 2002 026   159  28.4  27.0  24.8  22.8  21.2  19.6  18.6  18.2   0.0   0.0
 2002 027   160  27.3  26.0  24.1  22.2  20.8  19.4  18.4  18.0   0.0   0.0
 2002 028   161  27.0  25.8  23.9  22.1  20.7  19.3  18.4  18.0   0.0   0.0
 2002 029   162  27.9  26.5  24.5  22.6  21.1  19.5  18.5  18.1   0.0   0.0
 2002 030   163  28.2  26.8  24.8  22.8  21.2  19.6  18.6  18.1   0.0   0.0
 2002 031   164  28.7  27.2  25.1  23.1  21.5  19.8  18.7  18.3   0.0   0.0
 2002 032   165  28.6  27.2  25.1  23.1  21.5  19.8  18.7  18.2   0.0   0.0

*DSSAT Cropping System Model Ver. 4.0.2.000               Aug 23, 2016; 20:22:29

*RUN   4        : UYSB                    
 MODEL          : CRGRO040 - Soybean         
 EXPERIMENT     : UYSB0398 SB    late to create DSS                             
 TREATMENT  1   : UYSB                    

@YEAR DOY   DAS  TS1D  TS2D  TS3D  TS4D  TS5D  TS6D  TS7D  TS8D  TS9D  TS10
 2002 232     0  17.6  17.4  17.3  17.3  17.5  17.6  17.7  17.8   0.0   0.0
 2002 233     1  16.9  16.8  16.8  17.0  17.2  17.5  17.6  17.7   0.0   0.0
 2002 234     2  16.3  16.3  16.4  16.7  16.9  17.3  17.5  17.6   0.0   0.0
 2002 235     3  16.3  16.3  16.4  16.6  16.9  17.3  17.5  17.6   0.0   0.0
 2002 236     4  17.5  17.3  17.2  17.2  17.3  17.5  17.7  17.7   0.0   0.0
 2002 237     5  20.7  20.1  19.4  18.8  18.6  18.3  18.2  18.1   0.0   0.0
 2002 238     6  23.5  22.5  21.3  20.3  19.6  19.0  18.6  18.4   0.0   0.0
 2002 239     7  25.5  24.2  22.6  21.3  20.4  19.5  18.9  18.6   0.0   0.0
 2002 240     8  26.9  25.4  23.5  21.9  20.9  19.8  19.1  18.7   0.0   0.0
 2002 241     9  25.3  24.0  22.5  21.1  20.3  19.4  18.9  18.6   0.0   0.0
 2002 242    10  22.3  21.4  20.4  19.6  19.1  18.6  18.4  18.2   0.0   0.0
 2002 243    11  18.6  18.2  17.8  17.7  17.6  17.7  17.8  17.8   0.0   0.0
 2002 244    12  15.3  15.4  15.6  16.0  16.4  16.9  17.2  17.4   0.0   0.0
 2002 245    13  12.6  13.0  13.7  14.5  15.3  16.1  16.8  17.1   0.0   0.0
 2002 246    14  12.0  12.5  13.3  14.2  15.0  16.0  16.7  17.0   0.0   0.0
 2002 247    15  12.9  13.2  13.9  14.7  15.4  16.2  16.8  17.1   0.0   0.0
 2002 248    16  14.6  14.8  15.1  15.6  16.0  16.6  17.1  17.3   0.0   0.0
 2002 249    17  15.6  15.6  15.7  16.0  16.4  16.8  17.2  17.4   0.0   0.0
 2002 250    18  16.0  16.0  16.0  16.2  16.5  16.9  17.3  17.4   0.0   0.0
 2002 251    19  16.1  16.0  16.1  16.3  16.5  16.9  17.3  17.4   0.0   0.0
 2002 252    20  16.0  15.9  16.0  16.2  16.5  16.9  17.2  17.4   0.0   0.0
 2002 253    21  15.1  15.1  15.3  15.7  16.1  16.6  17.1  17.3   0.0   0.0
 2002 254    22  15.5  15.5  15.6  15.9  16.3  16.7  17.1  17.3   0.0   0.0
 2002 255    23  16.0  15.9  16.0  16.1  16.4  16.8  17.2  17.3   0.0   0.0
 2002 256    24  16.5  16.3  16.3  16.4  16.6  16.9  17.2  17.4   0.0   0.0
 2002 257    25  16.5  16.3  16.2  16.4  16.6  16.9  17.2  17.4   0.0   0.0
 2002 258    26  16.5  16.3  16.2  16.3  16.6  16.9  17.2  17.4   0.0   0.0
 2002 259    27  16.4  16.2  16.2  16.3  16.5  16.9  17.2  17.3   0.0   0.0
 2002 260    28  16.6  16.5  16.3  16.4  16.6  16.9  17.2  17.4   0.0   0.0
 2002 261    29  16.8  16.6  16.4  16.5  16.6  16.9  17.2  17.4   0.0   0.0
 2002 262    30  16.8  16.5  16.4  16.4  16.6  16.9  17.2  17.4   0.0   0.0
 2002 263    31  16.6  16.4  16.2  16.3  16.5  16.8  17.2  17.3   0.0   0.0
 2002 264    32  16.6  16.4  16.3  16.3  16.5  16.8  17.2  17.3   0.0   0.0
 2002 265    33  16.9  16.7  16.5  16.5  16.6  16.9  17.2  17.3   0.0   0.0
 2002 266    34  17.0  16.8  16.5  16.5  16.6  16.9  17.2  17.3   0.0   0.0
 2002 267    35  17.5  17.2  16.9  16.8  16.8  17.0  17.3  17.4   0.0   0.0
 2002 268    36  19.1  18.6  18.0  17.6  17.4  17.4  17.5  17.6   0.0   0.0
 2002 269    37  20.5  19.7  18.9  18.3  17.9  17.8  17.7  17.7   0.0   0.0
 2002 270    38  21.5  20.6  19.5  18.8  18.3  18.0  17.9  17.8   0.0   0.0
 2002 271    39  23.2  22.1  20.7  19.6  19.0  18.4  18.1  18.0   0.0   0.0
 2002 272    40  22.8  21.8  20.5  19.5  18.8  18.3  18.1  18.0   0.0   0.0
 2002 273    41  22.0  21.1  19.9  19.0  18.5  18.1  17.9  17.9   0.0   0.0
 2002 274    42  21.4  20.5  19.5  18.7  18.2  17.9  17.8  17.8   0.0   0.0
 2002 275    43  21.0  20.2  19.2  18.5  18.1  17.8  17.7  17.7   0.0   0.0
 2002 276    44  20.0  19.4  18.5  18.0  17.7  17.5  17.6  17.6   0.0   0.0
 2002 277    45  21.1  20.3  19.3  18.5  18.1  17.8  17.7  17.7   0.0   0.0
 2002 278    46  21.8  20.9  19.8  18.9  18.4  18.0  17.8  17.8   0.0   0.0
 2002 279    47  23.1  22.0  20.6  19.5  18.8  18.3  18.0  17.9   0.0   0.0
 2002 280    48  22.5  21.5  20.2  19.2  18.6  18.1  17.9  17.8   0.0   0.0
 2002 281    49  22.0  21.0  19.9  18.9  18.4  18.0  17.8  17.8   0.0   0.0
 2002 282    50  21.1  20.3  19.2  18.5  18.0  17.7  17.7  17.7   0.0   0.0
 2002 283    51  20.3  19.6  18.7  18.1  17.7  17.5  17.5  17.6   0.0   0.0
 2002 284    52  19.5  18.9  18.1  17.6  17.4  17.3  17.4  17.4   0.0   0.0
 2002 285    53  20.9  20.1  19.1  18.4  17.9  17.7  17.6  17.6   0.0   0.0
 2002 286    54  22.8  21.7  20.4  19.3  18.6  18.1  17.9  17.8   0.0   0.0
 2002 287    55  25.0  23.6  21.9  20.4  19.5  18.7  18.2  18.1   0.0   0.0
 2002 288    56  26.7  25.1  23.1  21.3  20.2  19.1  18.5  18.2   0.0   0.0
 2002 289    57  26.4  24.8  22.8  21.1  20.0  19.0  18.4  18.2   0.0   0.0
 2002 290    58  25.1  23.8  22.0  20.5  19.5  18.7  18.2  18.0   0.0   0.0
 2002 291    59  24.2  23.0  21.3  20.0  19.1  18.4  18.1  17.9   0.0   0.0
 2002 292    60  22.9  21.8  20.4  19.3  18.6  18.1  17.8  17.8   0.0   0.0
 2002 293    61  21.8  20.9  19.7  18.8  18.2  17.8  17.7  17.6   0.0   0.0
 2002 294    62  20.5  19.8  18.8  18.1  17.7  17.5  17.4  17.5   0.0   0.0
 2002 295    63  19.9  19.2  18.4  17.8  17.4  17.3  17.3  17.4   0.0   0.0
 2002 296    64  19.3  18.7  18.0  17.4  17.2  17.1  17.2  17.3   0.0   0.0
 2002 297    65  19.7  19.0  18.2  17.6  17.3  17.2  17.3  17.4   0.0   0.0
 2002 298    66  19.5  18.9  18.1  17.5  17.3  17.2  17.2  17.3   0.0   0.0
 2002 299    67  22.0  21.0  19.8  18.8  18.2  17.8  17.6  17.6   0.0   0.0
 2002 300    68  23.2  22.0  20.6  19.4  18.7  18.1  17.8  17.7   0.0   0.0
 2002 301    69  24.0  22.7  21.1  19.8  19.0  18.3  17.9  17.8   0.0   0.0
 2002 302    70  22.5  21.5  20.2  19.1  18.4  17.9  17.7  17.6   0.0   0.0
 2002 303    71  21.8  20.8  19.6  18.7  18.1  17.7  17.6  17.5   0.0   0.0
 2002 304    72  20.9  20.1  19.1  18.3  17.8  17.5  17.4  17.4   0.0   0.0
 2002 305    73  20.7  19.9  18.9  18.1  17.7  17.4  17.4  17.4   0.0   0.0
 2002 306    74  20.5  19.7  18.8  18.0  17.6  17.3  17.3  17.4   0.0   0.0
 2002 307    75  20.4  19.6  18.7  18.0  17.5  17.3  17.3  17.3   0.0   0.0
 2002 308    76  20.0  19.3  18.4  17.8  17.4  17.2  17.2  17.3   0.0   0.0
 2002 309    77  19.3  18.7  17.9  17.4  17.1  17.0  17.1  17.2   0.0   0.0
 2002 310    78  19.0  18.4  17.7  17.2  17.0  16.9  17.0  17.2   0.0   0.0
 2002 311    79  19.1  18.5  17.8  17.3  17.0  16.9  17.1  17.2   0.0   0.0
 2002 312    80  21.0  20.2  19.1  18.3  17.8  17.4  17.4  17.4   0.0   0.0
 2002 313    81  21.9  21.0  19.8  18.8  18.1  17.7  17.5  17.5   0.0   0.0
 2002 314    82  21.7  20.8  19.6  18.6  18.0  17.6  17.5  17.4   0.0   0.0
 2002 315    83  21.5  20.6  19.5  18.5  18.0  17.5  17.4  17.4   0.0   0.0
 2002 316    84  21.8  20.9  19.7  18.7  18.1  17.6  17.5  17.4   0.0   0.0
 2002 317    85  22.2  21.3  20.0  18.9  18.2  17.7  17.5  17.5   0.0   0.0
 2002 318    86  23.9  22.7  21.1  19.7  18.9  18.1  17.8  17.7   0.0   0.0
 2002 319    87  25.3  23.9  22.0  20.5  19.4  18.5  18.0  17.8   0.0   0.0
 2002 320    88  27.1  25.5  23.3  21.4  20.1  18.9  18.3  18.0   0.0   0.0
 2002 321    89  27.1  25.5  23.3  21.4  20.1  18.9  18.3  18.0   0.0   0.0
 2002 322    90  26.9  25.3  23.1  21.3  20.0  18.8  18.2  18.0   0.0   0.0
 2002 323    91  26.4  24.8  22.8  21.0  19.8  18.7  18.1  17.9   0.0   0.0
 2002 324    92  26.2  24.7  22.7  21.0  19.8  18.7  18.1  17.9   0.0   0.0
 2002 325    93  25.0  23.7  21.9  20.4  19.3  18.4  17.9  17.8   0.0   0.0
 2002 326    94  24.6  23.3  21.6  20.1  19.1  18.3  17.8  17.7   0.0   0.0
 2002 327    95  24.9  23.6  21.8  20.3  19.3  18.4  17.9  17.7   0.0   0.0
 2002 328    96  25.3  23.9  22.1  20.5  19.4  18.5  18.0  17.8   0.0   0.0
 2002 329    97  25.4  24.0  22.2  20.6  19.5  18.5  18.0  17.8   0.0   0.0
 2002 330    98  26.1  24.7  22.7  21.0  19.8  18.7  18.1  17.9   0.0   0.0
 2002 331    99  26.8  25.2  23.1  21.3  20.0  18.8  18.2  17.9   0.0   0.0
 2002 332   100  24.7  23.4  21.7  20.2  19.2  18.3  17.8  17.7   0.0   0.0
 2002 333   101  23.4  22.3  20.9  19.6  18.7  18.0  17.6  17.5   0.0   0.0
 2002 334   102  24.1  22.9  21.3  19.9  19.0  18.1  17.7  17.6   0.0   0.0
 2002 335   103  22.7  21.7  20.4  19.3  18.5  17.8  17.5  17.5   0.0   0.0
 2002 336   104  22.0  21.1  19.9  18.9  18.2  17.6  17.4  17.4   0.0   0.0
 2002 337   105  23.2  22.1  20.7  19.5  18.7  17.9  17.6  17.5   0.0   0.0
 2002 338   106  23.0  22.0  20.6  19.4  18.6  17.9  17.6  17.5   0.0   0.0
 2002 339   107  22.8  21.8  20.5  19.3  18.5  17.8  17.5  17.4   0.0   0.0
 2002 340   108  23.7  22.6  21.1  19.8  18.9  18.1  17.7  17.5   0.0   0.0
 2002 341   109  23.6  22.5  21.1  19.8  18.9  18.0  17.7  17.5   0.0   0.0
 2002 342   110  23.0  22.0  20.7  19.4  18.6  17.9  17.6  17.5   0.0   0.0
 2002 343   111  23.7  22.6  21.1  19.8  18.9  18.1  17.7  17.5   0.0   0.0
 2002 344   112  22.9  21.9  20.6  19.4  18.6  17.9  17.5  17.4   0.0   0.0
 2002 345   113  23.3  22.3  20.9  19.6  18.8  18.0  17.6  17.5   0.0   0.0
 2002 346   114  23.7  22.7  21.2  19.8  18.9  18.1  17.7  17.5   0.0   0.0
 2002 347   115  24.1  23.0  21.4  20.0  19.1  18.2  17.7  17.6   0.0   0.0
 2002 348   116  24.8  23.5  21.9  20.4  19.3  18.3  17.8  17.6   0.0   0.0
 2002 349   117  26.0  24.6  22.7  21.0  19.8  18.7  18.0  17.8   0.0   0.0
 2002 350   118  26.2  24.8  22.9  21.1  19.9  18.7  18.0  17.8   0.0   0.0
 2002 351   119  26.3  24.9  23.0  21.2  19.9  18.7  18.1  17.8   0.0   0.0
 2002 352   120  27.0  25.5  23.4  21.5  20.2  18.9  18.2  17.9   0.0   0.0
 2002 353   121  25.6  24.3  22.5  20.9  19.7  18.6  18.0  17.7   0.0   0.0
 2002 354   122  24.7  23.6  21.9  20.4  19.4  18.4  17.8  17.6   0.0   0.0
 2002 355   123  24.5  23.4  21.8  20.3  19.3  18.3  17.8  17.6   0.0   0.0
 2002 356   124  24.6  23.5  21.9  20.4  19.3  18.3  17.8  17.6   0.0   0.0
 2002 357   125  22.8  21.9  20.6  19.5  18.7  17.9  17.5  17.4   0.0   0.0
 2002 358   126  23.1  22.2  20.9  19.7  18.8  18.0  17.6  17.5   0.0   0.0
 2002 359   127  23.6  22.6  21.2  19.9  19.0  18.1  17.7  17.5   0.0   0.0
 2002 360   128  24.2  23.1  21.6  20.2  19.2  18.3  17.8  17.6   0.0   0.0
 2002 361   129  25.5  24.3  22.5  20.9  19.7  18.6  18.0  17.7   0.0   0.0
 2002 362   130  27.1  25.7  23.6  21.8  20.4  19.0  18.2  17.9   0.0   0.0
 2002 363   131  28.0  26.4  24.3  22.2  20.7  19.3  18.4  18.0   0.0   0.0
 2002 364   132  28.0  26.5  24.3  22.2  20.7  19.3  18.4  18.0   0.0   0.0
 2002 365   133  26.9  25.5  23.5  21.7  20.3  19.0  18.2  17.9   0.0   0.0
 2003 001   134  25.3  24.1  22.4  20.8  19.7  18.6  17.9  17.7   0.0   0.0
 2003 002   135  25.1  23.9  22.2  20.7  19.6  18.5  17.9  17.7   0.0   0.0
 2003 003   136  24.5  23.4  21.8  20.4  19.4  18.4  17.8  17.6   0.0   0.0
 2003 004   137  24.9  23.7  22.1  20.6  19.5  18.5  17.9  17.7   0.0   0.0
 2003 005   138  26.2  24.9  23.0  21.3  20.0  18.8  18.1  17.8   0.0   0.0
 2003 006   139  26.6  25.3  23.3  21.5  20.2  18.9  18.2  17.9   0.0   0.0
 2003 007   140  27.4  25.9  23.9  21.9  20.5  19.1  18.3  17.9   0.0   0.0
 2003 008   141  28.6  27.0  24.7  22.6  21.0  19.4  18.5  18.1   0.0   0.0
 2003 009   142  28.8  27.1  24.9  22.7  21.1  19.5  18.5  18.1   0.0   0.0
 2003 010   143  28.0  26.5  24.4  22.3  20.8  19.3  18.4  18.0   0.0   0.0
 2003 011   144  28.3  26.8  24.6  22.5  21.0  19.4  18.5  18.1   0.0   0.0
 2003 012   145  28.4  26.8  24.6  22.5  21.0  19.4  18.5  18.1   0.0   0.0
 2003 013   146  28.2  26.7  24.5  22.5  20.9  19.4  18.5  18.1   0.0   0.0
 2003 014   147  28.4  26.9  24.7  22.6  21.0  19.5  18.5  18.1   0.0   0.0
 2003 015   148  29.3  27.6  25.3  23.0  21.4  19.7  18.6  18.2   0.0   0.0
 2003 016   149  29.8  28.0  25.6  23.3  21.6  19.8  18.7  18.2   0.0   0.0
 2003 017   150  30.4  28.6  26.0  23.6  21.8  20.0  18.8  18.3   0.0   0.0
 2003 018   151  30.1  28.4  25.8  23.5  21.7  19.9  18.8  18.3   0.0   0.0
 2003 019   152  30.1  28.3  25.8  23.5  21.7  19.9  18.8  18.3   0.0   0.0
 2003 020   153  29.4  27.8  25.4  23.2  21.5  19.8  18.7  18.2   0.0   0.0
 2003 021   154  29.0  27.4  25.2  23.0  21.4  19.7  18.7  18.2   0.0   0.0
 2003 022   155  28.2  26.8  24.7  22.7  21.1  19.5  18.5  18.1   0.0   0.0
 2003 023   156  28.0  26.6  24.5  22.5  21.0  19.5  18.5  18.1   0.0   0.0
 2003 024   157  27.4  26.0  24.1  22.2  20.8  19.3  18.4  18.0   0.0   0.0
 2003 025   158  27.7  26.3  24.3  22.4  20.9  19.4  18.5  18.1   0.0   0.0
 2003 026   159  27.7  26.3  24.4  22.4  21.0  19.4  18.5  18.1   0.0   0.0
 2003 027   160  27.8  26.4  24.4  22.5  21.0  19.5  18.5  18.1   0.0   0.0
 2003 028   161  28.7  27.2  25.1  23.0  21.4  19.7  18.7  18.2   0.0   0.0
 2003 029   162  29.5  27.9  25.6  23.4  21.7  19.9  18.8  18.3   0.0   0.0

*DSSAT Cropping System Model Ver. 4.0.2.000               Aug 23, 2016; 20:22:29

*RUN   5        : UYSB                    
 MODEL          : CRGRO040 - Soybean         
 EXPERIMENT     : UYSB0398 SB    late to create DSS                             
 TREATMENT  1   : UYSB                    

@YEAR DOY   DAS  TS1D  TS2D  TS3D  TS4D  TS5D  TS6D  TS7D  TS8D  TS9D  TS10
 2003 232     0  22.0  21.2  20.3  19.6  19.1  18.7  18.4  18.2   0.0   0.0
 2003 233     1  23.1  22.1  21.0  20.1  19.5  19.0  18.6  18.4   0.0   0.0
 2003 234     2  21.3  20.6  19.8  19.2  18.8  18.5  18.3  18.1   0.0   0.0
 2003 235     3  18.8  18.4  18.1  17.9  17.8  17.9  17.9  17.9   0.0   0.0
 2003 236     4  16.5  16.5  16.5  16.7  17.0  17.3  17.5  17.6   0.0   0.0
 2003 237     5  13.7  14.0  14.6  15.2  15.8  16.5  17.0  17.3   0.0   0.0
 2003 238     6  10.3  11.0  12.2  13.4  14.5  15.7  16.5  16.8   0.0   0.0
 2003 239     7   9.4  10.3  11.6  13.0  14.1  15.4  16.3  16.7   0.0   0.0
 2003 240     8   9.8  10.6  11.9  13.2  14.3  15.5  16.4  16.8   0.0   0.0
 2003 241     9  10.0  10.7  12.0  13.2  14.3  15.5  16.4  16.8   0.0   0.0
 2003 242    10  10.7  11.4  12.4  13.6  14.6  15.7  16.5  16.9   0.0   0.0
 2003 243    11  11.4  12.0  12.9  14.0  14.9  15.9  16.6  16.9   0.0   0.0
 2003 244    12  13.2  13.5  14.1  14.8  15.5  16.3  16.9  17.1   0.0   0.0
 2003 245    13  14.6  14.7  15.1  15.6  16.0  16.6  17.1  17.3   0.0   0.0
 2003 246    14  16.7  16.5  16.5  16.6  16.8  17.2  17.4  17.5   0.0   0.0
 2003 247    15  18.2  17.9  17.6  17.4  17.4  17.5  17.6  17.7   0.0   0.0
 2003 248    16  20.1  19.5  18.8  18.4  18.1  18.0  17.9  17.9   0.0   0.0
 2003 249    17  22.5  21.6  20.5  19.6  19.1  18.6  18.3  18.2   0.0   0.0
 2003 250    18  23.1  22.1  20.8  19.9  19.2  18.7  18.4  18.2   0.0   0.0
 2003 251    19  21.5  20.7  19.8  19.1  18.6  18.3  18.1  18.0   0.0   0.0
 2003 252    20  20.0  19.4  18.7  18.2  18.0  17.9  17.9  17.8   0.0   0.0
 2003 253    21  17.9  17.6  17.3  17.2  17.2  17.4  17.5  17.6   0.0   0.0
 2003 254    22  15.2  15.2  15.4  15.8  16.1  16.7  17.1  17.3   0.0   0.0
 2003 255    23  14.9  15.0  15.2  15.6  16.0  16.6  17.0  17.2   0.0   0.0
 2003 256    24  14.9  14.9  15.2  15.6  16.0  16.5  17.0  17.2   0.0   0.0
 2003 257    25  14.9  15.0  15.2  15.5  16.0  16.5  17.0  17.2   0.0   0.0
 2003 258    26  15.1  15.1  15.3  15.6  16.0  16.6  17.0  17.2   0.0   0.0
 2003 259    27  14.8  14.8  15.1  15.5  15.9  16.5  16.9  17.2   0.0   0.0
 2003 260    28  14.0  14.1  14.5  15.0  15.6  16.2  16.8  17.1   0.0   0.0
 2003 261    29  15.0  15.1  15.2  15.6  16.0  16.5  17.0  17.2   0.0   0.0
 2003 262    30  16.7  16.5  16.4  16.4  16.6  16.9  17.2  17.4   0.0   0.0
 2003 263    31  17.4  17.1  16.8  16.8  16.8  17.1  17.3  17.4   0.0   0.0
 2003 264    32  18.4  18.0  17.5  17.3  17.2  17.3  17.5  17.5   0.0   0.0
 2003 265    33  19.8  19.2  18.4  18.0  17.7  17.6  17.7  17.7   0.0   0.0
 2003 266    34  19.7  19.1  18.4  17.9  17.7  17.6  17.6  17.7   0.0   0.0
 2003 267    35  19.1  18.6  18.0  17.6  17.5  17.4  17.5  17.6   0.0   0.0
 2003 268    36  19.1  18.5  17.9  17.5  17.4  17.4  17.5  17.6   0.0   0.0
 2003 269    37  18.6  18.1  17.6  17.3  17.2  17.3  17.4  17.5   0.0   0.0
 2003 270    38  18.4  18.0  17.5  17.2  17.1  17.2  17.4  17.5   0.0   0.0
 2003 271    39  17.7  17.3  17.0  16.8  16.8  17.0  17.3  17.4   0.0   0.0
 2003 272    40  17.4  17.0  16.7  16.6  16.7  16.9  17.2  17.3   0.0   0.0
 2003 273    41  17.9  17.5  17.1  16.9  16.9  17.1  17.3  17.4   0.0   0.0
 2003 274    42  19.3  18.7  18.1  17.6  17.4  17.4  17.5  17.5   0.0   0.0
 2003 275    43  19.3  18.7  18.1  17.6  17.4  17.4  17.5  17.5   0.0   0.0
 2003 276    44  20.0  19.3  18.5  18.0  17.7  17.5  17.6  17.6   0.0   0.0
 2003 277    45  20.4  19.7  18.8  18.1  17.8  17.6  17.6  17.6   0.0   0.0
 2003 278    46  20.6  19.9  18.9  18.3  17.9  17.7  17.6  17.6   0.0   0.0
 2003 279    47  19.8  19.1  18.3  17.8  17.5  17.4  17.5  17.5   0.0   0.0
 2003 280    48  20.0  19.3  18.5  17.9  17.6  17.5  17.5  17.6   0.0   0.0
 2003 281    49  21.0  20.2  19.2  18.4  18.0  17.7  17.7  17.7   0.0   0.0
 2003 282    50  21.8  20.9  19.7  18.8  18.3  17.9  17.8  17.7   0.0   0.0
 2003 283    51  20.2  19.5  18.6  18.0  17.7  17.5  17.5  17.5   0.0   0.0
 2003 284    52  19.2  18.6  17.9  17.5  17.3  17.2  17.3  17.4   0.0   0.0
 2003 285    53  17.8  17.4  17.0  16.7  16.7  16.9  17.1  17.2   0.0   0.0
 2003 286    54  16.8  16.5  16.2  16.2  16.3  16.6  16.9  17.1   0.0   0.0
 2003 287    55  16.9  16.6  16.3  16.2  16.3  16.6  16.9  17.1   0.0   0.0
 2003 288    56  19.2  18.6  17.9  17.4  17.2  17.2  17.3  17.4   0.0   0.0
 2003 289    57  22.0  21.1  19.8  18.9  18.3  17.9  17.7  17.7   0.0   0.0
 2003 290    58  24.6  23.3  21.6  20.2  19.3  18.5  18.1  18.0   0.0   0.0
 2003 291    59  26.9  25.3  23.2  21.4  20.2  19.1  18.5  18.2   0.0   0.0
 2003 292    60  27.0  25.4  23.3  21.4  20.2  19.1  18.5  18.2   0.0   0.0
 2003 293    61  25.9  24.4  22.5  20.9  19.8  18.8  18.3  18.1   0.0   0.0
 2003 294    62  24.6  23.3  21.6  20.2  19.3  18.5  18.1  17.9   0.0   0.0
 2003 295    63  23.5  22.3  20.8  19.6  18.8  18.2  17.9  17.8   0.0   0.0
 2003 296    64  22.6  21.6  20.2  19.1  18.5  18.0  17.8  17.7   0.0   0.0
 2003 297    65  23.8  22.6  21.1  19.8  18.9  18.3  17.9  17.8   0.0   0.0
 2003 298    66  24.8  23.4  21.7  20.2  19.3  18.5  18.1  17.9   0.0   0.0
 2003 299    67  25.2  23.8  22.0  20.5  19.5  18.6  18.1  18.0   0.0   0.0
 2003 300    68  24.7  23.4  21.6  20.2  19.3  18.5  18.0  17.9   0.0   0.0
 2003 301    69  24.1  22.8  21.2  19.9  19.0  18.3  17.9  17.8   0.0   0.0
 2003 302    70  23.2  22.0  20.6  19.4  18.6  18.0  17.8  17.7   0.0   0.0
 2003 303    71  24.3  23.0  21.4  20.0  19.1  18.3  18.0  17.8   0.0   0.0
 2003 304    72  23.2  22.1  20.6  19.4  18.7  18.0  17.8  17.7   0.0   0.0
 2003 305    73  22.8  21.7  20.3  19.2  18.5  17.9  17.7  17.6   0.0   0.0
 2003 306    74  22.1  21.1  19.8  18.8  18.2  17.7  17.6  17.5   0.0   0.0
 2003 307    75  21.1  20.3  19.2  18.3  17.8  17.5  17.4  17.4   0.0   0.0
 2003 308    76  19.4  18.8  18.0  17.5  17.2  17.1  17.1  17.2   0.0   0.0
 2003 309    77  20.3  19.6  18.6  17.9  17.5  17.3  17.3  17.3   0.0   0.0
 2003 310    78  21.7  20.8  19.6  18.6  18.0  17.6  17.5  17.5   0.0   0.0
 2003 311    79  23.2  22.1  20.6  19.4  18.6  18.0  17.7  17.6   0.0   0.0
 2003 312    80  24.6  23.3  21.6  20.1  19.2  18.3  17.9  17.8   0.0   0.0
 2003 313    81  25.9  24.4  22.4  20.8  19.6  18.6  18.1  17.9   0.0   0.0
 2003 314    82  27.0  25.4  23.2  21.3  20.1  18.9  18.3  18.0   0.0   0.0
 2003 315    83  28.3  26.5  24.1  22.0  20.5  19.2  18.5  18.2   0.0   0.0
 2003 316    84  27.0  25.4  23.2  21.4  20.1  18.9  18.3  18.1   0.0   0.0
 2003 317    85  25.3  23.9  22.1  20.5  19.4  18.5  18.0  17.8   0.0   0.0
 2003 318    86  24.1  22.9  21.3  19.9  19.0  18.2  17.8  17.7   0.0   0.0
 2003 319    87  23.8  22.6  21.0  19.7  18.8  18.1  17.8  17.7   0.0   0.0
 2003 320    88  21.7  20.8  19.6  18.7  18.0  17.6  17.4  17.4   0.0   0.0
 2003 321    89  22.6  21.6  20.2  19.1  18.4  17.8  17.6  17.5   0.0   0.0
 2003 322    90  22.4  21.4  20.1  19.0  18.3  17.7  17.5  17.5   0.0   0.0
 2003 323    91  22.8  21.8  20.4  19.2  18.5  17.9  17.6  17.5   0.0   0.0
 2003 324    92  21.4  20.5  19.4  18.5  17.9  17.5  17.3  17.3   0.0   0.0
 2003 325    93  22.0  21.1  19.9  18.8  18.2  17.6  17.4  17.4   0.0   0.0
 2003 326    94  23.4  22.3  20.8  19.5  18.7  18.0  17.7  17.6   0.0   0.0
 2003 327    95  26.4  24.9  22.8  21.1  19.8  18.7  18.1  17.9   0.0   0.0
 2003 328    96  25.5  24.1  22.3  20.6  19.5  18.5  18.0  17.8   0.0   0.0
 2003 329    97  26.7  25.1  23.1  21.2  20.0  18.8  18.2  17.9   0.0   0.0
 2003 330    98  27.2  25.6  23.4  21.5  20.2  18.9  18.3  18.0   0.0   0.0
 2003 331    99  26.6  25.1  23.0  21.2  20.0  18.8  18.2  17.9   0.0   0.0
 2003 332   100  25.2  23.9  22.1  20.5  19.4  18.4  17.9  17.8   0.0   0.0
 2003 333   101  26.9  25.3  23.2  21.4  20.1  18.9  18.2  17.9   0.0   0.0
 2003 334   102  26.0  24.6  22.6  20.9  19.7  18.6  18.0  17.8   0.0   0.0
 2003 335   103  25.6  24.2  22.3  20.7  19.6  18.5  18.0  17.8   0.0   0.0
 2003 336   104  24.8  23.5  21.8  20.3  19.2  18.3  17.8  17.7   0.0   0.0
 2003 337   105  25.1  23.8  22.0  20.5  19.4  18.4  17.9  17.7   0.0   0.0
 2003 338   106  24.7  23.4  21.7  20.2  19.2  18.3  17.8  17.7   0.0   0.0
 2003 339   107  25.3  23.9  22.1  20.6  19.4  18.4  17.9  17.7   0.0   0.0
 2003 340   108  25.2  23.9  22.1  20.5  19.4  18.4  17.9  17.7   0.0   0.0
 2003 341   109  25.4  24.0  22.2  20.6  19.5  18.5  17.9  17.7   0.0   0.0
 2003 342   110  24.3  23.1  21.5  20.1  19.1  18.2  17.8  17.6   0.0   0.0
 2003 343   111  23.5  22.5  21.0  19.7  18.8  18.0  17.6  17.5   0.0   0.0
 2003 344   112  23.9  22.8  21.2  19.9  18.9  18.1  17.7  17.6   0.0   0.0
 2003 345   113  23.9  22.8  21.3  19.9  19.0  18.1  17.7  17.6   0.0   0.0
 2003 346   114  23.6  22.5  21.0  19.7  18.8  18.0  17.6  17.5   0.0   0.0
 2003 347   115  23.8  22.7  21.2  19.8  18.9  18.1  17.7  17.5   0.0   0.0
 2003 348   116  24.7  23.5  21.8  20.3  19.3  18.3  17.8  17.6   0.0   0.0
 2003 349   117  23.8  22.7  21.2  19.9  18.9  18.1  17.7  17.5   0.0   0.0
 2003 350   118  23.0  22.1  20.7  19.5  18.7  17.9  17.6  17.5   0.0   0.0
 2003 351   119  23.1  22.1  20.7  19.5  18.7  17.9  17.6  17.5   0.0   0.0
 2003 352   120  23.6  22.6  21.1  19.8  18.9  18.1  17.6  17.5   0.0   0.0
 2003 353   121  23.8  22.8  21.3  19.9  19.0  18.1  17.7  17.5   0.0   0.0
 2003 354   122  24.1  23.0  21.5  20.1  19.1  18.2  17.7  17.6   0.0   0.0
 2003 355   123  25.6  24.3  22.5  20.9  19.7  18.6  18.0  17.7   0.0   0.0
 2003 356   124  25.5  24.2  22.5  20.8  19.7  18.6  18.0  17.7   0.0   0.0
 2003 357   125  24.9  23.8  22.1  20.6  19.5  18.4  17.9  17.7   0.0   0.0
 2003 358   126  24.4  23.2  21.7  20.3  19.3  18.3  17.8  17.6   0.0   0.0
 2003 359   127  25.3  24.1  22.4  20.8  19.6  18.5  17.9  17.7   0.0   0.0
 2003 360   128  25.3  24.1  22.4  20.8  19.6  18.5  17.9  17.7   0.0   0.0
 2003 361   129  25.8  24.5  22.7  21.0  19.8  18.7  18.0  17.8   0.0   0.0
 2003 362   130  25.5  24.2  22.5  20.9  19.7  18.6  18.0  17.7   0.0   0.0
 2003 363   131  25.2  24.1  22.4  20.8  19.7  18.6  17.9  17.7   0.0   0.0
 2003 364   132  24.9  23.8  22.2  20.7  19.6  18.5  17.9  17.7   0.0   0.0
 2003 365   133  23.8  22.8  21.4  20.1  19.1  18.2  17.7  17.5   0.0   0.0
 2004 001   134  24.1  23.1  21.6  20.2  19.2  18.3  17.7  17.6   0.0   0.0
 2004 002   135  25.1  23.9  22.2  20.7  19.6  18.5  17.9  17.7   0.0   0.0
 2004 003   136  26.2  24.9  23.0  21.3  20.0  18.8  18.1  17.8   0.0   0.0
 2004 004   137  26.7  25.3  23.3  21.5  20.2  18.9  18.2  17.9   0.0   0.0
 2004 005   138  28.3  26.7  24.4  22.4  20.8  19.3  18.4  18.0   0.0   0.0
 2004 006   139  29.5  27.7  25.3  23.0  21.3  19.6  18.6  18.2   0.0   0.0
 2004 007   140  30.3  28.5  25.9  23.4  21.7  19.9  18.8  18.3   0.0   0.0
 2004 008   141  30.6  28.7  26.0  23.6  21.8  19.9  18.8  18.3   0.0   0.0
 2004 009   142  30.7  28.8  26.2  23.7  21.8  20.0  18.8  18.3   0.0   0.0
 2004 010   143  30.4  28.6  26.0  23.5  21.7  19.9  18.8  18.3   0.0   0.0
 2004 011   144  29.3  27.6  25.2  23.0  21.3  19.6  18.6  18.2   0.0   0.0
 2004 012   145  28.3  26.8  24.6  22.5  20.9  19.4  18.4  18.1   0.0   0.0
 2004 013   146  27.6  26.2  24.1  22.1  20.7  19.2  18.3  18.0   0.0   0.0
 2004 014   147  27.3  25.9  23.8  22.0  20.5  19.1  18.3  17.9   0.0   0.0
 2004 015   148  26.5  25.2  23.4  21.6  20.3  19.0  18.2  17.9   0.0   0.0
 2004 016   149  26.4  25.1  23.3  21.6  20.3  19.0  18.2  17.9   0.0   0.0
 2004 017   150  26.4  25.1  23.3  21.6  20.3  19.0  18.2  17.9   0.0   0.0
 2004 018   151  26.2  24.9  23.2  21.5  20.2  18.9  18.1  17.8   0.0   0.0
 2004 019   152  25.1  24.0  22.4  20.9  19.8  18.7  18.0  17.7   0.0   0.0
 2004 020   153  25.2  24.1  22.5  21.0  19.9  18.7  18.0  17.7   0.0   0.0
 2004 021   154  25.6  24.5  22.8  21.2  20.0  18.8  18.1  17.8   0.0   0.0
 2004 022   155  26.2  25.0  23.2  21.5  20.2  18.9  18.2  17.8   0.0   0.0
 2004 023   156  26.7  25.4  23.6  21.8  20.5  19.1  18.3  17.9   0.0   0.0
 2004 024   157  28.0  26.6  24.5  22.5  21.0  19.4  18.5  18.1   0.0   0.0
 2004 025   158  28.5  27.0  24.8  22.8  21.2  19.6  18.6  18.1   0.0   0.0
 2004 026   159  29.0  27.5  25.2  23.0  21.4  19.7  18.6  18.2   0.0   0.0
 2004 027   160  29.2  27.6  25.3  23.2  21.5  19.8  18.7  18.2   0.0   0.0
 2004 028   161  29.2  27.6  25.3  23.1  21.5  19.8  18.7  18.2   0.0   0.0
 2004 029   162  29.7  28.0  25.7  23.4  21.7  19.9  18.8  18.3   0.0   0.0
 2004 030   163  30.8  29.0  26.5  24.0  22.2  20.2  19.0  18.4   0.0   0.0
 2004 031   164  31.1  29.3  26.7  24.2  22.3  20.3  19.0  18.4   0.0   0.0
 2004 032   165  31.0  29.3  26.7  24.2  22.4  20.4  19.1  18.5   0.0   0.0
 2004 033   166  31.1  29.3  26.7  24.3  22.4  20.4  19.1  18.5   0.0   0.0
 2004 034   167  29.2  27.7  25.5  23.3  21.7  19.9  18.8  18.3   0.0   0.0
 2004 035   168  28.0  26.7  24.7  22.7  21.2  19.6  18.6  18.2   0.0   0.0
 2004 036   169  26.9  25.7  23.9  22.2  20.8  19.4  18.4  18.0   0.0   0.0
 2004 037   170  26.3  25.2  23.5  21.9  20.6  19.2  18.4  18.0   0.0   0.0
 2004 038   171  26.1  25.0  23.4  21.8  20.5  19.2  18.3  17.9   0.0   0.0
 2004 039   172  27.0  25.8  24.0  22.3  20.9  19.4  18.5  18.1   0.0   0.0
 2004 040   173  27.0  25.8  24.0  22.3  20.9  19.4  18.5  18.1   0.0   0.0
 2004 041   174  27.4  26.2  24.4  22.5  21.1  19.6  18.6  18.1   0.0   0.0

*DSSAT Cropping System Model Ver. 4.0.2.000               Aug 23, 2016; 20:22:29

*RUN   6        : UYSB                    
 MODEL          : CRGRO040 - Soybean         
 EXPERIMENT     : UYSB0398 SB    late to create DSS                             
 TREATMENT  1   : UYSB                    

@YEAR DOY   DAS  TS1D  TS2D  TS3D  TS4D  TS5D  TS6D  TS7D  TS8D  TS9D  TS10
 2004 232     0  14.1  14.4  14.9  15.5  16.1  16.8  17.2  17.4   0.0   0.0
 2004 233     1  13.9  14.2  14.8  15.4  16.0  16.7  17.1  17.3   0.0   0.0
 2004 234     2  12.7  13.2  14.0  14.8  15.6  16.4  17.0  17.2   0.0   0.0
 2004 235     3  11.5  12.1  13.1  14.2  15.1  16.1  16.7  17.0   0.0   0.0
 2004 236     4  11.1  11.7  12.8  13.9  14.9  15.9  16.6  17.0   0.0   0.0
 2004 237     5  11.6  12.2  13.1  14.2  15.0  16.0  16.7  17.0   0.0   0.0
 2004 238     6  12.1  12.7  13.5  14.4  15.2  16.2  16.8  17.1   0.0   0.0
 2004 239     7  13.6  14.0  14.5  15.2  15.8  16.5  17.0  17.2   0.0   0.0
 2004 240     8  15.6  15.6  15.8  16.2  16.5  17.0  17.3  17.5   0.0   0.0
 2004 241     9  16.9  16.7  16.7  16.8  17.0  17.3  17.5  17.6   0.0   0.0
 2004 242    10  17.8  17.6  17.3  17.3  17.4  17.5  17.7  17.7   0.0   0.0
 2004 243    11  18.7  18.3  17.9  17.7  17.7  17.7  17.8  17.8   0.0   0.0
 2004 244    12  20.2  19.6  18.9  18.5  18.2  18.1  18.0  17.9   0.0   0.0
 2004 245    13  21.9  21.1  20.1  19.3  18.9  18.5  18.3  18.1   0.0   0.0
 2004 246    14  21.7  20.9  19.9  19.2  18.8  18.4  18.2  18.1   0.0   0.0
 2004 247    15  21.1  20.4  19.5  18.9  18.5  18.3  18.1  18.0   0.0   0.0
 2004 248    16  21.8  20.9  20.0  19.2  18.8  18.4  18.2  18.1   0.0   0.0
 2004 249    17  22.8  21.8  20.6  19.7  19.1  18.6  18.3  18.2   0.0   0.0
 2004 250    18  23.7  22.6  21.3  20.2  19.5  18.9  18.5  18.3   0.0   0.0
 2004 251    19  24.3  23.1  21.7  20.5  19.7  19.0  18.6  18.3   0.0   0.0
 2004 252    20  22.8  21.8  20.6  19.7  19.1  18.6  18.3  18.2   0.0   0.0
 2004 253    21  20.3  19.7  18.9  18.4  18.1  18.0  17.9  17.9   0.0   0.0
 2004 254    22  17.2  17.0  16.8  16.8  16.9  17.2  17.4  17.5   0.0   0.0
 2004 255    23  13.8  14.0  14.4  15.0  15.6  16.3  16.8  17.1   0.0   0.0
 2004 256    24  12.4  12.8  13.5  14.3  15.0  15.9  16.6  16.9   0.0   0.0
 2004 257    25  13.2  13.4  14.0  14.6  15.3  16.1  16.7  17.0   0.0   0.0
 2004 258    26  14.4  14.6  14.8  15.3  15.8  16.4  16.9  17.1   0.0   0.0
 2004 259    27  15.2  15.2  15.3  15.6  16.0  16.6  17.0  17.2   0.0   0.0
 2004 260    28  15.6  15.6  15.6  15.9  16.2  16.7  17.1  17.3   0.0   0.0
 2004 261    29  16.7  16.5  16.3  16.4  16.6  16.9  17.2  17.4   0.0   0.0
 2004 262    30  18.7  18.2  17.7  17.4  17.3  17.4  17.5  17.6   0.0   0.0
 2004 263    31  19.4  18.8  18.2  17.8  17.6  17.6  17.6  17.7   0.0   0.0
 2004 264    32  19.0  18.5  17.9  17.6  17.4  17.5  17.5  17.6   0.0   0.0
 2004 265    33  18.8  18.3  17.8  17.5  17.4  17.4  17.5  17.6   0.0   0.0
 2004 266    34  18.7  18.2  17.7  17.4  17.3  17.4  17.5  17.5   0.0   0.0
 2004 267    35  17.7  17.4  17.0  16.9  16.9  17.1  17.3  17.4   0.0   0.0
 2004 268    36  17.8  17.4  17.1  16.9  16.9  17.1  17.3  17.4   0.0   0.0
 2004 269    37  19.5  18.9  18.2  17.8  17.6  17.5  17.6  17.6   0.0   0.0
 2004 270    38  21.0  20.2  19.2  18.5  18.1  17.9  17.8  17.8   0.0   0.0
 2004 271    39  21.4  20.5  19.5  18.7  18.3  18.0  17.8  17.8   0.0   0.0
 2004 272    40  21.4  20.5  19.5  18.7  18.2  17.9  17.8  17.8   0.0   0.0
 2004 273    41  20.3  19.6  18.7  18.1  17.8  17.7  17.6  17.7   0.0   0.0
 2004 274    42  18.5  18.1  17.5  17.2  17.1  17.2  17.4  17.4   0.0   0.0
 2004 275    43  18.3  17.9  17.4  17.1  17.0  17.1  17.3  17.4   0.0   0.0
 2004 276    44  18.6  18.1  17.6  17.2  17.1  17.2  17.3  17.4   0.0   0.0
 2004 277    45  17.7  17.3  16.9  16.8  16.8  16.9  17.2  17.3   0.0   0.0
 2004 278    46  17.7  17.3  16.9  16.7  16.8  16.9  17.2  17.3   0.0   0.0
 2004 279    47  18.6  18.1  17.6  17.2  17.1  17.2  17.3  17.4   0.0   0.0
 2004 280    48  18.1  17.6  17.2  16.9  16.9  17.0  17.2  17.3   0.0   0.0
 2004 281    49  18.0  17.6  17.1  16.9  16.8  17.0  17.2  17.3   0.0   0.0
 2004 282    50  19.5  18.9  18.1  17.6  17.4  17.3  17.4  17.5   0.0   0.0
 2004 283    51  20.8  20.0  19.0  18.3  17.9  17.6  17.6  17.6   0.0   0.0
 2004 284    52  21.2  20.3  19.3  18.5  18.0  17.7  17.7  17.6   0.0   0.0
 2004 285    53  21.7  20.8  19.6  18.8  18.2  17.9  17.7  17.7   0.0   0.0
 2004 286    54  20.7  19.9  18.9  18.2  17.8  17.6  17.6  17.6   0.0   0.0
 2004 287    55  19.8  19.2  18.3  17.8  17.5  17.4  17.4  17.5   0.0   0.0
 2004 288    56  19.3  18.7  18.0  17.5  17.3  17.2  17.3  17.4   0.0   0.0
 2004 289    57  20.3  19.6  18.7  18.0  17.6  17.5  17.5  17.5   0.0   0.0
 2004 290    58  20.2  19.5  18.6  17.9  17.6  17.4  17.4  17.5   0.0   0.0
 2004 291    59  21.7  20.8  19.6  18.7  18.2  17.8  17.7  17.6   0.0   0.0
 2004 292    60  22.2  21.2  20.0  19.0  18.4  17.9  17.7  17.7   0.0   0.0
 2004 293    61  22.1  21.1  19.9  18.9  18.3  17.9  17.7  17.7   0.0   0.0
 2004 294    62  21.0  20.1  19.1  18.3  17.8  17.6  17.5  17.5   0.0   0.0
 2004 295    63  21.4  20.5  19.4  18.5  18.0  17.7  17.6  17.6   0.0   0.0
 2004 296    64  22.0  21.0  19.8  18.8  18.2  17.8  17.7  17.6   0.0   0.0
 2004 297    65  21.7  20.7  19.6  18.6  18.1  17.7  17.6  17.6   0.0   0.0
 2004 298    66  21.4  20.5  19.4  18.5  18.0  17.6  17.5  17.5   0.0   0.0
 2004 299    67  21.6  20.7  19.5  18.6  18.1  17.7  17.6  17.5   0.0   0.0
 2004 300    68  21.2  20.4  19.3  18.4  17.9  17.6  17.5  17.5   0.0   0.0
 2004 301    69  19.5  18.9  18.1  17.5  17.2  17.1  17.2  17.3   0.0   0.0
 2004 302    70  20.5  19.7  18.7  18.0  17.6  17.4  17.4  17.4   0.0   0.0
 2004 303    71  22.3  21.3  20.0  18.9  18.3  17.8  17.6  17.6   0.0   0.0
 2004 304    72  22.0  21.1  19.8  18.8  18.2  17.7  17.6  17.6   0.0   0.0
 2004 305    73  22.3  21.3  20.0  19.0  18.3  17.8  17.6  17.6   0.0   0.0
 2004 306    74  23.7  22.5  21.0  19.7  18.9  18.2  17.8  17.7   0.0   0.0
 2004 307    75  24.7  23.4  21.6  20.2  19.2  18.4  18.0  17.8   0.0   0.0
 2004 308    76  23.4  22.3  20.8  19.5  18.7  18.1  17.8  17.7   0.0   0.0
 2004 309    77  23.6  22.5  20.9  19.6  18.8  18.1  17.8  17.7   0.0   0.0
 2004 310    78  22.4  21.4  20.1  19.0  18.4  17.8  17.6  17.6   0.0   0.0
 2004 311    79  20.9  20.1  19.0  18.2  17.7  17.4  17.3  17.4   0.0   0.0
 2004 312    80  19.2  18.6  17.9  17.4  17.1  17.0  17.1  17.2   0.0   0.0
 2004 313    81  19.5  18.9  18.1  17.5  17.2  17.0  17.1  17.2   0.0   0.0
 2004 314    82  19.2  18.6  17.9  17.3  17.1  17.0  17.0  17.1   0.0   0.0
 2004 315    83  19.9  19.2  18.3  17.7  17.3  17.1  17.1  17.2   0.0   0.0
 2004 316    84  20.0  19.3  18.4  17.8  17.4  17.1  17.2  17.2   0.0   0.0
 2004 317    85  19.7  19.1  18.3  17.6  17.3  17.1  17.1  17.2   0.0   0.0
 2004 318    86  19.1  18.5  17.8  17.3  17.0  16.9  17.0  17.1   0.0   0.0
 2004 319    87  19.5  18.9  18.1  17.5  17.2  17.0  17.1  17.2   0.0   0.0
 2004 320    88  20.4  19.7  18.7  18.0  17.5  17.2  17.2  17.3   0.0   0.0
 2004 321    89  21.2  20.4  19.3  18.4  17.9  17.4  17.3  17.3   0.0   0.0
 2004 322    90  22.0  21.0  19.8  18.8  18.1  17.6  17.5  17.4   0.0   0.0
 2004 323    91  22.4  21.4  20.1  19.0  18.3  17.7  17.5  17.5   0.0   0.0
 2004 324    92  22.2  21.3  20.0  18.9  18.2  17.7  17.5  17.4   0.0   0.0
 2004 325    93  21.5  20.6  19.5  18.6  18.0  17.5  17.4  17.4   0.0   0.0
 2004 326    94  21.7  20.8  19.6  18.6  18.0  17.5  17.4  17.4   0.0   0.0
 2004 327    95  22.3  21.4  20.1  19.0  18.3  17.7  17.5  17.4   0.0   0.0
 2004 328    96  24.1  22.9  21.3  19.9  19.0  18.2  17.8  17.6   0.0   0.0
 2004 329    97  25.0  23.7  21.9  20.3  19.3  18.4  17.9  17.7   0.0   0.0
 2004 330    98  25.4  24.1  22.2  20.6  19.5  18.5  18.0  17.8   0.0   0.0
 2004 331    99  25.8  24.4  22.4  20.8  19.6  18.6  18.0  17.8   0.0   0.0
 2004 332   100  25.5  24.1  22.2  20.6  19.5  18.5  18.0  17.8   0.0   0.0
 2004 333   101  24.4  23.1  21.5  20.0  19.0  18.2  17.8  17.6   0.0   0.0
 2004 334   102  24.6  23.4  21.7  20.2  19.2  18.3  17.8  17.7   0.0   0.0
 2004 335   103  25.1  23.8  22.0  20.4  19.3  18.4  17.9  17.7   0.0   0.0
 2004 336   104  25.6  24.2  22.3  20.7  19.5  18.5  18.0  17.8   0.0   0.0
 2004 337   105  27.1  25.5  23.4  21.5  20.1  18.9  18.2  17.9   0.0   0.0
 2004 338   106  28.3  26.5  24.2  22.1  20.6  19.2  18.4  18.1   0.0   0.0
 2004 339   107  28.5  26.8  24.4  22.2  20.7  19.2  18.4  18.1   0.0   0.0
 2004 340   108  29.4  27.5  25.0  22.6  21.0  19.4  18.5  18.2   0.0   0.0
 2004 341   109  29.2  27.3  24.8  22.5  20.9  19.4  18.5  18.2   0.0   0.0
 2004 342   110  27.6  25.9  23.7  21.7  20.3  19.0  18.3  18.0   0.0   0.0
 2004 343   111  26.6  25.1  23.1  21.2  19.9  18.8  18.1  17.9   0.0   0.0
 2004 344   112  26.0  24.6  22.7  21.0  19.7  18.6  18.0  17.8   0.0   0.0
 2004 345   113  25.1  23.8  22.1  20.5  19.4  18.4  17.9  17.7   0.0   0.0
 2004 346   114  24.6  23.4  21.7  20.2  19.2  18.3  17.8  17.6   0.0   0.0
 2004 347   115  25.2  23.9  22.1  20.5  19.4  18.4  17.9  17.7   0.0   0.0
 2004 348   116  25.8  24.4  22.5  20.9  19.7  18.6  18.0  17.8   0.0   0.0
 2004 349   117  26.6  25.1  23.1  21.3  20.0  18.8  18.1  17.8   0.0   0.0
 2004 350   118  27.7  26.1  23.9  21.8  20.4  19.0  18.3  18.0   0.0   0.0
 2004 351   119  28.2  26.5  24.2  22.1  20.6  19.2  18.4  18.0   0.0   0.0
 2004 352   120  27.7  26.1  23.9  21.9  20.5  19.1  18.3  18.0   0.0   0.0
 2004 353   121  27.3  25.8  23.6  21.7  20.3  19.0  18.2  17.9   0.0   0.0
 2004 354   122  26.6  25.2  23.2  21.4  20.0  18.8  18.1  17.8   0.0   0.0
 2004 355   123  25.5  24.2  22.4  20.8  19.6  18.5  17.9  17.7   0.0   0.0
 2004 356   124  25.2  23.9  22.2  20.6  19.5  18.4  17.9  17.7   0.0   0.0
 2004 357   125  25.3  24.1  22.3  20.7  19.6  18.5  17.9  17.7   0.0   0.0
 2004 358   126  24.9  23.7  22.0  20.5  19.4  18.4  17.8  17.6   0.0   0.0
 2004 359   127  25.2  24.0  22.3  20.7  19.6  18.5  17.9  17.7   0.0   0.0
 2004 360   128  25.5  24.3  22.5  20.9  19.7  18.6  18.0  17.7   0.0   0.0
 2004 361   129  25.7  24.4  22.6  20.9  19.8  18.6  18.0  17.7   0.0   0.0
 2004 362   130  25.8  24.5  22.7  21.0  19.8  18.7  18.0  17.8   0.0   0.0
 2004 363   131  26.3  25.0  23.1  21.3  20.0  18.8  18.1  17.8   0.0   0.0
 2004 364   132  26.3  24.9  23.0  21.3  20.0  18.8  18.1  17.8   0.0   0.0
 2004 365   133  26.8  25.4  23.4  21.6  20.2  18.9  18.2  17.9   0.0   0.0
 2004 366   134  28.0  26.4  24.2  22.2  20.7  19.2  18.3  18.0   0.0   0.0
 2005 001   135  28.6  27.0  24.6  22.5  20.9  19.4  18.4  18.1   0.0   0.0
 2005 002   136  29.1  27.4  25.0  22.7  21.1  19.5  18.5  18.1   0.0   0.0
 2005 003   137  29.5  27.7  25.2  22.9  21.2  19.6  18.6  18.2   0.0   0.0
 2005 004   138  29.9  28.1  25.5  23.2  21.5  19.7  18.7  18.2   0.0   0.0
 2005 005   139  30.1  28.2  25.7  23.3  21.5  19.8  18.7  18.3   0.0   0.0
 2005 006   140  31.0  29.0  26.3  23.8  21.9  20.0  18.9  18.4   0.0   0.0
 2005 007   141  31.9  29.8  26.9  24.3  22.3  20.2  19.0  18.5   0.0   0.0
 2005 008   142  32.9  30.7  27.6  24.8  22.6  20.5  19.1  18.6   0.0   0.0
 2005 009   143  32.2  30.1  27.1  24.4  22.4  20.3  19.0  18.5   0.0   0.0
 2005 010   144  31.6  29.6  26.7  24.1  22.2  20.2  19.0  18.4   0.0   0.0
 2005 011   145  31.1  29.2  26.4  23.9  22.0  20.1  18.9  18.4   0.0   0.0
 2005 012   146  30.7  28.9  26.2  23.7  21.9  20.0  18.8  18.3   0.0   0.0
 2005 013   147  30.3  28.5  25.9  23.5  21.7  19.9  18.7  18.3   0.0   0.0
 2005 014   148  31.7  29.7  26.9  24.2  22.2  20.2  19.0  18.4   0.0   0.0
 2005 015   149  31.5  29.5  26.7  24.1  22.2  20.2  19.0  18.4   0.0   0.0
 2005 016   150  30.9  29.0  26.4  23.9  22.0  20.1  18.9  18.4   0.0   0.0
 2005 017   151  30.6  28.7  26.1  23.7  21.9  20.0  18.8  18.3   0.0   0.0
 2005 018   152  30.5  28.7  26.1  23.7  21.8  20.0  18.8  18.3   0.0   0.0
 2005 019   153  30.0  28.2  25.8  23.4  21.6  19.8  18.7  18.3   0.0   0.0
 2005 020   154  29.3  27.7  25.3  23.1  21.4  19.7  18.6  18.2   0.0   0.0
 2005 021   155  29.3  27.7  25.4  23.1  21.5  19.7  18.7  18.2   0.0   0.0
 2005 022   156  29.7  28.0  25.6  23.3  21.6  19.8  18.7  18.2   0.0   0.0
 2005 023   157  30.4  28.6  26.1  23.7  21.9  20.0  18.8  18.3   0.0   0.0
 2005 024   158  31.1  29.2  26.6  24.0  22.1  20.2  18.9  18.4   0.0   0.0
 2005 025   159  31.3  29.4  26.7  24.2  22.2  20.2  19.0  18.4   0.0   0.0
 2005 026   160  31.0  29.2  26.5  24.1  22.2  20.2  19.0  18.4   0.0   0.0
 2005 027   161  30.1  28.4  26.0  23.6  21.8  20.0  18.8  18.3   0.0   0.0
 2005 028   162  29.4  27.8  25.5  23.2  21.6  19.8  18.7  18.2   0.0   0.0
 2005 029   163  28.9  27.4  25.2  23.0  21.4  19.7  18.6  18.2   0.0   0.0
 2005 030   164  28.6  27.1  25.0  22.9  21.3  19.6  18.6  18.1   0.0   0.0
 2005 031   165  27.7  26.3  24.4  22.5  21.0  19.5  18.5  18.1   0.0   0.0
 2005 032   166  26.5  25.3  23.6  21.9  20.6  19.2  18.3  18.0   0.0   0.0
 2005 033   167  24.8  23.9  22.5  21.1  20.0  18.8  18.1  17.8   0.0   0.0
 2005 034   168  23.5  22.7  21.6  20.4  19.5  18.5  17.9  17.6   0.0   0.0
 2005 035   169  24.0  23.1  21.9  20.6  19.7  18.6  18.0  17.7   0.0   0.0
 2005 036   170  25.6  24.6  23.0  21.5  20.3  19.0  18.2  17.9   0.0   0.0
 2005 037   171  27.5  26.2  24.3  22.5  21.0  19.5  18.5  18.1   0.0   0.0
 2005 038   172  28.7  27.3  25.2  23.1  21.5  19.8  18.7  18.2   0.0   0.0
[...]
 2012 303    71  25.2  23.8  21.9  20.4  19.4  18.5  18.1  17.9   0.0   0.0
 2012 304    72  24.8  23.5  21.7  20.3  19.3  18.5  18.0  17.9   0.0   0.0
 2012 305    73  24.0  22.8  21.2  19.8  19.0  18.2  17.9  17.8   0.0   0.0
 2012 306    74  22.9  21.9  20.4  19.3  18.5  18.0  17.7  17.6   0.0   0.0
 2012 307    75  22.9  21.9  20.4  19.3  18.5  18.0  17.7  17.6   0.0   0.0
 2012 308    76  24.1  22.8  21.2  19.9  19.0  18.2  17.9  17.8   0.0   0.0
 2012 309    77  25.2  23.8  22.0  20.4  19.4  18.5  18.1  17.9   0.0   0.0
 2012 310    78  27.0  25.3  23.2  21.3  20.1  18.9  18.3  18.1   0.0   0.0
 2012 311    79  28.5  26.6  24.2  22.1  20.6  19.3  18.6  18.2   0.0   0.0
 2012 312    80  29.1  27.2  24.6  22.4  20.9  19.5  18.6  18.3   0.0   0.0
 2012 313    81  29.7  27.7  25.1  22.7  21.1  19.6  18.7  18.4   0.0   0.0
 2012 314    82  30.2  28.1  25.4  23.0  21.3  19.7  18.8  18.4   0.0   0.0
 2012 315    83  28.3  26.5  24.0  22.0  20.5  19.2  18.5  18.2   0.0   0.0
 2012 316    84  25.9  24.4  22.4  20.7  19.6  18.6  18.1  17.9   0.0   0.0
 2012 317    85  24.2  22.9  21.3  19.9  19.0  18.2  17.8  17.7   0.0   0.0
 2012 318    86  22.2  21.2  19.9  18.8  18.2  17.7  17.5  17.5   0.0   0.0
 2012 319    87  20.6  19.8  18.8  18.0  17.6  17.3  17.2  17.3   0.0   0.0
 2012 320    88  21.3  20.4  19.3  18.4  17.9  17.5  17.4  17.4   0.0   0.0
 2012 321    89  22.8  21.7  20.3  19.2  18.4  17.8  17.6  17.5   0.0   0.0
 2012 322    90  24.1  22.8  21.2  19.8  18.9  18.1  17.8  17.7   0.0   0.0
 2012 323    91  25.7  24.3  22.4  20.7  19.6  18.6  18.0  17.8   0.0   0.0
 2012 324    92  26.8  25.2  23.1  21.3  20.0  18.8  18.2  18.0   0.0   0.0
 2012 325    93  27.6  25.9  23.6  21.6  20.3  19.0  18.3  18.0   0.0   0.0
 2012 326    94  28.1  26.3  24.0  21.9  20.5  19.1  18.4  18.1   0.0   0.0
 2012 327    95  28.1  26.3  24.0  21.9  20.4  19.1  18.4  18.1   0.0   0.0
 2012 328    96  27.1  25.5  23.3  21.4  20.1  18.9  18.2  18.0   0.0   0.0
 2012 329    97  26.5  24.9  22.9  21.1  19.8  18.7  18.1  17.9   0.0   0.0
 2012 330    98  25.5  24.1  22.2  20.6  19.5  18.5  18.0  17.8   0.0   0.0
 2012 331    99  25.2  23.9  22.0  20.5  19.4  18.4  17.9  17.7   0.0   0.0
 2012 332   100  25.8  24.3  22.4  20.7  19.6  18.5  18.0  17.8   0.0   0.0
 2012 333   101  27.1  25.5  23.3  21.4  20.1  18.9  18.2  17.9   0.0   0.0
 2012 334   102  27.7  26.0  23.7  21.7  20.3  19.0  18.3  18.0   0.0   0.0
 2012 335   103  28.5  26.7  24.3  22.1  20.6  19.2  18.4  18.1   0.0   0.0
 2012 336   104  27.9  26.2  23.9  21.9  20.4  19.1  18.3  18.0   0.0   0.0
 2012 337   105  28.3  26.5  24.2  22.1  20.6  19.2  18.4  18.1   0.0   0.0
 2012 338   106  28.6  26.8  24.4  22.2  20.7  19.2  18.4  18.1   0.0   0.0
 2012 339   107  28.4  26.6  24.2  22.1  20.6  19.2  18.4  18.1   0.0   0.0
 2012 340   108  29.1  27.3  24.7  22.5  20.9  19.4  18.5  18.1   0.0   0.0
 2012 341   109  29.9  28.0  25.3  23.0  21.3  19.6  18.6  18.3   0.0   0.0
 2012 342   110  29.1  27.3  24.9  22.6  21.0  19.5  18.6  18.2   0.0   0.0
 2012 343   111  28.0  26.4  24.1  22.1  20.6  19.2  18.4  18.1   0.0   0.0
 2012 344   112  28.8  27.0  24.6  22.4  20.9  19.4  18.5  18.1   0.0   0.0
 2012 345   113  29.2  27.4  24.9  22.6  21.0  19.5  18.5  18.2   0.0   0.0
 2012 346   114  29.2  27.5  25.0  22.7  21.1  19.5  18.6  18.2   0.0   0.0
 2012 347   115  29.3  27.5  25.0  22.7  21.1  19.5  18.6  18.2   0.0   0.0
 2012 348   116  29.7  27.8  25.3  22.9  21.3  19.6  18.6  18.2   0.0   0.0
 2012 349   117  29.4  27.6  25.1  22.8  21.1  19.5  18.6  18.2   0.0   0.0
 2012 350   118  28.9  27.1  24.7  22.5  20.9  19.4  18.5  18.1   0.0   0.0
 2012 351   119  29.3  27.5  25.0  22.7  21.1  19.5  18.6  18.2   0.0   0.0
 2012 352   120  28.7  27.0  24.6  22.4  20.9  19.3  18.5  18.1   0.0   0.0
 2012 353   121  27.2  25.7  23.6  21.7  20.3  19.0  18.2  17.9   0.0   0.0
 2012 354   122  26.9  25.4  23.4  21.5  20.2  18.9  18.2  17.9   0.0   0.0
 2012 355   123  25.5  24.2  22.4  20.8  19.7  18.6  18.0  17.7   0.0   0.0
 2012 356   124  24.2  23.1  21.6  20.2  19.2  18.3  17.8  17.6   0.0   0.0
 2012 357   125  25.2  24.0  22.3  20.7  19.6  18.5  17.9  17.7   0.0   0.0
 2012 358   126  26.9  25.5  23.4  21.6  20.2  18.9  18.2  17.9   0.0   0.0
 2012 359   127  28.3  26.7  24.4  22.3  20.8  19.3  18.4  18.1   0.0   0.0
 2012 360   128  30.4  28.5  25.8  23.4  21.6  19.8  18.7  18.3   0.0   0.0
 2012 361   129  30.0  28.2  25.6  23.2  21.5  19.7  18.7  18.2   0.0   0.0
 2012 362   130  28.7  27.0  24.7  22.5  21.0  19.4  18.5  18.1   0.0   0.0
 2012 363   131  27.6  26.1  24.0  22.0  20.6  19.1  18.3  18.0   0.0   0.0
 2012 364   132  26.4  25.0  23.1  21.4  20.1  18.8  18.1  17.8   0.0   0.0
 2012 365   133  26.0  24.7  22.9  21.2  19.9  18.7  18.0  17.8   0.0   0.0
 2012 366   134  27.5  26.0  23.9  22.0  20.5  19.1  18.3  18.0   0.0   0.0
 2013 001   135  27.5  26.1  24.0  22.0  20.6  19.2  18.3  18.0   0.0   0.0
 2013 002   136  26.7  25.3  23.4  21.6  20.3  19.0  18.2  17.9   0.0   0.0
 2013 003   137  26.1  24.8  23.0  21.3  20.0  18.8  18.1  17.8   0.0   0.0
 2013 004   138  26.0  24.7  22.9  21.2  20.0  18.8  18.1  17.8   0.0   0.0
 2013 005   139  24.7  23.6  22.0  20.6  19.5  18.4  17.9  17.6   0.0   0.0
 2013 006   140  25.3  24.1  22.4  20.9  19.7  18.6  18.0  17.7   0.0   0.0
 2013 007   141  25.7  24.5  22.7  21.1  19.9  18.7  18.0  17.8   0.0   0.0
 2013 008   142  26.5  25.2  23.3  21.5  20.2  18.9  18.2  17.9   0.0   0.0
 2013 009   143  26.1  24.8  23.0  21.3  20.1  18.8  18.1  17.8   0.0   0.0
 2013 010   144  27.1  25.7  23.7  21.8  20.5  19.1  18.3  17.9   0.0   0.0
 2013 011   145  27.7  26.2  24.1  22.2  20.7  19.2  18.4  18.0   0.0   0.0
 2013 012   146  28.5  26.9  24.7  22.6  21.0  19.4  18.5  18.1   0.0   0.0
 2013 013   147  28.2  26.6  24.5  22.4  20.9  19.4  18.4  18.1   0.0   0.0
 2013 014   148  28.0  26.5  24.4  22.4  20.9  19.3  18.4  18.0   0.0   0.0
 2013 015   149  28.0  26.5  24.4  22.4  20.9  19.4  18.4  18.0   0.0   0.0
 2013 016   150  28.2  26.7  24.6  22.5  21.0  19.4  18.5  18.1   0.0   0.0
 2013 017   151  27.6  26.2  24.2  22.2  20.8  19.3  18.4  18.0   0.0   0.0
 2013 018   152  27.8  26.3  24.3  22.3  20.8  19.3  18.4  18.0   0.0   0.0
 2013 019   153  27.5  26.1  24.1  22.2  20.8  19.3  18.4  18.0   0.0   0.0
 2013 020   154  27.0  25.7  23.8  21.9  20.6  19.2  18.3  17.9   0.0   0.0
 2013 021   155  26.7  25.4  23.5  21.8  20.4  19.1  18.2  17.9   0.0   0.0
 2013 022   156  27.6  26.2  24.2  22.3  20.8  19.3  18.4  18.0   0.0   0.0
 2013 023   157  27.8  26.4  24.3  22.4  20.9  19.4  18.4  18.0   0.0   0.0
 2013 024   158  27.8  26.4  24.4  22.4  20.9  19.4  18.5  18.1   0.0   0.0
 2013 025   159  27.3  26.0  24.1  22.2  20.8  19.3  18.4  18.0   0.0   0.0
 2013 026   160  26.7  25.5  23.7  21.9  20.5  19.2  18.3  17.9   0.0   0.0
 2013 027   161  26.4  25.2  23.4  21.7  20.4  19.1  18.3  17.9   0.0   0.0

*DSSAT Cropping System Model Ver. 4.0.2.000               Aug 23, 2016; 20:22:29

*RUN  15        : UYSB                    
 MODEL          : CRGRO040 - Soybean         
 EXPERIMENT     : UYSB0398 SB    late to create DSS                             
 TREATMENT  1   : UYSB                    

@YEAR DOY   DAS  TS1D  TS2D  TS3D  TS4D  TS5D  TS6D  TS7D  TS8D  TS9D  TS10
 2013 232     0  21.6  20.9  20.0  19.4  19.0  18.6  18.4  18.2   0.0   0.0
 2013 233     1  21.5  20.8  20.0  19.3  18.9  18.6  18.3  18.2   0.0   0.0
 2013 234     2  20.0  19.5  18.9  18.6  18.4  18.2  18.1  18.0   0.0   0.0
 2013 235     3  17.3  17.2  17.1  17.2  17.3  17.5  17.7  17.7   0.0   0.0
 2013 236     4  14.5  14.7  15.2  15.7  16.2  16.8  17.2  17.4   0.0   0.0
 2013 237     5  11.8  12.4  13.3  14.3  15.1  16.1  16.8  17.0   0.0   0.0
 2013 238     6   9.3  10.2  11.5  13.0  14.1  15.4  16.3  16.8   0.0   0.0
 2013 239     7   8.6   9.6  11.1  12.6  13.9  15.3  16.2  16.7   0.0   0.0
 2013 240     8  10.4  11.1  12.3  13.5  14.5  15.7  16.5  16.9   0.0   0.0
 2013 241     9  13.0  13.4  14.1  14.8  15.5  16.3  16.9  17.1   0.0   0.0
 2013 242    10  15.9  15.9  16.0  16.3  16.6  17.0  17.3  17.5   0.0   0.0
 2013 243    11  19.0  18.6  18.2  17.9  17.8  17.8  17.8  17.8   0.0   0.0
 2013 244    12  21.4  20.7  19.8  19.1  18.7  18.4  18.2  18.1   0.0   0.0
 2013 245    13  22.8  21.9  20.7  19.8  19.2  18.7  18.4  18.2   0.0   0.0
 2013 246    14  21.6  20.8  19.8  19.1  18.7  18.4  18.2  18.1   0.0   0.0
 2013 247    15  19.7  19.1  18.5  18.2  18.0  17.9  17.9  17.9   0.0   0.0
 2013 248    16  18.2  17.9  17.5  17.4  17.4  17.5  17.6  17.7   0.0   0.0
 2013 249    17  18.1  17.8  17.5  17.3  17.4  17.5  17.6  17.7   0.0   0.0
 2013 250    18  18.8  18.4  17.9  17.7  17.6  17.6  17.7  17.7   0.0   0.0
 2013 251    19  20.4  19.8  19.0  18.5  18.2  18.0  17.9  17.9   0.0   0.0
 2013 252    20  23.1  22.1  20.8  19.8  19.2  18.7  18.4  18.2   0.0   0.0
 2013 253    21  26.0  24.6  22.8  21.3  20.3  19.4  18.8  18.5   0.0   0.0
 2013 254    22  27.6  26.0  23.9  22.1  20.9  19.8  19.0  18.7   0.0   0.0
 2013 255    23  28.6  26.8  24.5  22.6  21.3  20.0  19.2  18.8   0.0   0.0
 2013 256    24  27.7  26.0  23.9  22.1  20.9  19.8  19.0  18.7   0.0   0.0
 2013 257    25  24.8  23.5  21.9  20.6  19.8  19.0  18.6  18.3   0.0   0.0
 2013 258    26  21.6  20.7  19.7  19.0  18.5  18.2  18.0  18.0   0.0   0.0
 2013 259    27  18.5  18.0  17.6  17.4  17.3  17.4  17.5  17.6   0.0   0.0
 2013 260    28  14.1  14.3  14.6  15.1  15.6  16.3  16.8  17.1   0.0   0.0
 2013 261    29  13.2  13.5  14.0  14.6  15.2  16.0  16.6  16.9   0.0   0.0
 2013 262    30  14.2  14.4  14.7  15.1  15.6  16.3  16.8  17.1   0.0   0.0
 2013 263    31  15.2  15.2  15.3  15.6  16.0  16.5  17.0  17.2   0.0   0.0
 2013 264    32  15.8  15.7  15.7  15.9  16.2  16.6  17.0  17.2   0.0   0.0
 2013 265    33  16.7  16.4  16.3  16.3  16.5  16.9  17.2  17.3   0.0   0.0
 2013 266    34  16.1  16.0  15.9  16.1  16.3  16.7  17.1  17.2   0.0   0.0
 2013 267    35  14.8  14.9  15.0  15.4  15.8  16.4  16.8  17.1   0.0   0.0
 2013 268    36  14.0  14.1  14.4  14.9  15.4  16.1  16.7  17.0   0.0   0.0
 2013 269    37  13.7  13.8  14.2  14.8  15.3  16.0  16.6  16.9   0.0   0.0
 2013 270    38  14.6  14.6  14.8  15.2  15.6  16.3  16.8  17.0   0.0   0.0
 2013 271    39  16.3  16.1  16.0  16.1  16.3  16.7  17.0  17.2   0.0   0.0
 2013 272    40  17.7  17.3  16.9  16.8  16.8  17.0  17.2  17.4   0.0   0.0
 2013 273    41  18.0  17.6  17.2  16.9  16.9  17.1  17.3  17.4   0.0   0.0
 2013 274    42  18.3  17.8  17.4  17.1  17.0  17.1  17.3  17.4   0.0   0.0
 2013 275    43  17.9  17.5  17.1  16.9  16.9  17.0  17.2  17.4   0.0   0.0
 2013 276    44  17.8  17.4  17.0  16.8  16.8  17.0  17.2  17.3   0.0   0.0
 2013 277    45  17.6  17.2  16.8  16.7  16.7  16.9  17.2  17.3   0.0   0.0
 2013 278    46  17.5  17.1  16.8  16.6  16.7  16.9  17.1  17.3   0.0   0.0
 2013 279    47  17.6  17.2  16.8  16.7  16.7  16.9  17.1  17.3   0.0   0.0
 2013 280    48  18.4  17.9  17.4  17.1  17.0  17.1  17.3  17.4   0.0   0.0
 2013 281    49  19.2  18.6  18.0  17.5  17.3  17.3  17.4  17.5   0.0   0.0
 2013 282    50  20.7  19.9  19.0  18.3  17.9  17.6  17.6  17.6   0.0   0.0
 2013 283    51  22.3  21.3  20.0  19.1  18.5  18.0  17.8  17.8   0.0   0.0
 2013 284    52  22.7  21.6  20.3  19.2  18.6  18.1  17.9  17.8   0.0   0.0
 2013 285    53  22.1  21.1  19.9  18.9  18.4  17.9  17.8  17.7   0.0   0.0
 2013 286    54  21.5  20.6  19.5  18.6  18.1  17.8  17.7  17.7   0.0   0.0
 2013 287    55  21.4  20.5  19.4  18.6  18.1  17.7  17.6  17.6   0.0   0.0
 2013 288    56  21.4  20.6  19.4  18.6  18.1  17.8  17.6  17.6   0.0   0.0
 2013 289    57  21.7  20.8  19.6  18.7  18.2  17.8  17.7  17.7   0.0   0.0
 2013 290    58  22.6  21.6  20.2  19.2  18.5  18.0  17.8  17.8   0.0   0.0
 2013 291    59  23.4  22.3  20.8  19.6  18.8  18.2  17.9  17.8   0.0   0.0
 2013 292    60  23.7  22.5  20.9  19.7  18.9  18.3  18.0  17.9   0.0   0.0
 2013 293    61  24.1  22.9  21.3  19.9  19.1  18.4  18.0  17.9   0.0   0.0
 2013 294    62  24.4  23.1  21.5  20.1  19.2  18.4  18.1  17.9   0.0   0.0
 2013 295    63  24.1  22.8  21.2  19.9  19.0  18.3  18.0  17.9   0.0   0.0
 2013 296    64  23.3  22.2  20.7  19.5  18.8  18.2  17.9  17.8   0.0   0.0
 2013 297    65  22.4  21.4  20.1  19.0  18.4  17.9  17.7  17.7   0.0   0.0
 2013 298    66  20.6  19.8  18.9  18.1  17.7  17.4  17.4  17.4   0.0   0.0
 2013 299    67  19.9  19.2  18.4  17.7  17.4  17.2  17.3  17.4   0.0   0.0
 2013 300    68  20.1  19.4  18.5  17.8  17.5  17.3  17.3  17.4   0.0   0.0
 2013 301    69  20.2  19.5  18.6  17.9  17.5  17.3  17.3  17.4   0.0   0.0
 2013 302    70  20.8  20.0  19.0  18.2  17.8  17.5  17.4  17.4   0.0   0.0
 2013 303    71  22.0  21.0  19.8  18.8  18.2  17.7  17.6  17.6   0.0   0.0
 2013 304    72  22.4  21.3  20.0  19.0  18.3  17.8  17.6  17.6   0.0   0.0
 2013 305    73  22.9  21.8  20.4  19.3  18.5  18.0  17.7  17.7   0.0   0.0
 2013 306    74  23.1  22.0  20.6  19.4  18.6  18.0  17.7  17.7   0.0   0.0
 2013 307    75  22.7  21.7  20.3  19.2  18.5  17.9  17.7  17.6   0.0   0.0
 2013 308    76  22.0  21.1  19.8  18.8  18.2  17.7  17.6  17.5   0.0   0.0
 2013 309    77  21.9  21.0  19.8  18.8  18.1  17.7  17.5  17.5   0.0   0.0
 2013 310    78  22.0  21.0  19.8  18.8  18.1  17.7  17.5  17.5   0.0   0.0
 2013 311    79  23.1  22.0  20.5  19.3  18.6  18.0  17.7  17.6   0.0   0.0
 2013 312    80  23.9  22.7  21.1  19.7  18.9  18.1  17.8  17.7   0.0   0.0
 2013 313    81  24.2  22.9  21.3  19.9  19.0  18.2  17.9  17.7   0.0   0.0
 2013 314    82  23.9  22.7  21.1  19.8  18.9  18.1  17.8  17.7   0.0   0.0
 2013 315    83  23.6  22.4  20.9  19.6  18.8  18.1  17.8  17.7   0.0   0.0
 2013 316    84  23.2  22.1  20.7  19.4  18.6  18.0  17.7  17.6   0.0   0.0
 2013 317    85  23.1  22.0  20.6  19.4  18.6  17.9  17.7  17.6   0.0   0.0
 2013 318    86  24.6  23.3  21.6  20.1  19.1  18.3  17.9  17.8   0.0   0.0
 2013 319    87  25.0  23.6  21.8  20.3  19.3  18.4  17.9  17.8   0.0   0.0
 2013 320    88  24.8  23.5  21.8  20.3  19.3  18.4  17.9  17.8   0.0   0.0
 2013 321    89  24.3  23.0  21.4  20.0  19.0  18.2  17.8  17.7   0.0   0.0
 2013 322    90  25.2  23.8  22.0  20.4  19.4  18.4  18.0  17.8   0.0   0.0
 2013 323    91  23.5  22.4  20.9  19.6  18.7  18.0  17.7  17.6   0.0   0.0
 2013 324    92  23.5  22.4  20.9  19.6  18.7  18.0  17.7  17.6   0.0   0.0
 2013 325    93  23.8  22.6  21.1  19.7  18.8  18.1  17.7  17.6   0.0   0.0
 2013 326    94  24.0  22.8  21.2  19.9  18.9  18.1  17.8  17.6   0.0   0.0
 2013 327    95  23.4  22.3  20.8  19.5  18.7  18.0  17.6  17.6   0.0   0.0
 2013 328    96  24.9  23.6  21.8  20.3  19.3  18.4  17.9  17.7   0.0   0.0
 2013 329    97  26.3  24.9  22.8  21.1  19.8  18.7  18.1  17.9   0.0   0.0
 2013 330    98  26.9  25.3  23.2  21.3  20.0  18.9  18.2  18.0   0.0   0.0
 2013 331    99  27.2  25.6  23.4  21.5  20.2  18.9  18.2  18.0   0.0   0.0
 2013 332   100  26.7  25.2  23.1  21.3  20.0  18.8  18.2  17.9   0.0   0.0
 2013 333   101  26.4  24.9  22.9  21.1  19.9  18.7  18.1  17.9   0.0   0.0
 2013 334   102  25.9  24.5  22.6  20.9  19.7  18.6  18.0  17.8   0.0   0.0
 2013 335   103  25.9  24.5  22.6  20.9  19.7  18.6  18.0  17.8   0.0   0.0
 2013 336   104  26.6  25.1  23.1  21.2  20.0  18.8  18.1  17.9   0.0   0.0
 2013 337   105  26.7  25.2  23.1  21.3  20.0  18.8  18.1  17.9   0.0   0.0
 2013 338   106  27.2  25.6  23.4  21.5  20.2  18.9  18.2  17.9   0.0   0.0
 2013 339   107  26.9  25.4  23.3  21.4  20.1  18.9  18.2  17.9   0.0   0.0
 2013 340   108  26.3  24.8  22.8  21.1  19.8  18.7  18.1  17.8   0.0   0.0
 2013 341   109  26.1  24.7  22.7  21.0  19.8  18.6  18.0  17.8   0.0   0.0
 2013 342   110  27.7  26.1  23.8  21.8  20.4  19.0  18.3  18.0   0.0   0.0
 2013 343   111  27.3  25.8  23.6  21.6  20.3  19.0  18.2  18.0   0.0   0.0
 2013 344   112  26.9  25.4  23.3  21.4  20.1  18.9  18.2  17.9   0.0   0.0
 2013 345   113  27.4  25.8  23.6  21.7  20.3  19.0  18.2  17.9   0.0   0.0
 2013 346   114  27.0  25.5  23.4  21.5  20.1  18.9  18.2  17.9   0.0   0.0
 2013 347   115  26.5  25.0  23.0  21.2  19.9  18.7  18.1  17.8   0.0   0.0
 2013 348   116  27.4  25.8  23.6  21.7  20.3  19.0  18.2  17.9   0.0   0.0
 2013 349   117  28.8  27.0  24.6  22.4  20.8  19.3  18.4  18.1   0.0   0.0
 2013 350   118  30.4  28.5  25.7  23.3  21.5  19.8  18.7  18.3   0.0   0.0
 2013 351   119  31.4  29.3  26.4  23.8  21.9  20.0  18.9  18.4   0.0   0.0
 2013 352   120  31.5  29.4  26.5  23.9  21.9  20.0  18.9  18.4   0.0   0.0
 2013 353   121  31.2  29.2  26.3  23.7  21.8  19.9  18.8  18.4   0.0   0.0
 2013 354   122  31.0  28.9  26.1  23.6  21.7  19.9  18.8  18.3   0.0   0.0
 2013 355   123  30.7  28.7  26.0  23.4  21.6  19.8  18.7  18.3   0.0   0.0
 2013 356   124  30.5  28.5  25.8  23.4  21.6  19.8  18.7  18.3   0.0   0.0
 2013 357   125  30.8  28.8  26.1  23.5  21.7  19.9  18.8  18.3   0.0   0.0
 2013 358   126  31.4  29.3  26.5  23.8  21.9  20.0  18.9  18.4   0.0   0.0
 2013 359   127  32.2  30.1  27.0  24.3  22.2  20.2  19.0  18.5   0.0   0.0
 2013 360   128  33.2  30.9  27.7  24.8  22.6  20.5  19.1  18.6   0.0   0.0
 2013 361   129  34.0  31.6  28.3  25.2  23.0  20.7  19.3  18.7   0.0   0.0
 2013 362   130  34.1  31.7  28.3  25.3  23.0  20.7  19.3  18.7   0.0   0.0
 2013 363   131  34.2  31.8  28.4  25.3  23.0  20.7  19.3  18.7   0.0   0.0
 2013 364   132  34.7  32.2  28.8  25.6  23.2  20.9  19.4  18.7   0.0   0.0
 2013 365   133  32.9  30.6  27.5  24.7  22.5  20.4  19.1  18.5   0.0   0.0
 2014 001   134  32.7  30.4  27.4  24.5  22.4  20.3  19.1  18.5   0.0   0.0
 2014 002   135  32.6  30.4  27.3  24.5  22.4  20.3  19.0  18.5   0.0   0.0
 2014 003   136  31.2  29.2  26.4  23.8  21.9  20.0  18.8  18.3   0.0   0.0
 2014 004   137  29.7  27.9  25.3  23.0  21.3  19.6  18.6  18.2   0.0   0.0
 2014 005   138  30.7  28.8  26.1  23.6  21.7  19.9  18.8  18.3   0.0   0.0
 2014 006   139  30.8  28.9  26.2  23.6  21.8  19.9  18.8  18.3   0.0   0.0
 2014 007   140  31.2  29.2  26.5  23.9  22.0  20.0  18.9  18.4   0.0   0.0
 2014 008   141  31.8  29.8  26.9  24.2  22.2  20.2  19.0  18.5   0.0   0.0
 2014 009   142  32.2  30.1  27.2  24.5  22.4  20.4  19.1  18.5   0.0   0.0
 2014 010   143  30.8  28.9  26.2  23.7  21.9  20.0  18.8  18.3   0.0   0.0
 2014 011   144  28.8  27.2  24.9  22.7  21.1  19.5  18.5  18.1   0.0   0.0
 2014 012   145  26.7  25.3  23.4  21.6  20.3  19.0  18.2  17.9   0.0   0.0
 2014 013   146  25.8  24.6  22.9  21.2  20.0  18.8  18.1  17.8   0.0   0.0
 2014 014   147  24.8  23.7  22.2  20.7  19.6  18.5  17.9  17.7   0.0   0.0
 2014 015   148  25.6  24.4  22.7  21.1  19.9  18.7  18.0  17.8   0.0   0.0
 2014 016   149  27.1  25.7  23.8  21.9  20.5  19.1  18.3  17.9   0.0   0.0
 2014 017   150  29.0  27.4  25.1  22.9  21.2  19.6  18.6  18.1   0.0   0.0
 2014 018   151  30.9  29.0  26.4  23.9  22.0  20.1  18.9  18.4   0.0   0.0
 2014 019   152  32.5  30.4  27.5  24.7  22.6  20.5  19.1  18.5   0.0   0.0
 2014 020   153  33.6  31.4  28.2  25.3  23.1  20.8  19.3  18.7   0.0   0.0
 2014 021   154  34.0  31.7  28.5  25.5  23.2  20.9  19.4  18.7   0.0   0.0
 2014 022   155  33.7  31.5  28.4  25.4  23.2  20.9  19.4  18.7   0.0   0.0
 2014 023   156  33.6  31.5  28.3  25.4  23.2  20.9  19.4  18.7   0.0   0.0
 2014 024   157  32.3  30.3  27.4  24.7  22.7  20.5  19.2  18.6   0.0   0.0
 2014 025   158  29.7  28.1  25.7  23.4  21.7  19.9  18.8  18.3   0.0   0.0
 2014 026   159  27.5  26.2  24.2  22.3  20.9  19.4  18.4  18.0   0.0   0.0
 2014 027   160  26.4  25.2  23.4  21.7  20.4  19.1  18.3  17.9   0.0   0.0
 2014 028   161  25.5  24.4  22.8  21.3  20.1  18.9  18.1  17.8   0.0   0.0
 2014 029   162  24.8  23.8  22.4  21.0  19.9  18.7  18.0  17.8   0.0   0.0
 2014 030   163  25.5  24.4  22.9  21.4  20.2  18.9  18.2  17.8   0.0   0.0
 2014 031   164  25.7  24.6  23.1  21.5  20.3  19.1  18.2  17.9   0.0   0.0
 2014 032   165  25.6  24.5  23.0  21.5  20.3  19.0  18.2  17.9   0.0   0.0
 2014 033   166  25.2  24.2  22.8  21.3  20.2  19.0  18.2  17.9   0.0   0.0
