*PLANT N OUTPUT FILE

*DSSAT Cropping System Model Ver. 4.0.2.000               Aug 15, 2016; 15:44:20

*RUN   1        : UYMZ                    
 MODEL          : MZCER040 - Maize           
 EXPERIMENT     : UYMZ0206 MZ    late to create DSS                             
 TREATMENT  1   : UYMZ                    

@YEAR DOY   DAS   DAP   CNAD   GNAD   VNAD   GN%D   VN%D   NUPC   LNAD   SNAD   LN%D   SN%D   RN%D   SNN0C   SNN1C
 1990 226     3     0    0.0    0.0    0.0   0.00   0.00    0.0    0.0    0.0    0.0   0.00   0.00    0.00    0.00
 1990 227     4     1    0.0    0.0    0.0   0.00   0.00    0.0    0.0    0.0    0.0   0.00   0.00    0.00    0.00
 1990 228     5     2    0.0    0.0    0.0   0.00   0.00    0.0    0.0    0.0    0.0   0.00   0.00    0.00    0.00
 1990 229     6     3    0.0    0.0    0.0   0.00   0.00    0.0    0.0    0.0    0.0   0.00   0.00    0.00    0.00
 1990 230     7     4    0.0    0.0    0.0   0.00   0.00    0.0    0.0    0.0    0.0   0.00   0.00    0.00    0.00
 1990 231     8     5    0.0    0.0    0.0   0.00   0.00    0.0    0.0    0.0    0.0   0.00   0.00    0.00    0.00
 1990 232     9     6    0.0    0.0    0.0   0.00   0.00    0.0    0.0    0.0    0.0   0.00   0.00    0.00    0.00
 1990 233    10     7    0.0    0.0    0.0   0.00   0.00    0.0    0.0    0.0    0.0   0.00   0.00    0.00    0.00
 1990 234    11     8    0.0    0.0    0.0   0.00   0.00    0.0    0.0    0.0    0.0   0.00   0.00    0.00    0.00
 1990 235    12     9    0.0    0.0    0.0   0.00   0.00    0.0    0.0    0.0    0.0   0.00   0.00    0.00    0.00
 1990 236    13    10    0.0    0.0    0.0   0.00   0.00    0.0    0.0    0.0    0.0   0.00   0.00    0.00    0.00
 1990 237    14    11    1.2    0.0    1.2   0.00   4.40    0.0    0.6    0.6    4.4   4.40   0.00    0.00    0.00
 1990 238    15    12    1.3    0.0    1.3   0.00   4.53    0.2    0.6    0.6    4.5   4.53   1.09    0.00    0.00
 1990 239    16    13    1.3    0.0    1.3   0.00   4.53    0.2    0.6    0.6    4.5   4.53   1.08    0.00    0.00
 1990 240    17    14    1.3    0.0    1.3   0.00   4.52    0.2    0.6    0.6    4.5   4.52   1.20    0.00    0.00
 1990 241    18    15    1.3    0.0    1.3   0.00   4.52    0.2    0.6    0.6    4.5   4.52   1.18    0.00    0.00
 1990 242    19    16    1.3    0.0    1.3   0.00   4.52    0.2    0.6    0.6    4.5   4.52   1.16    0.00    0.00
 1990 243    20    17    1.3    0.0    1.3   0.00   4.52    0.2    0.6    0.6    4.5   4.52   1.16    0.00    0.00
 1990 244    21    18    1.3    0.0    1.3   0.00   4.52    0.2    0.6    0.6    4.5   4.52   1.16    0.00    0.00
 1990 245    22    19    1.3    0.0    1.3   0.00   4.52    0.2    0.6    0.6    4.5   4.52   1.16    0.00    0.00
 1990 246    23    20    1.3    0.0    1.3   0.00   4.52    0.2    0.6    0.6    4.5   4.52   1.15    0.00    0.00
 1990 247    24    21    1.3    0.0    1.3   0.00   4.52    0.2    0.6    0.6    4.5   4.52   1.16    0.00    0.00
 1990 248    25    22    1.3    0.0    1.3   0.00   4.52    0.2    0.6    0.6    4.5   4.52   1.15    0.00    0.00
 1990 249    26    23    1.3    0.0    1.3   0.00   4.52    0.2    0.6    0.6    4.5   4.52   1.14    0.00    0.00
 1990 250    27    24    1.3    0.0    1.3   0.00   4.52    0.2    0.6    0.6    4.5   4.52   1.12    0.00    0.00
 1990 251    28    25    1.3    0.0    1.3   0.00   4.52    0.2    0.6    0.6    4.5   4.52   1.11    0.00    0.00
 1990 252    29    26    1.3    0.0    1.3   0.00   4.52    0.2    0.6    0.6    4.5   4.52   1.00    0.00    0.00
 1990 253    30    27    1.2    0.0    1.2   0.00   4.36    0.2    0.6    0.6    4.4   4.36   1.16    0.00    0.00
 1990 254    31    28    1.2    0.0    1.2   0.00   4.34    0.2    0.6    0.6    4.3   4.34   1.18    0.00    0.00
 1990 255    32    29    1.2    0.0    1.2   0.00   4.28    0.3    0.6    0.6    4.3   4.28   1.42    0.00    0.00
 1990 256    33    30    1.2    0.0    1.2   0.00   4.27    0.4    0.6    0.6    4.3   4.27   1.48    0.00    0.01
 1990 257    34    31    1.2    0.0    1.2   0.00   4.20    0.4    0.7    0.6    4.2   4.20   1.40    0.00    0.01
 1990 258    35    32    1.3    0.0    1.3   0.00   4.02    0.4    0.7    0.6    4.0   4.02   1.22    0.00    0.01
 1990 259    36    33    1.4    0.0    1.4   0.00   3.76    0.5    0.8    0.5    3.8   3.76   1.15    0.00    0.01
 1990 260    37    34    1.6    0.0    1.6   0.00   3.85    0.7    1.0    0.5    3.8   3.85   1.12    0.00    0.01
 1990 261    38    35    1.7    0.0    1.7   0.00   3.83    0.9    1.2    0.5    3.8   3.83   1.12    0.00    0.02
 1990 262    39    36    1.9    0.0    1.9   0.00   3.85    1.2    1.4    0.5    3.8   3.85   1.20    0.00    0.02
 1990 263    40    37    2.1    0.0    2.1   0.00   3.80    1.4    1.6    0.5    3.8   3.80   1.10    0.00    0.02
 1990 264    41    38    2.3    0.0    2.3   0.00   3.62    1.6    1.8    0.5    3.6   3.62   1.09    0.00    0.02
 1990 265    42    39    2.7    0.0    2.7   0.00   3.81    2.3    2.2    0.5    3.8   3.81   1.34    0.00    0.03
 1990 266    43    40    3.0    0.0    3.0   0.00   4.07    2.7    2.4    0.6    4.1   4.07   1.46    0.00    0.03
 1990 267    44    41    3.1    0.0    3.1   0.00   4.04    3.0    2.5    0.6    4.0   4.04   1.47    0.00    0.03
 1990 268    45    42    3.2    0.0    3.2   0.00   4.00    3.2    2.6    0.6    4.0   4.00   1.39    0.00    0.04
 1990 269    46    43    3.3    0.0    3.3   0.00   3.80    3.5    2.8    0.5    3.8   3.80   1.25    0.00    0.05
 1990 270    47    44    3.6    0.0    3.6   0.00   3.61    3.9    3.1    0.5    3.6   3.61   1.21    0.00    0.05
 1990 271    48    45    4.1    0.0    4.1   0.00   3.64    4.3    3.6    0.5    3.6   3.64   1.08    0.00    0.06
 1990 272    49    46    4.6    0.0    4.6   0.00   3.61    5.2    4.1    0.5    3.6   3.61   1.21    0.00    0.07
 1990 273    50    47    5.2    0.0    5.2   0.00   3.57    6.1    4.7    0.5    3.6   3.57   1.21    0.00    0.08
 1990 274    51    48    5.9    0.0    5.9   0.00   3.40    7.1    5.4    0.5    3.4   3.40   1.21    0.00    0.09
 1990 275    52    49    6.9    0.0    6.9   0.00   3.51    8.8    6.4    0.5    3.5   3.51   1.25    0.00    0.10
 1990 276    53    50    7.8    0.0    7.8   0.00   3.42   10.1    7.4    0.5    3.4   3.42   1.21    0.00    0.12
 1990 277    54    51    9.0    0.0    9.0   0.00   3.28   11.4    8.6    0.5    3.3   3.28   1.16    0.00    0.13
 1990 278    55    52   10.8    0.0   10.8   0.00   3.52   13.0   10.3    0.5    3.5   3.52   1.09    0.00    0.15
 1990 279    56    53   11.9    0.0   11.9   0.00   3.65   14.6   11.4    0.5    3.7   3.65   1.14    0.00    0.17
 1990 280    57    54   12.7    0.0   12.7   0.00   3.46   15.3   12.2    0.5    3.5   3.46   1.09    0.00    0.19
 1990 281    58    55   14.0    0.0   14.0   0.00   3.63   17.3   13.5    0.5    3.6   3.63   1.17    0.00    0.21
 1990 282    59    56   15.8    0.0   15.8   0.00   3.78   20.5   15.3    0.5    3.8   3.78   1.27    0.00    0.23
 1990 283    60    57   17.0    0.0   17.0   0.00   3.68   22.4   16.5    0.5    3.7   3.68   1.22    0.00    0.26
 1990 284    61    58   18.3    0.0   18.3   0.00   3.57   23.3   17.8    0.5    3.6   3.57   1.10    0.00    0.29
 1990 285    62    59   19.6    0.0   19.6   0.00   3.54   26.9   19.1    0.5    3.5   3.54   1.25    0.00    0.32
 1990 286    63    60   20.8    0.0   20.8   0.00   3.52   29.4   20.2    0.5    3.5   3.52   1.24    0.00    0.36
 1990 287    64    61   22.4    0.0   22.4   0.00   3.49   32.2   21.9    0.6    3.5   3.49   1.21    0.00    0.41
 1990 288    65    62   23.7    0.0   23.7   0.00   3.47   35.0   23.0    0.6    3.5   3.47   1.21    0.00    0.47
 1990 289    66    63   24.7    0.0   24.7   0.00   3.45   37.7   24.0    0.7    3.5   3.45   1.20    0.00    0.53
 1990 290    67    64   26.2    0.0   26.2   0.00   3.43   39.0   25.5    0.7    3.4   3.43   1.13    0.00    0.60
 1990 291    68    65   29.1    0.0   29.1   0.00   3.40   43.5   28.2    0.9    3.4   3.40   1.16    0.00    0.67
 1990 292    69    66   32.1    0.0   32.1   0.00   3.37   46.7   30.9    1.2    3.4   3.37   1.12    0.00    0.75
 1990 293    70    67   35.2    0.0   35.2   0.00   3.33   50.4   33.7    1.5    3.3   3.33   1.11    0.00    0.83
 1990 294    71    68   38.2    0.0   38.2   0.00   3.30   55.1   36.3    1.9    3.3   3.30   1.14    0.00    0.91
 1990 295    72    69   41.3    0.0   41.3   0.00   3.26   60.2   38.9    2.4    3.3   3.26   1.16    0.00    1.00
 1990 296    73    70   44.5    0.0   44.5   0.00   3.23   64.1   41.5    3.0    3.2   3.23   1.13    0.00    1.10
 1990 297    74    71   47.5    0.0   47.5   0.00   3.20   68.2   43.8    3.7    3.2   3.20   1.13    0.00    1.20
 1990 298    75    72   50.6    0.0   50.6   0.00   3.17   71.3   46.2    4.4    3.2   3.17   1.10    0.00    1.31
 1990 299    76    73   55.0    0.0   55.0   0.00   3.14   77.8   49.4    5.6    3.1   3.14   1.13    0.00    1.42
 1990 300    77    74   59.8    0.0   59.8   0.00   3.09   82.8   52.8    7.1    3.1   3.09   1.11    0.00    1.54
 1990 301    78    75   63.4    0.0   63.4   0.00   3.06   85.5   55.1    8.3    3.1   3.06   1.07    0.00    1.66
 1990 302    79    76   68.2    0.0   68.2   0.00   3.01   90.4   58.0   10.2    3.0   3.01   1.07    0.00    1.78
 1990 303    80    77   72.2    0.0   72.2   0.00   2.89   96.1   59.9   12.3    2.9   2.89   1.09    0.00    1.90
 1990 304    81    78   75.6    0.0   75.6   0.00   2.82  100.8   61.5   14.0    2.8   2.82   1.08    0.00    2.02
 1990 305    82    79   78.8    0.0   78.8   0.00   2.74  104.8   62.8   16.0    2.7   2.74   1.07    0.00    2.15
 1990 306    83    80   81.6    0.0   81.6   0.00   2.64  108.1   63.6   18.0    2.6   2.64   1.06    0.00    2.29
 1990 307    84    81   84.4    0.0   84.4   0.00   2.56  111.0   64.5   19.9    2.6   2.56   1.06    0.00    2.42
 1990 308    85    82   86.3    0.0   86.3   0.00   2.50  113.3   64.9   21.4    2.5   2.50   1.03    0.00    2.56
 1990 309    86    83   87.7    0.0   87.7   0.00   2.47  115.2   65.3   22.4    2.5   2.47   0.98    0.00    2.70
 1990 310    87    84   89.1    0.0   89.1   0.00   2.41  117.0   65.4   23.7    2.4   2.41   0.97    0.00    2.84
 1990 311    88    85   90.2    0.0   90.2   0.00   2.30  118.5   64.9   25.3    2.3   2.30   0.95    0.00    2.99
 1990 312    89    86   91.3    0.0   91.3   0.00   2.25  119.8   64.8   26.5    2.2   2.25   0.95    0.00    3.13
 1990 313    90    87   92.3    0.0   92.3   0.00   2.13  120.9   64.6   27.6    2.1   2.13   0.96    0.00    3.28
 1990 314    91    88   93.1    0.0   93.1   0.00   2.00  121.8   63.8   29.3    2.0   2.00   0.95    0.00    3.43
 1990 315    92    89   93.9    0.0   93.9   0.00   1.88  122.7   62.6   31.3    1.9   1.88   0.94    0.00    3.58
 1990 316    93    90   94.6    0.0   94.6   0.00   1.82  123.5   62.0   32.6    1.8   1.82   0.94    0.00    3.73
 1990 317    94    91   95.2    0.0   95.2   0.00   1.71  124.2   60.3   34.9    1.7   1.71   0.93    0.00    3.87
 1990 318    95    92   95.8    0.0   95.8   0.00   1.64  124.9   59.2   36.6    1.6   1.64   0.94    0.00    4.02
 1990 319    96    93   96.8    0.0   96.8   0.00   1.62  125.9   59.1   37.7    1.6   1.62   0.94    0.00    4.17
 1990 320    97    94   97.7    0.0   97.7   0.00   1.59  127.0   58.8   38.9    1.6   1.59   0.92    0.00    4.32
 1990 321    98    95   99.0    0.0   99.0   0.00   1.57  128.4   58.7   40.3    1.6   1.57   0.89    0.00    4.47
 1990 322    99    96  100.4    0.0  100.4   0.00   1.52  130.1   58.2   42.2    1.5   1.52   0.86    0.00    4.62
 1990 323   100    97  101.8    0.0  101.8   0.00   1.47  131.6   57.4   44.4    1.5   1.47   0.85    0.00    4.78
 1990 324   101    98  103.1    0.0  103.1   0.00   1.45  133.1   57.2   45.9    1.4   1.45   0.86    0.00    4.93
 1990 325   102    99  104.2    0.0  104.2   0.00   1.41  134.4   56.7   47.5    1.4   1.41   0.83    0.00    5.08
 1990 326   103   100  105.3    0.0  105.3   0.00   1.38  135.7   56.4   48.9    1.4   1.38   0.81    0.00    5.24
 1990 327   104   101  106.4    0.0  106.4   0.00   1.36  137.0   56.2   50.2    1.4   1.36   0.79    0.00    5.39
 1990 328   105   102  107.4    0.0  107.4   0.00   1.33  138.2   55.8   51.5    1.3   1.33   0.77    0.00    5.55
 1990 329   106   103  108.3    0.0  108.3   0.00   1.46  139.3   60.4   47.9    1.5   1.46   0.77    0.00    5.71
 1990 330   107   104  109.1    0.0  109.1   0.00   1.47  140.3   60.1   49.0    1.5   1.47   0.76    0.00    5.86
 1990 331   108   105  109.8    0.0  109.8   0.00   1.48  141.2   59.9   49.9    1.5   1.48   0.73    0.00    6.02
 1990 332   109   106  110.6    0.0  110.6   0.00   1.49  142.3   59.6   51.0    1.5   1.49   0.71    0.00    6.18
 1990 333   110   107  111.4    0.0  111.4   0.00   1.50  143.4   59.2   52.1    1.5   1.50   0.69    0.00    6.34
 1990 334   111   108  112.2    0.0  112.2   0.00   1.51  144.5   58.8   53.4    1.5   1.51   0.69    0.00    6.51
 1990 335   112   109  112.9    0.0  112.9   0.00   1.51  145.6   58.2   54.7    1.5   1.51   0.69    0.00    6.67
 1990 336   113   110  113.6    0.0  113.6   0.00   1.53  146.7   57.8   55.8    1.5   1.53   0.70    0.00    6.84
 1990 337   114   111  114.2    0.0  114.2   0.00   1.54  147.7   57.3   56.9    1.5   1.54   0.68    0.00    7.01
 1990 338   115   112  114.8    0.0  114.8   0.00   1.55  148.6   56.6   58.1    1.5   1.55   0.67    0.00    7.18
 1990 339   116   113  115.4    0.0  115.4   0.00   1.55  149.6   55.7   59.6    1.6   1.55   0.68    0.00    7.35
 1990 340   117   114  115.9    0.0  115.9   0.00   1.56  150.5   54.9   61.0    1.6   1.56   0.68    0.00    7.52
 1990 341   118   115  116.3    0.0  116.3   0.00   1.56  151.2   54.0   62.3    1.6   1.56   0.68    0.00    7.70
 1990 342   119   116  116.7    0.0  116.7   0.00   1.57  152.0   53.1   63.6    1.6   1.57   0.66    0.00    7.87
 1990 343   120   117  117.1    2.2  114.9   1.47   1.55  152.9   52.3   62.6    1.5   1.55   0.67    0.00    8.05
 1990 344   121   118  117.3    4.7  112.6   1.46   1.52  153.3   51.3   61.4    1.5   1.52   0.68    0.00    8.24
 1990 345   122   119  117.6    7.9  109.7   1.46   1.48  153.8   49.9   59.8    1.5   1.48   0.68    0.00    8.42
 1990 346   123   120  117.9    9.8  108.1   1.45   1.46  154.4   49.2   58.9    1.5   1.46   0.68    0.00    8.60
 1990 347   124   121  118.3   12.7  105.6   1.44   1.42  155.0   48.1   57.5    1.4   1.42   0.69    0.00    8.78
 1990 348   125   122  118.7   14.5  104.2   1.43   1.40  155.8   47.4   56.8    1.4   1.40   0.68    0.00    8.97
 1990 349   126   123  119.1   17.3  101.8   1.43   1.37  156.6   46.3   55.5    1.4   1.37   0.68    0.00    9.16
 1990 350   127   124  119.6   21.0   98.6   1.42   1.33  157.4   44.9   53.7    1.3   1.33   0.68    0.00    9.35
 1990 351   128   125  120.1   24.7   95.3   1.41   1.29  158.2   43.5   51.8    1.3   1.29   0.69    0.00    9.54
 1990 352   129   126  120.5   28.1   92.4   1.40   1.24  159.0   42.1   50.4    1.2   1.24   0.70    0.00    9.73
 1990 353   130   127  120.9   31.0   89.9   1.39   1.21  159.6   40.9   49.0    1.2   1.21   0.69    0.00    9.92
 1990 354   131   128  121.4   34.0   87.4   1.38   1.18  160.5   39.8   47.6    1.2   1.18   0.69    0.00   10.12
 1990 355   132   129  122.0   37.5   84.5   1.37   1.14  161.4   38.4   46.0    1.1   1.14   0.70    0.00   10.31
 1990 356   133   130  122.5   40.9   81.5   1.36   1.11  162.2   37.7   43.9    1.1   1.11   0.71    0.00   10.51
 1990 357   134   131  122.8   44.3   78.5   1.34   1.07  162.7   36.2   42.4    1.1   1.07   0.71    0.00   10.71
 1990 358   135   132  123.1   46.9   76.3   1.33   1.04  163.3   35.1   41.1    1.0   1.04   0.72    0.00   10.91
 1990 359   136   133  123.5   49.3   74.3   1.32   1.00  163.9   33.8   40.5    1.0   1.00   0.72    0.00   11.11
 1990 360   137   134  124.3   52.4   71.8   1.31   0.97  165.0   32.7   39.1    1.0   0.97   0.72    0.00   11.32
 1990 361   138   135  124.8   55.5   69.3   1.30   0.93  165.9   31.6   37.8    0.9   0.93   0.72    0.00   11.52
 1990 362   139   136  125.5   57.2   68.4   1.29   0.92  167.0   31.1   37.2    0.9   0.92   0.72    0.00   11.73
 1990 363   140   137  126.1   58.7   67.4   1.28   0.91  167.9   30.7   36.8    0.9   0.91   0.72    0.00   11.93
 1990 364   141   138  126.7   60.8   65.8   1.27   0.89  168.8   30.0   35.9    0.9   0.89   0.72    0.00   12.14
 1990 365   142   139  127.2   63.6   63.6   1.26   0.86  169.6   28.9   34.6    0.9   0.86   0.73    0.00   12.35
 1991 001   143   140  127.8   66.4   61.3   1.25   0.83  170.5   27.9   33.4    0.8   0.83   0.73    0.00   12.57
 1991 002   144   141  128.3   69.2   59.1   1.23   0.80  171.3   26.9   32.2    0.8   0.80   0.74    0.00   12.78
 1991 003   145   142  128.8   71.8   57.0   1.22   0.77  172.1   26.0   31.1    0.8   0.77   0.74    0.00   12.99
 1991 004   146   143  129.4   74.1   55.4   1.21   0.75  173.0   25.2   30.2    0.7   0.75   0.75    0.00   13.21
 1991 005   147   144  130.0   76.2   53.8   1.20   0.72  173.8   24.5   29.3    0.7   0.72   0.75    0.00   13.43
 1991 006   148   145  130.5   78.5   52.1   1.18   0.70  174.6   23.7   28.4    0.7   0.70   0.76    0.00   13.64
 1991 007   149   146  131.1   80.8   50.3   1.17   0.68  175.4   22.9   27.4    0.7   0.68   0.76    0.00   13.86
 1991 008   150   147  131.6   83.1   48.5   1.16   0.65  176.1   22.1   26.4    0.7   0.65   0.77    0.00   14.09
 1991 009   151   148  132.1   85.2   46.9   1.14   0.65  176.9   21.9   25.0    0.6   0.65   0.78    0.00   14.31
 1991 010   152   149  132.6   87.3   45.3   1.13   0.63  177.6   21.2   24.0    0.6   0.63   0.79    0.00   14.53
 1991 011   153   150  133.1   89.3   43.8   1.12   0.61  178.3   20.7   23.1    0.6   0.61   0.79    0.00   14.75
 1991 012   154   151  133.5   90.8   42.8   1.10   0.60  179.0   20.2   22.6    0.6   0.60   0.80    0.00   14.98
 1991 013   155   152  134.0   92.3   41.6   1.09   0.59  179.6   19.9   21.8    0.6   0.59   0.81    0.00   15.20
 1991 014   156   153  134.4   94.0   40.4   1.08   0.57  180.2   19.4   21.0    0.6   0.57   0.81    0.00   15.43
 1991 015   157   154  135.0   95.8   39.2   1.07   0.56  180.7   19.0   20.2    0.6   0.56   0.82    0.00   15.66
 1991 016   158   155  135.4   96.9   38.5   1.06   0.56  181.3   18.8   19.7    0.6   0.56   0.82    0.00   15.88
 1991 017   159   156  135.7   97.7   38.0   1.05   0.55  181.7   18.5   19.6    0.5   0.55   0.83    0.00   16.11
 1991 018   160   157  136.2   98.9   37.2   1.04   0.54  182.2   18.2   19.0    0.5   0.54   0.83    0.00   16.34
 1991 019   161   158  136.9  100.3   36.5   1.03   0.54  182.6   18.1   18.5    0.5   0.54   0.83    0.00   16.57
 1991 020   162   159  136.9  100.3   36.5   1.03   0.54  183.1   18.1   18.5    0.5   0.54   0.83    0.00   16.57
 1991 021   163   160  136.9  100.3   36.5   1.03   0.54  183.5   18.1   18.5    0.5   0.54   0.83    0.00   16.57
 1991 022   164   161  136.9  100.3   36.5   1.03   0.54  184.0   18.1   18.5    0.5   0.54   0.83    0.00   16.57
 1991 023   165   162  136.9  100.3   36.5   1.03   0.54  184.4   18.1   18.5    0.5   0.54   0.83    0.00   16.57

*DSSAT Cropping System Model Ver. 4.0.2.000               Aug 15, 2016; 15:44:20

*RUN   2        : UYMZ                    
 MODEL          : MZCER040 - Maize           
 EXPERIMENT     : UYMZ0206 MZ    late to create DSS                             
 TREATMENT  1   : UYMZ                    

@YEAR DOY   DAS   DAP   CNAD   GNAD   VNAD   GN%D   VN%D   NUPC   LNAD   SNAD   LN%D   SN%D   RN%D   SNN0C   SNN1C
 1991 226     3     0    0.0    0.0    0.0   0.00   0.00    0.0    0.0    0.0    0.0   0.00   0.00    0.00    0.00
 1991 227     4     1    0.0    0.0    0.0   0.00   0.00    0.0    0.0    0.0    0.0   0.00   0.00    0.00    0.00
 1991 228     5     2    0.0    0.0    0.0   0.00   0.00    0.0    0.0    0.0    0.0   0.00   0.00    0.00    0.00
 1991 229     6     3    0.0    0.0    0.0   0.00   0.00    0.0    0.0    0.0    0.0   0.00   0.00    0.00    0.00
 1991 230     7     4    0.0    0.0    0.0   0.00   0.00    0.0    0.0    0.0    0.0   0.00   0.00    0.00    0.00
 1991 231     8     5    0.0    0.0    0.0   0.00   0.00    0.0    0.0    0.0    0.0   0.00   0.00    0.00    0.00
 1991 232     9     6    0.0    0.0    0.0   0.00   0.00    0.0    0.0    0.0    0.0   0.00   0.00    0.00    0.00
 1991 233    10     7    0.0    0.0    0.0   0.00   0.00    0.0    0.0    0.0    0.0   0.00   0.00    0.00    0.00
 1991 234    11     8    0.0    0.0    0.0   0.00   0.00    0.0    0.0    0.0    0.0   0.00   0.00    0.00    0.00
 1991 235    12     9    0.0    0.0    0.0   0.00   0.00    0.0    0.0    0.0    0.0   0.00   0.00    0.00    0.00
 1991 236    13    10    0.0    0.0    0.0   0.00   0.00    0.0    0.0    0.0    0.0   0.00   0.00    0.00    0.00
 1991 237    14    11    0.0    0.0    0.0   0.00   0.00    0.0    0.0    0.0    0.0   0.00   0.00    0.00    0.00
 1991 238    15    12    0.0    0.0    0.0   0.00   0.00    0.0    0.0    0.0    0.0   0.00   0.00    0.00    0.00
 1991 239    16    13    0.0    0.0    0.0   0.00   0.00    0.0    0.0    0.0    0.0   0.00   0.00    0.00    0.00
 1991 240    17    14    0.0    0.0    0.0   0.00   0.00    0.0    0.0    0.0    0.0   0.00   0.00    0.00    0.00
 1991 241    18    15    0.0    0.0    0.0   0.00   0.00    0.0    0.0    0.0    0.0   0.00   0.00    0.00    0.00
 1991 242    19    16    0.0    0.0    0.0   0.00   0.00    0.0    0.0    0.0    0.0   0.00   0.00    0.00    0.00
 1991 243    20    17    0.0    0.0    0.0   0.00   0.00    0.0    0.0    0.0    0.0   0.00   0.00    0.00    0.00
 1991 244    21    18    0.0    0.0    0.0   0.00   0.00    0.0    0.0    0.0    0.0   0.00   0.00    0.00    0.00
 1991 245    22    19    0.0    0.0    0.0   0.00   0.00    0.0    0.0    0.0    0.0   0.00   0.00    0.00    0.00
 1991 246    23    20    0.0    0.0    0.0   0.00   0.00    0.0    0.0    0.0    0.0   0.00   0.00    0.00    0.00
 1991 247    24    21    0.0    0.0    0.0   0.00   0.00    0.0    0.0    0.0    0.0   0.00   0.00    0.00    0.00
 1991 248    25    22    0.0    0.0    0.0   0.00   0.00    0.0    0.0    0.0    0.0   0.00   0.00    0.00    0.00
 1991 249    26    23    0.0    0.0    0.0   0.00   0.00    0.0    0.0    0.0    0.0   0.00   0.00    0.00    0.00
 1991 250    27    24    1.2    0.0    1.2   0.00   4.40    0.0    0.6    0.6    4.4   4.40   0.00    0.00    0.00
 1991 251    28    25    1.3    0.0    1.3   0.00   4.55    0.2    0.6    0.6    4.6   4.55   1.07    0.00    0.00
 1991 252    29    26    1.3    0.0    1.3   0.00   4.53    0.2    0.6    0.6    4.5   4.53   1.10    0.00    0.00
 1991 253    30    27    1.3    0.0    1.3   0.00   4.51    0.2    0.6    0.6    4.5   4.51   1.12    0.00    0.00
 1991 254    31    28    1.3    0.0    1.3   0.00   4.48    0.2    0.6    0.6    4.5   4.48   1.15    0.00    0.00
 1991 255    32    29    1.2    0.0    1.2   0.00   4.45    0.2    0.6    0.6    4.4   4.45   1.17    0.00    0.00
 1991 256    33    30    1.2    0.0    1.2   0.00   4.41    0.2    0.6    0.6    4.4   4.41   1.16    0.00    0.00
 1991 257    34    31    1.2    0.0    1.2   0.00   4.41    0.2    0.6    0.6    4.4   4.41   1.12    0.00    0.00
 1991 258    35    32    1.2    0.0    1.2   0.00   4.38    0.2    0.6    0.6    4.4   4.38   1.16    0.00    0.01
 1991 259    36    33    1.2    0.0    1.2   0.00   4.36    0.3    0.6    0.6    4.4   4.36   1.18    0.00    0.01
 1991 260    37    34    1.2    0.0    1.2   0.00   4.16    0.3    0.6    0.6    4.2   4.16   1.12    0.00    0.01
 1991 261    38    35    1.3    0.0    1.3   0.00   3.68    0.4    0.7    0.5    3.7   3.68   1.28    0.00    0.01
 1991 262    39    36    1.5    0.0    1.5   0.00   3.89    0.8    0.9    0.5    3.9   3.89   1.38    0.00    0.01
 1991 263    40    37    1.6    0.0    1.6   0.00   3.76    0.9    1.1    0.5    3.8   3.76   1.20    0.00    0.01
 1991 264    41    38    1.8    0.0    1.8   0.00   3.46    1.1    1.3    0.5    3.5   3.46   1.14    0.00    0.02
 1991 265    42    39    2.2    0.0    2.2   0.00   3.72    1.8    1.7    0.5    3.7   3.72   1.33    0.00    0.02
 1991 266    43    40    2.5    0.0    2.5   0.00   4.02    2.4    2.0    0.6    4.0   4.02   1.43    0.00    0.02
 1991 267    44    41    2.6    0.0    2.6   0.00   3.89    2.7    2.1    0.5    3.9   3.89   1.31    0.00    0.03
 1991 268    45    42    2.8    0.0    2.8   0.00   3.73    3.0    2.3    0.5    3.7   3.73   1.24    0.00    0.03
 1991 269    46    43    3.2    0.0    3.2   0.00   3.66    3.6    2.7    0.5    3.7   3.66   1.24    0.00    0.04
 1991 270    47    44    3.6    0.0    3.6   0.00   3.41    4.1    3.1    0.5    3.4   3.41   1.18    0.00    0.05
 1991 271    48    45    4.3    0.0    4.3   0.00   3.84    5.4    3.8    0.5    3.8   3.84   1.31    0.00    0.06
 1991 272    49    46    4.6    0.0    4.6   0.00   3.81    6.0    4.1    0.5    3.8   3.81   1.26    0.00    0.07
 1991 273    50    47    5.0    0.0    5.0   0.00   3.69    6.6    4.5    0.5    3.7   3.69   1.22    0.00    0.08
 1991 274    51    48    5.5    0.0    5.5   0.00   3.80    7.5    4.9    0.5    3.8   3.80   1.22    0.00    0.10
 1991 275    52    49    5.9    0.0    5.9   0.00   3.81    8.4    5.3    0.5    3.8   3.81   1.23    0.00    0.11
 1991 276    53    50    6.2    0.0    6.2   0.00   3.79    9.2    5.7    0.5    3.8   3.79   1.22    0.00    0.13
 1991 277    54    51    6.6    0.0    6.6   0.00   3.70    9.8    6.1    0.5    3.7   3.70   1.17    0.00    0.15
 1991 278    55    52    7.2    0.0    7.2   0.00   3.83   10.2    6.7    0.5    3.8   3.83   1.10    0.00    0.17
 1991 279    56    53    7.5    0.0    7.5   0.00   3.93   11.0    7.0    0.5    3.9   3.93   1.18    0.00    0.19
 1991 280    57    54    7.7    0.0    7.7   0.00   3.93   11.4    7.2    0.6    3.9   3.93   1.20    0.00    0.22
 1991 281    58    55    7.9    0.0    7.9   0.00   3.88   12.2    7.3    0.5    3.9   3.88   1.23    0.00    0.24
 1991 282    59    56    8.1    0.0    8.1   0.00   3.70   12.6    7.6    0.5    3.7   3.70   1.16    0.00    0.27
 1991 283    60    57    8.7    0.0    8.7   0.00   3.59   13.9    8.2    0.5    3.6   3.59   1.17    0.00    0.30
 1991 284    61    58    9.5    0.0    9.5   0.00   3.51   15.3    9.0    0.5    3.5   3.51   1.17    0.00    0.33
 1991 285    62    59   10.6    0.0   10.6   0.00   3.35   17.0   10.1    0.5    3.4   3.35   1.16    0.00    0.37
 1991 286    63    60   12.2    0.0   12.2   0.00   3.32   19.1   11.8    0.5    3.3   3.32   1.15    0.00    0.40
 1991 287    64    61   14.4    0.0   14.4   0.00   3.25   20.9   13.9    0.5    3.2   3.25   1.08    0.00    0.44
 1991 288    65    62   16.9    0.0   16.9   0.00   3.42   23.5   16.4    0.5    3.4   3.42   1.08    0.00    0.48
 1991 289    66    63   18.5    0.0   18.5   0.00   3.50   25.2   18.0    0.5    3.5   3.50   1.08    0.00    0.52
 1991 290    67    64   20.1    0.0   20.1   0.00   3.70   28.3   19.6    0.5    3.7   3.70   1.19    0.00    0.56
 1991 291    68    65   20.6    0.0   20.6   0.00   3.58   30.6   20.1    0.5    3.6   3.58   1.22    0.00    0.61
 1991 292    69    66   22.4    0.0   22.4   0.00   3.55   33.5   21.9    0.5    3.6   3.55   1.19    0.00    0.67
 1991 293    70    67   24.4    0.0   24.4   0.00   3.52   36.9   23.9    0.5    3.5   3.52   1.18    0.00    0.73
 1991 294    71    68   27.9    0.0   27.9   0.00   3.48   41.0   27.2    0.6    3.5   3.48   1.15    0.00    0.79
 1991 295    72    69   32.1    0.0   32.1   0.00   3.43   45.6   31.3    0.8    3.4   3.43   1.12    0.00    0.87
 1991 296    73    70   34.1    0.0   34.1   0.00   3.40   47.3   33.1    0.9    3.4   3.40   1.09    0.00    0.94
 1991 297    74    71   35.7    0.0   35.7   0.00   3.39   49.3   34.6    1.1    3.4   3.39   1.09    0.00    1.01
 1991 298    75    72   38.3    0.0   38.3   0.00   3.35   51.8   37.0    1.3    3.4   3.35   1.08    0.00    1.08
 1991 299    76    73   41.8    0.0   41.8   0.00   3.32   57.5   40.1    1.7    3.3   3.32   1.15    0.00    1.16
 1991 300    77    74   44.8    0.0   44.8   0.00   3.29   60.2   42.7    2.1    3.3   3.29   1.10    0.00    1.24
 1991 301    78    75   47.5    0.0   47.5   0.00   3.26   62.7   45.0    2.6    3.3   3.26   1.08    0.00    1.32
 1991 302    79    76   49.8    0.0   49.8   0.00   3.23   65.3   46.9    3.0    3.2   3.23   1.08    0.00    1.41
 1991 303    80    77   52.3    0.0   52.3   0.00   3.21   67.9   48.8    3.5    3.2   3.21   1.08    0.00    1.49
 1991 304    81    78   55.2    0.0   55.2   0.00   3.18   70.9   51.1    4.1    3.2   3.18   1.08    0.00    1.57
 1991 305    82    79   58.3    0.0   58.3   0.00   3.15   75.8   53.4    4.9    3.2   3.15   1.13    0.00    1.66
 1991 306    83    80   61.2    0.0   61.2   0.00   3.12   81.1   55.5    5.7    3.1   3.12   1.16    0.00    1.75
 1991 307    84    81   64.5    0.0   64.5   0.00   3.10   85.2   57.8    6.7    3.1   3.10   1.13    0.00    1.85
 1991 308    85    82   67.9    0.0   67.9   0.00   3.07   91.0   60.1    7.8    3.1   3.07   1.15    0.00    1.96
 1991 309    86    83   71.9    0.0   71.9   0.00   3.03   95.5   62.7    9.3    3.0   3.03   1.12    0.00    2.08
 1991 310    87    84   76.4    0.0   76.4   0.00   3.00   99.1   65.4   11.0    3.0   3.00   1.08    0.00    2.21
 1991 311    88    85   78.9    0.0   78.9   0.00   2.92  103.0   66.5   12.3    2.9   2.92   1.08    0.00    2.32
 1991 312    89    86   81.2    0.0   81.2   0.00   2.87  106.3   67.6   13.6    2.9   2.87   1.07    0.00    2.45
 1991 313    90    87   82.9    0.0   82.9   0.00   2.79  109.0   68.1   14.8    2.8   2.79   1.04    0.00    2.58
 1991 314    91    88   84.7    0.0   84.7   0.00   2.69  111.3   68.5   16.3    2.7   2.69   1.03    0.00    2.72
 1991 315    92    89   86.2    0.0   86.2   0.00   2.64  113.2   68.9   17.3    2.6   2.64   1.01    0.00    2.85
 1991 316    93    90   87.2    0.0   87.2   0.00   2.61  114.9   69.1   18.0    2.6   2.61   0.96    0.00    2.99
 1991 317    94    91   88.1    0.0   88.1   0.00   2.54  116.2   69.1   19.0    2.5   2.54   0.95    0.00    3.14
 1991 318    95    92   89.1    0.0   89.1   0.00   2.47  117.4   68.9   20.1    2.5   2.47   0.95    0.00    3.28
 1991 319    96    93   89.9    0.0   89.9   0.00   2.36  118.4   68.3   21.5    2.4   2.36   0.96    0.00    3.43
 1991 320    97    94   90.5    0.0   90.5   0.00   2.27  119.2   67.7   22.8    2.3   2.27   0.94    0.00    3.57
 1991 321    98    95   91.1    0.0   91.1   0.00   2.18  120.0   67.0   24.1    2.2   2.18   0.92    0.00    3.72
 1991 322    99    96   91.7    0.0   91.7   0.00   2.07  120.7   66.0   25.7    2.1   2.07   0.90    0.00    3.87
 1991 323   100    97   92.2    0.0   92.2   0.00   1.99  121.3   65.2   27.0    2.0   1.99   0.86    0.00    4.02
 1991 324   101    98   92.6    0.0   92.6   0.00   1.86  121.8   64.6   28.0    1.9   1.86   0.85    0.00    4.17
 1991 325   102    99   93.0    0.0   93.0   0.00   1.75  122.3   63.5   29.5    1.8   1.75   0.83    0.00    4.32
 1991 326   103   100   93.4    0.0   93.4   0.00   1.65  122.7   62.2   31.2    1.7   1.65   0.81    0.00    4.47
 1991 327   104   101   93.7    0.0   93.7   0.00   1.57  123.2   60.8   32.9    1.6   1.57   0.80    0.00    4.62
 1991 328   105   102   94.1    0.0   94.1   0.00   1.54  123.6   60.4   33.7    1.5   1.54   0.81    0.00    4.77
 1991 329   106   103   94.8    0.0   94.8   0.00   1.52  124.5   60.2   34.6    1.5   1.52   0.81    0.00    4.92
 1991 330   107   104   95.6    0.0   95.6   0.00   1.49  125.4   60.0   35.6    1.5   1.49   0.81    0.00    5.08
 1991 331   108   105   97.0    0.0   97.0   0.00   1.48  127.0   60.1   36.9    1.5   1.48   0.79    0.00    5.23
 1991 332   109   106   98.3    0.0   98.3   0.00   1.45  128.6   59.8   38.5    1.4   1.45   0.79    0.00    5.38
 1991 333   110   107   99.6    0.0   99.6   0.00   1.42  130.0   59.5   40.1    1.4   1.42   0.79    0.00    5.54
 1991 334   111   108  100.8    0.0  100.8   0.00   1.39  131.5   59.1   41.7    1.4   1.39   0.77    0.00    5.69
 1991 335   112   109  102.1    0.0  102.1   0.00   1.37  133.1   59.0   43.2    1.4   1.37   0.76    0.00    5.85
 1991 336   113   110  103.4    0.0  103.4   0.00   1.34  134.6   58.7   44.7    1.3   1.34   0.74    0.00    6.01
 1991 337   114   111  104.6    0.0  104.6   0.00   1.32  136.1   58.5   46.1    1.3   1.32   0.75    0.00    6.17
 1991 338   115   112  105.7    0.0  105.7   0.00   1.29  137.3   58.1   47.5    1.3   1.29   0.73    0.00    6.33
 1991 339   116   113  106.7    0.0  106.7   0.00   1.27  138.5   57.9   48.8    1.3   1.27   0.74    0.00    6.49
 1991 340   117   114  107.5    0.0  107.5   0.00   1.24  139.6   57.4   50.1    1.2   1.24   0.72    0.00    6.65
 1991 341   118   115  108.6    0.0  108.6   0.00   1.36  140.9   62.1   46.5    1.4   1.36   0.72    0.00    6.81
 1991 342   119   116  109.5    0.0  109.5   0.00   1.37  142.0   61.8   47.7    1.4   1.37   0.71    0.00    6.98
 1991 343   120   117  110.5    0.0  110.5   0.00   1.38  143.3   61.7   48.8    1.4   1.38   0.72    0.00    7.14
 1991 344   121   118  111.3    0.0  111.3   0.00   1.39  144.3   61.3   50.0    1.4   1.39   0.71    0.00    7.31
 1991 345   122   119  112.2    0.0  112.2   0.00   1.40  145.5   60.9   51.3    1.4   1.40   0.71    0.00    7.48
 1991 346   123   120  113.2    0.0  113.2   0.00   1.42  146.9   60.7   52.5    1.4   1.42   0.72    0.00    7.65
 1991 347   124   121  114.0    0.0  114.0   0.00   1.43  148.0   60.2   53.8    1.4   1.43   0.71    0.00    7.82
 1991 348   125   122  114.7    0.0  114.7   0.00   1.44  149.0   59.7   55.0    1.4   1.44   0.72    0.00    7.99
 1991 349   126   123  115.3    0.0  115.3   0.00   1.45  149.9   59.2   56.1    1.5   1.45   0.72    0.00    8.16
 1991 350   127   124  115.9    0.0  115.9   0.00   1.46  150.7   58.5   57.4    1.5   1.46   0.72    0.00    8.34
 1991 351   128   125  116.4    0.0  116.4   0.00   1.47  151.6   57.7   58.7    1.5   1.47   0.71    0.00    8.51
 1991 352   129   126  117.1    0.0  117.1   0.00   1.48  152.7   56.8   60.3    1.5   1.48   0.71    0.00    8.69
 1991 353   130   127  117.8    3.2  114.6   1.40   1.44  153.8   55.6   59.0    1.4   1.44   0.71    0.00    8.87
 1991 354   131   128  118.4    6.2  112.2   1.39   1.41  154.7   54.4   57.8    1.4   1.41   0.71    0.00    9.05
 1991 355   132   129  119.0    9.3  109.8   1.39   1.38  155.7   53.3   56.5    1.4   1.38   0.72    0.00    9.24
 1991 356   133   130  119.9   12.3  107.6   1.39   1.36  157.1   52.4   55.3    1.4   1.36   0.73    0.00    9.42
 1991 357   134   131  120.5   15.3  105.2   1.38   1.33  158.0   51.1   54.2    1.3   1.33   0.73    0.00    9.61
 1991 358   135   132  121.0   18.3  102.7   1.38   1.29  158.8   49.8   52.9    1.3   1.29   0.73    0.00    9.80
 1991 359   136   133  121.7   21.0  100.6   1.38   1.27  159.9   48.8   51.8    1.3   1.27   0.74    0.00    9.99
 1991 360   137   134  122.3   22.9   99.4   1.38   1.25  160.9   48.2   51.2    1.3   1.25   0.74    0.00   10.18
 1991 361   138   135  122.8   24.9   97.9   1.37   1.23  161.7   47.5   50.4    1.2   1.23   0.73    0.00   10.37
 1991 362   139   136  123.6   27.4   96.1   1.37   1.21  162.9   46.6   49.5    1.2   1.21   0.73    0.00   10.57
 1991 363   140   137  124.2   30.2   94.0   1.36   1.18  163.9   45.6   48.4    1.2   1.18   0.73    0.00   10.77
 1991 364   141   138  124.8   33.1   91.7   1.36   1.15  164.9   44.5   47.2    1.2   1.15   0.74    0.00   10.97
 1991 365   142   139  125.3   36.0   89.3   1.36   1.12  165.8   43.3   46.0    1.1   1.12   0.74    0.00   11.17
 1992 001   143   140  125.9   38.9   87.0   1.35   1.10  166.8   42.4   44.6    1.1   1.10   0.75    0.00   11.37
 1992 002   144   141  126.5   41.7   84.8   1.35   1.07  167.6   41.1   43.6    1.1   1.07   0.76    0.00   11.58
 1992 003   145   142  126.9   43.6   83.3   1.34   1.05  168.4   40.4   42.9    1.0   1.05   0.76    0.00   11.78
 1992 004   146   143  127.6   46.0   81.6   1.34   1.03  169.4   39.6   42.0    1.0   1.03   0.76    0.00   11.99
 1992 005   147   144  128.2   48.4   79.8   1.33   1.01  170.4   38.7   41.1    1.0   1.01   0.76    0.00   12.20
 1992 006   148   145  128.8   50.8   78.0   1.33   0.98  171.3   37.8   40.1    1.0   0.98   0.76    0.00   12.41
 1992 007   149   146  129.3   53.5   75.8   1.32   0.96  172.2   36.8   39.0    1.0   0.96   0.76    0.00   12.62
 1992 008   150   147  129.9   56.1   73.7   1.32   0.93  173.1   35.8   38.0    0.9   0.93   0.77    0.00   12.84
 1992 009   151   148  130.4   58.7   71.7   1.31   0.90  174.0   34.8   36.9    0.9   0.90   0.77    0.00   13.05
 1992 010   152   149  131.0   61.3   69.7   1.30   0.88  174.9   33.8   35.9    0.9   0.88   0.78    0.00   13.27
 1992 011   153   150  131.6   63.5   68.1   1.30   0.86  175.8   33.0   35.1    0.9   0.86   0.78    0.00   13.49
 1992 012   154   151  132.1   65.6   66.5   1.29   0.84  176.7   32.3   34.2    0.8   0.84   0.78    0.00   13.71
 1992 013   155   152  132.7   67.9   64.8   1.28   0.82  177.5   31.4   33.3    0.8   0.82   0.78    0.00   13.93
 1992 014   156   153  133.2   70.1   63.0   1.27   0.79  178.3   30.6   32.4    0.8   0.79   0.78    0.00   14.16
 1992 015   157   154  133.6   71.1   62.5   1.27   0.79  179.0   30.3   32.2    0.8   0.79   0.78    0.00   14.38
 1992 016   158   155  134.0   72.2   61.8   1.27   0.78  179.7   30.0   31.8    0.8   0.78   0.78    0.00   14.61
 1992 017   159   156  134.4   74.0   60.5   1.26   0.76  180.4   29.3   31.1    0.8   0.76   0.78    0.00   14.83
 1992 018   160   157  134.8   76.1   58.7   1.25   0.74  181.0   28.5   30.2    0.7   0.74   0.78    0.00   15.06
 1992 019   161   158  135.2   78.3   56.9   1.24   0.72  181.6   27.6   29.3    0.7   0.72   0.78    0.00   15.29
 1992 020   162   159  135.5   80.5   55.1   1.23   0.69  182.1   26.7   28.3    0.7   0.69   0.78    0.00   15.52
 1992 021   163   160  135.9   82.5   53.3   1.22   0.67  182.7   25.9   27.5    0.7   0.67   0.79    0.00   15.75
 1992 022   164   161  136.2   84.5   51.7   1.21   0.65  183.2   25.1   26.6    0.7   0.65   0.79    0.00   15.99
 1992 023   165   162  136.5   86.3   50.2   1.20   0.63  183.7   24.4   25.8    0.6   0.63   0.80    0.00   16.22
 1992 024   166   163  136.9   88.2   48.7   1.19   0.62  184.2   23.7   25.0    0.6   0.62   0.80    0.00   16.45
 1992 025   167   164  136.9   88.2   48.7   1.19   0.62  184.7   23.7   25.0    0.6   0.62   0.80    0.00   16.45
 1992 026   168   165  136.9   88.2   48.7   1.19   0.62  185.2   23.7   25.0    0.6   0.62   0.80    0.00   16.45
 1992 027   169   166  136.9   88.2   48.7   1.19   0.62  185.7   23.7   25.0    0.6   0.62   0.80    0.00   16.45
 1992 028   170   167  136.9   88.2   48.7   1.19   0.62  186.2   23.7   25.0    0.6   0.62   0.80    0.00   16.45

*DSSAT Cropping System Model Ver. 4.0.2.000               Aug 15, 2016; 15:44:20

*RUN   3        : UYMZ                    
 MODEL          : MZCER040 - Maize           
 EXPERIMENT     : UYMZ0206 MZ    late to create DSS                             
 TREATMENT  1   : UYMZ                    

@YEAR DOY   DAS   DAP   CNAD   GNAD   VNAD   GN%D   VN%D   NUPC   LNAD   SNAD   LN%D   SN%D   RN%D   SNN0C   SNN1C
 1992 226     3     0    0.0    0.0    0.0   0.00   0.00    0.0    0.0    0.0    0.0   0.00   0.00    0.00    0.00
 1992 227     4     1    0.0    0.0    0.0   0.00   0.00    0.0    0.0    0.0    0.0   0.00   0.00    0.00    0.00
 1992 228     5     2    0.0    0.0    0.0   0.00   0.00    0.0    0.0    0.0    0.0   0.00   0.00    0.00    0.00
 1992 229     6     3    0.0    0.0    0.0   0.00   0.00    0.0    0.0    0.0    0.0   0.00   0.00    0.00    0.00
 1992 230     7     4    0.0    0.0    0.0   0.00   0.00    0.0    0.0    0.0    0.0   0.00   0.00    0.00    0.00
 1992 231     8     5    0.0    0.0    0.0   0.00   0.00    0.0    0.0    0.0    0.0   0.00   0.00    0.00    0.00
 1992 232     9     6    0.0    0.0    0.0   0.00   0.00    0.0    0.0    0.0    0.0   0.00   0.00    0.00    0.00
 1992 233    10     7    0.0    0.0    0.0   0.00   0.00    0.0    0.0    0.0    0.0   0.00   0.00    0.00    0.00
 1992 234    11     8    0.0    0.0    0.0   0.00   0.00    0.0    0.0    0.0    0.0   0.00   0.00    0.00    0.00
 1992 235    12     9    0.0    0.0    0.0   0.00   0.00    0.0    0.0    0.0    0.0   0.00   0.00    0.00    0.00
 1992 236    13    10    0.0    0.0    0.0   0.00   0.00    0.0    0.0    0.0    0.0   0.00   0.00    0.00    0.00
 1992 237    14    11    0.0    0.0    0.0   0.00   0.00    0.0    0.0    0.0    0.0   0.00   0.00    0.00    0.00
 1992 238    15    12    0.0    0.0    0.0   0.00   0.00    0.0    0.0    0.0    0.0   0.00   0.00    0.00    0.00
 1992 239    16    13    0.0    0.0    0.0   0.00   0.00    0.0    0.0    0.0    0.0   0.00   0.00    0.00    0.00
 1992 240    17    14    0.0    0.0    0.0   0.00   0.00    0.0    0.0    0.0    0.0   0.00   0.00    0.00    0.00
 1992 241    18    15    0.0    0.0    0.0   0.00   0.00    0.0    0.0    0.0    0.0   0.00   0.00    0.00    0.00
 1992 242    19    16    0.0    0.0    0.0   0.00   0.00    0.0    0.0    0.0    0.0   0.00   0.00    0.00    0.00
 1992 243    20    17    0.0    0.0    0.0   0.00   0.00    0.0    0.0    0.0    0.0   0.00   0.00    0.00    0.00
 1992 244    21    18    1.2    0.0    1.2   0.00   4.40    0.0    0.6    0.6    4.4   4.40   0.00    0.00    0.00
 1992 245    22    19    1.3    0.0    1.3   0.00   4.56    0.2    0.6    0.6    4.6   4.56   1.08    0.00    0.00
 1992 246    23    20    1.3    0.0    1.3   0.00   4.56    0.2    0.6    0.6    4.6   4.56   1.08    0.00    0.00
 1992 247    24    21    1.3    0.0    1.3   0.00   4.56    0.2    0.6    0.6    4.6   4.56   1.06    0.00    0.00
 1992 248    25    22    1.3    0.0    1.3   0.00   4.53    0.2    0.6    0.6    4.5   4.53   1.11    0.00    0.00
 1992 249    26    23    1.3    0.0    1.3   0.00   4.51    0.2    0.6    0.6    4.5   4.51   1.12    0.00    0.00
 1992 250    27    24    1.3    0.0    1.3   0.00   4.49    0.2    0.6    0.6    4.5   4.49   1.14    0.00    0.00
 1992 251    28    25    1.3    0.0    1.3   0.00   4.47    0.2    0.6    0.6    4.5   4.47   1.14    0.00    0.00
 1992 252    29    26    1.3    0.0    1.3   0.00   4.47    0.2    0.6    0.6    4.5   4.47   1.12    0.00    0.00
 1992 253    30    27    1.3    0.0    1.3   0.00   4.47    0.2    0.6    0.6    4.5   4.47   1.08    0.00    0.00
 1992 254    31    28    1.2    0.0    1.2   0.00   4.40    0.2    0.6    0.6    4.4   4.40   1.16    0.00    0.00
 1992 255    32    29    1.2    0.0    1.2   0.00   4.40    0.2    0.6    0.6    4.4   4.40   1.11    0.00    0.00
 1992 256    33    30    1.2    0.0    1.2   0.00   4.36    0.3    0.6    0.6    4.4   4.36   1.32    0.00    0.01
 1992 257    34    31    1.2    0.0    1.2   0.00   4.36    0.3    0.6    0.6    4.4   4.36   1.25    0.00    0.01
 1992 258    35    32    1.2    0.0    1.2   0.00   4.33    0.3    0.6    0.6    4.3   4.33   1.34    0.00    0.01
 1992 259    36    33    1.2    0.0    1.2   0.00   4.31    0.3    0.6    0.6    4.3   4.31   1.38    0.00    0.01
 1992 260    37    34    1.2    0.0    1.2   0.00   4.31    0.3    0.6    0.6    4.3   4.31   1.30    0.00    0.01
 1992 261    38    35    1.2    0.0    1.2   0.00   4.25    0.3    0.6    0.6    4.2   4.25   1.32    0.00    0.01
 1992 262    39    36    1.2    0.0    1.2   0.00   4.24    0.4    0.6    0.6    4.2   4.24   1.45    0.00    0.01
 1992 263    40    37    1.2    0.0    1.2   0.00   4.21    0.4    0.6    0.6    4.2   4.21   1.45    0.00    0.01
 1992 264    41    38    1.2    0.0    1.2   0.00   3.94    0.4    0.6    0.6    3.9   3.94   1.36    0.00    0.01
 1992 265    42    39    1.3    0.0    1.3   0.00   3.78    0.5    0.7    0.5    3.8   3.78   1.27    0.00    0.02
 1992 266    43    40    1.4    0.0    1.4   0.00   3.87    0.5    0.8    0.5    3.9   3.87   1.10    0.00    0.02
 1992 267    44    41    1.5    0.0    1.5   0.00   3.62    0.7    1.0    0.5    3.6   3.62   1.21    0.00    0.02
 1992 268    45    42    1.7    0.0    1.7   0.00   3.76    0.9    1.2    0.5    3.8   3.76   1.10    0.00    0.02
 1992 269    46    43    1.9    0.0    1.9   0.00   3.99    1.3    1.3    0.6    4.0   3.99   1.52    0.00    0.03
 1992 270    47    44    1.9    0.0    1.9   0.00   3.96    1.4    1.4    0.6    4.0   3.96   1.45    0.00    0.03
 1992 271    48    45    2.0    0.0    2.0   0.00   3.62    1.5    1.5    0.5    3.6   3.62   1.22    0.00    0.03
 1992 272    49    46    2.3    0.0    2.3   0.00   3.53    1.9    1.8    0.5    3.5   3.53   1.23    0.00    0.04
 1992 273    50    47    2.6    0.0    2.6   0.00   3.45    2.4    2.1    0.5    3.4   3.45   1.23    0.00    0.04
 1992 274    51    48    3.1    0.0    3.1   0.00   3.24    3.0    2.6    0.5    3.2   3.24   1.21    0.00    0.05
 1992 275    52    49    3.8    0.0    3.8   0.00   3.31    3.7    3.4    0.5    3.3   3.31   1.13    0.00    0.05
 1992 276    53    50    4.6    0.0    4.6   0.00   3.42    4.7    4.1    0.5    3.4   3.42   1.15    0.00    0.06
 1992 277    54    51    5.4    0.0    5.4   0.00   3.50    5.8    4.9    0.5    3.5   3.50   1.26    0.00    0.06
 1992 278    55    52    6.1    0.0    6.1   0.00   3.35    6.8    5.6    0.5    3.3   3.35   1.23    0.00    0.07
 1992 279    56    53    7.2    0.0    7.2   0.00   3.58    7.8    6.7    0.5    3.6   3.58   1.11    0.00    0.08
 1992 280    57    54    7.9    0.0    7.9   0.00   3.70    9.6    7.3    0.5    3.7   3.70   1.43    0.00    0.09
 1992 281    58    55    8.3    0.0    8.3   0.00   3.78   10.4    7.8    0.5    3.8   3.78   1.38    0.00    0.11
 1992 282    59    56    8.6    0.0    8.6   0.00   3.68   11.2    8.1    0.5    3.7   3.68   1.31    0.00    0.12
 1992 283    60    57    9.1    0.0    9.1   0.00   3.56   12.2    8.6    0.5    3.6   3.56   1.24    0.00    0.14
 1992 284    61    58   10.0    0.0   10.0   0.00   3.63   13.8    9.4    0.5    3.6   3.63   1.24    0.00    0.16
 1992 285    62    59   10.7    0.0   10.7   0.00   3.36   14.5   10.2    0.5    3.4   3.36   1.15    0.00    0.19
 1992 286    63    60   12.1    0.0   12.1   0.00   3.32   16.9   11.7    0.5    3.3   3.32   1.20    0.00    0.21
 1992 287    64    61   15.7    0.0   15.7   0.00   3.78   21.5   15.2    0.5    3.8   3.78   1.21    0.00    0.24
 1992 288    65    62   17.5    0.0   17.5   0.00   3.68   24.2   17.0    0.5    3.7   3.68   1.20    0.00    0.28
 1992 289    66    63   19.3    0.0   19.3   0.00   3.56   25.2   18.8    0.5    3.6   3.56   1.07    0.00    0.32
 1992 290    67    64   21.2    0.0   21.2   0.00   3.52   27.5   20.6    0.6    3.5   3.52   1.10    0.00    0.35
 1992 291    68    65   22.9    0.0   22.9   0.00   3.50   31.2   22.3    0.6    3.5   3.50   1.22    0.00    0.39
 1992 292    69    66   24.5    0.0   24.5   0.00   3.48   34.4   23.8    0.7    3.5   3.48   1.22    0.00    0.44
 1992 293    70    67   26.3    0.0   26.3   0.00   3.45   35.3   25.6    0.8    3.5   3.45   1.10    0.00    0.49
 1992 294    71    68   28.0    0.0   28.0   0.00   3.43   39.4   27.1    0.8    3.4   3.43   1.20    0.00    0.54
 1992 295    72    69   29.4    0.0   29.4   0.00   3.42   42.6   28.5    0.9    3.4   3.42   1.20    0.00    0.61
 1992 296    73    70   31.5    0.0   31.5   0.00   3.39   46.0   30.4    1.1    3.4   3.39   1.18    0.00    0.68
 1992 297    74    71   34.7    0.0   34.7   0.00   3.36   50.3   33.2    1.4    3.4   3.36   1.16    0.00    0.76
 1992 298    75    72   38.7    0.0   38.7   0.00   3.32   55.3   36.7    2.0    3.3   3.32   1.14    0.00    0.84
 1992 299    76    73   42.5    0.0   42.5   0.00   3.28   58.0   39.9    2.6    3.3   3.28   1.07    0.00    0.93
 1992 300    77    74   46.8    0.0   46.8   0.00   3.24   65.1   43.3    3.5    3.2   3.24   1.16    0.00    1.01
 1992 301    78    75   49.7    0.0   49.7   0.00   3.20   70.1   45.5    4.2    3.2   3.20   1.17    0.00    1.11
 1992 302    79    76   51.1    0.0   51.1   0.00   3.21   70.7   46.6    4.5    3.2   3.21   1.11    0.00    1.22
 1992 303    80    77   51.7    0.0   51.7   0.00   3.18   75.0   47.0    4.7    3.2   3.18   1.20    0.00    1.32
 1992 304    81    78   52.8    0.0   52.8   0.00   3.17   77.5   47.8    5.0    3.2   3.17   1.19    0.00    1.44
 1992 305    82    79   54.0    0.0   54.0   0.00   3.16   80.2   48.6    5.4    3.2   3.16   1.19    0.00    1.57
 1992 306    83    80   55.6    0.0   55.6   0.00   3.16   82.9   49.8    5.9    3.2   3.16   1.18    0.00    1.71
 1992 307    84    81   57.7    0.0   57.7   0.00   3.16   85.6   51.2    6.5    3.2   3.16   1.17    0.00    1.85
 1992 308    85    82   57.4    0.0   57.4   0.00   3.07   85.9   50.6    6.8    3.1   3.07   1.15    0.00    1.99
 1992 309    86    83   58.6    0.0   58.6   0.00   3.08   89.1   51.4    7.2    3.1   3.08   1.18    0.00    2.14
 1992 310    87    84   59.5    0.0   59.5   0.00   3.06   90.7   51.9    7.6    3.1   3.06   1.16    0.00    2.30
 1992 311    88    85   60.0    0.0   60.0   0.00   3.02   92.7   52.1    8.0    3.0   3.02   1.14    0.00    2.46
 1992 312    89    86   61.5    0.0   61.5   0.00   3.03   95.9   53.0    8.5    3.0   3.03   1.15    0.00    2.63
 1992 313    90    87   63.2    0.0   63.2   0.00   3.03   98.8   54.1    9.2    3.0   3.03   1.15    0.00    2.80
 1992 314    91    88   65.4    0.0   65.4   0.00   3.03  101.6   55.3   10.1    3.0   3.03   1.15    0.00    2.99
 1992 315    92    89   65.4    0.0   65.4   0.00   2.87  101.6   54.3   11.1    2.9   2.87   1.15    0.00    2.99
 1992 316    93    90   68.5    0.0   68.5   0.00   2.89  104.5   56.1   12.3    2.9   2.89   1.13    0.00    3.17
 1992 317    94    91   70.3    0.0   70.3   0.00   2.88  106.7   57.0   13.3    2.9   2.88   1.12    0.00    3.36
 1992 318    95    92   71.6    0.0   71.6   0.00   2.86  108.4   57.4   14.1    2.9   2.86   1.12    0.00    3.54
 1992 319    96    93   73.4    0.0   73.4   0.00   2.82  109.9   57.9   15.5    2.8   2.82   1.11    0.00    3.73
 1992 320    97    94   75.3    0.0   75.3   0.00   2.80  112.0   58.6   16.7    2.8   2.80   1.11    0.00    3.92
 1992 321    98    95   76.3    0.0   76.3   0.00   2.67  113.5   57.8   18.5    2.7   2.67   1.08    0.00    4.11
 1992 322    99    96   77.0    0.0   77.0   0.00   2.56  114.6   57.1   20.0    2.6   2.56   1.05    0.00    4.30
 1992 323   100    97   77.6    0.0   77.6   0.00   2.37  115.4   56.6   21.0    2.4   2.37   1.03    0.00    4.49
 1992 324   101    98   78.0    0.0   78.0   0.00   2.30  115.9   56.2   21.8    2.3   2.30   1.02    0.00    4.68
 1992 325   102    99   78.4    0.0   78.4   0.00   2.24  116.3   55.6   22.8    2.2   2.24   1.02    0.00    4.88
 1992 326   103   100   78.7    0.0   78.7   0.00   2.17  116.7   54.9   23.8    2.2   2.17   1.02    0.00    5.07
 1992 327   104   101   78.9    0.0   78.9   0.00   2.15  117.0   54.7   24.2    2.1   2.15   1.01    0.00    5.26
 1992 328   105   102   79.2    0.0   79.2   0.00   2.13  117.3   54.6   24.5    2.1   2.14   1.00    0.00    5.46
 1992 329   106   103   79.6    0.0   79.6   0.00   2.11  117.9   54.4   25.2    2.1   2.11   1.00    0.00    5.65
 1992 330   107   104   80.2    0.0   80.2   0.00   2.07  118.6   54.0   26.1    2.1   2.07   0.99    0.00    5.85
 1992 331   108   105   80.7    0.0   80.7   0.00   2.01  119.2   53.3   27.4    2.0   2.01   0.99    0.00    6.04
 1992 332   109   106   81.2    0.0   81.2   0.00   1.98  119.9   53.0   28.3    2.0   1.98   0.98    0.00    6.24
 1992 333   110   107   81.7    0.0   81.7   0.00   1.92  120.5   52.2   29.5    1.9   1.92   0.97    0.00    6.43
 1992 334   111   108   82.1    0.0   82.1   0.00   1.87  121.0   51.4   30.7    1.9   1.87   0.97    0.00    6.63
 1992 335   112   109   82.8    0.0   82.8   0.00   1.83  121.9   51.0   31.9    1.8   1.83   0.97    0.00    6.83
 1992 336   113   110   83.3    0.0   83.3   0.00   1.76  122.4   49.9   33.4    1.8   1.76   0.94    0.00    7.02
 1992 337   114   111   83.9    0.0   83.9   0.00   1.71  123.2   49.2   34.7    1.7   1.71   0.91    0.00    7.22
 1992 338   115   112   84.5    0.0   84.5   0.00   1.66  123.9   48.4   36.1    1.7   1.66   0.90    0.00    7.42
 1992 339   116   113   85.0    0.0   85.0   0.00   1.59  124.6   47.4   37.6    1.6   1.59   0.88    0.00    7.62
 1992 340   117   114   85.4    0.0   85.4   0.00   1.55  125.1   46.9   38.5    1.6   1.55   0.88    0.00    7.82
 1992 341   118   115   85.9    0.0   85.9   0.00   1.53  125.7   46.7   39.2    1.5   1.53   0.88    0.00    8.02
 1992 342   119   116   86.4    0.0   86.4   0.00   1.66  126.4   50.0   36.4    1.7   1.66   0.87    0.00    8.22
 1992 343   120   117   87.0    0.0   87.0   0.00   1.66  127.1   49.4   37.5    1.7   1.66   0.86    0.00    8.43
 1992 344   121   118   87.5    0.0   87.5   0.00   1.66  127.9   48.8   38.7    1.7   1.66   0.86    0.00    8.63
 1992 345   122   119   88.0    0.0   88.0   0.00   1.66  128.6   48.1   39.9    1.7   1.66   0.86    0.00    8.83
 1992 346   123   120   88.5    0.0   88.5   0.00   1.66  129.3   47.4   41.1    1.7   1.66   0.85    0.00    9.04
 1992 347   124   121   88.9    0.0   88.9   0.00   1.67  129.9   47.0   41.9    1.7   1.67   0.84    0.00    9.24
 1992 348   125   122   89.2    0.0   89.2   0.00   1.67  130.5   46.4   42.8    1.7   1.67   0.83    0.00    9.45
 1992 349   126   123   89.5    0.0   89.5   0.00   1.68  131.0   45.9   43.6    1.7   1.68   0.83    0.00    9.66
 1992 350   127   124   89.7    0.0   89.7   0.00   1.69  131.5   45.4   44.4    1.7   1.69   0.82    0.00    9.87
 1992 351   128   125   89.9    0.0   89.9   0.00   1.70  131.9   44.7   45.2    1.7   1.70   0.81    0.00   10.08
 1992 352   129   126   90.1    0.0   90.1   0.00   1.71  132.3   44.0   46.1    1.7   1.71   0.82    0.00   10.29
 1992 353   130   127   90.3    0.0   90.3   0.00   1.72  132.7   43.4   46.9    1.7   1.72   0.82    0.00   10.50
 1992 354   131   128   90.4    0.0   90.4   0.00   1.73  133.0   42.6   47.8    1.7   1.73   0.82    0.00   10.71
 1992 355   132   129   90.5    2.3   88.2   1.82   1.69  133.4   41.6   46.7    1.7   1.69   0.82    0.00   10.93
 1992 356   133   130   90.7    4.7   86.0   1.80   1.65  133.7   40.5   45.5    1.6   1.65   0.83    0.00   11.14
 1992 357   134   131   90.8    7.8   83.0   1.77   1.60  134.0   39.4   43.6    1.6   1.60   0.84    0.00   11.36
 1992 358   135   132   90.9   10.8   80.1   1.75   1.56  134.2   38.3   41.7    1.6   1.56   0.84    0.00   11.57
 1992 359   136   133   91.3   12.9   78.4   1.74   1.53  135.0   37.6   40.8    1.5   1.53   0.86    0.00   11.79
 1992 360   137   134   91.5   15.8   75.7   1.71   1.46  135.3   35.8   39.9    1.5   1.46   0.86    0.00   12.01
 1992 361   138   135   91.8   18.4   73.3   1.69   1.41  135.8   34.5   38.8    1.4   1.41   0.85    0.00   12.23
 1992 362   139   136   92.0   20.9   71.1   1.66   1.36  136.3   33.5   37.6    1.4   1.36   0.85    0.00   12.45
 1992 363   140   137   92.2   24.0   68.2   1.64   1.31  136.6   32.1   36.1    1.3   1.31   0.85    0.00   12.67
 1992 364   141   138   92.4   27.0   65.4   1.62   1.27  137.0   31.3   34.1    1.3   1.27   0.85    0.00   12.89
 1992 365   142   139   92.7   29.6   63.1   1.60   1.24  137.5   30.6   32.5    1.2   1.24   0.86    0.00   13.11
 1992 366   143   140   93.2   31.8   61.5   1.58   1.22  138.4   30.0   31.5    1.2   1.22   0.87    0.00   13.34
 1993 001   144   141   94.3   34.1   60.2   1.56   1.21  140.1   29.7   30.6    1.2   1.21   0.89    0.00   13.56
 1993 002   145   142   95.4   36.5   59.0   1.55   1.19  141.8   29.3   29.6    1.2   1.19   0.90    0.00   13.79
 1993 003   146   143   96.5   38.9   57.6   1.54   1.18  143.4   29.0   28.6    1.2   1.18   0.92    0.00   14.02
 1993 004   147   144   97.5   41.7   55.8   1.52   1.14  144.9   28.1   27.7    1.1   1.14   0.93    0.00   14.26
 1993 005   148   145   98.8   44.5   54.3   1.52   1.10  146.8   27.1   27.2    1.1   1.10   0.94    0.00   14.49
 1993 006   149   146  100.1   47.4   52.7   1.51   1.05  148.5   25.8   26.9    1.1   1.05   0.95    0.00   14.73
 1993 007   150   147  101.1   50.1   51.1   1.50   1.03  149.9   25.3   25.8    1.0   1.03   0.96    0.00   14.97
 1993 008   151   148  102.0   52.7   49.3   1.48   0.99  151.0   24.3   25.0    1.0   0.99   0.97    0.00   15.21
 1993 009   152   149  102.8   55.0   47.8   1.47   0.94  152.1   23.1   24.7    0.9   0.94   0.97    0.00   15.46
 1993 010   153   150  103.5   57.5   46.0   1.46   0.89  153.0   21.9   24.1    0.9   0.89   0.97    0.00   15.70
 1993 011   154   151  104.3   59.9   44.4   1.44   0.85  154.0   20.9   23.5    0.9   0.85   0.97    0.00   15.95
 1993 012   155   152  105.0   62.2   42.9   1.43   0.82  154.9   20.2   22.7    0.8   0.82   0.97    0.00   16.20
 1993 013   156   153  105.8   64.4   41.4   1.41   0.79  155.8   19.5   21.9    0.8   0.79   0.98    0.00   16.44
 1993 014   157   154  106.6   66.5   40.0   1.40   0.77  156.8   18.9   21.1    0.8   0.77   0.98    0.00   16.69
 1993 015   158   155  107.3   68.6   38.7   1.38   0.74  157.7   18.2   20.4    0.7   0.74   0.99    0.00   16.94
 1993 016   159   156  107.8   70.7   37.2   1.37   0.72  158.3   17.7   19.5    0.7   0.72   0.99    0.00   17.19
 1993 017   160   157  108.7   72.2   36.5   1.35   0.70  159.3   17.2   19.3    0.7   0.70   1.00    0.00   17.44
 1993 018   161   158  109.5   73.4   36.1   1.34   0.69  160.2   17.0   19.1    0.7   0.69   1.00    0.00   17.69
 1993 019   162   159  110.3   75.0   35.2   1.33   0.68  161.2   16.6   18.6    0.7   0.68   1.01    0.00   17.94
 1993 020   163   160  111.1   76.9   34.2   1.31   0.66  162.1   16.1   18.1    0.7   0.66   1.01    0.00   18.19
 1993 021   164   161  111.9   78.6   33.3   1.30   0.64  163.0   15.7   17.6    0.6   0.64   1.02    0.00   18.45
 1993 022   165   162  112.7   80.4   32.4   1.28   0.62  163.9   15.2   17.1    0.6   0.62   1.03    0.00   18.70
 1993 023   166   163  113.6   82.1   31.5   1.27   0.61  164.9   15.0   16.6    0.6   0.61   1.03    0.00   18.95
 1993 024   167   164  113.6   82.1   31.5   1.27   0.61  165.9   15.0   16.6    0.6   0.61   1.03    0.00   18.95
 1993 025   168   165  113.6   82.1   31.5   1.27   0.61  166.8   15.0   16.6    0.6   0.61   1.03    0.00   18.95
 1993 026   169   166  113.6   82.1   31.5   1.27   0.61  167.8   15.0   16.6    0.6   0.61   1.03    0.00   18.95
