*SIMULATION OVERVIEW FILE

*DSSAT Cropping System Model Ver. 4.0.2.000               Aug 15, 2016; 16:10:12
                                                                                
*RUN   1        : UYSB                                                          
 MODEL          : CRGRO040 - SOYBEAN                                            
 EXPERIMENT     : UYSB0212 SN late to create DSS                                
 TREATMENT  1   : UYSB                                                          
                                                                                
 CROP           : SOYBEAN        CULTIVAR : GM 4 UY          ECOTYPE :SB0401    
 STARTING DATE  : AUG 12 1990                                                   
 PLANTING DATE  : AUG 15 1990    PLANTS/m2 :  7.0     ROW SPACING :  15.cm      
 WEATHER        : UYTA   1990                                                   
 SOIL           : UYSS0N2002     TEXTURE :       -  N20-02    SNIA CLAY RISS    
 SOIL INITIAL C : DEPTH:125cm EXTR. H2O:186.3mm  NO3: 30.1kg/ha  NH4: 23.9kg/ha 
 WATER BALANCE  : AUTOMATIC IRRIGATION - REFILL PROFILE                         
 IRRIGATION     : AUTOMATIC - PLANTING -> MATURITY [ SOIL DEPTH:30.00m 50.%]    
 NITROGEN BAL.  : SOIL-N, N-UPTAKE & DYNAMIC N-FIXATION SIMULATION              
 N-FERTILIZER   :        2 kg/ha IN     2 APPLICATIONS                          
 RESIDUE/MANURE : INITIAL :     0 kg/ha ;       0 kg/ha IN     0 APPLICATIONS   
 ENVIRONM. OPT. : DAYL=    0.00  SRAD=    0.00  TMAX=    0.00  TMIN=    0.00    
                  RAIN=    0.00  CO2 = R330.00  DEW =    0.00  WIND=    0.00    
 SIMULATION OPT : WATER   :Y  NITROGEN:Y  N-FIX:Y  PHOSPH :N  PESTS  :N         
                  PHOTO   :C  ET      :R  INFIL:S  HYDROL :R  SOM    :G         
 MANAGEMENT OPT : PLANTING:R  IRRIG   :A  FERT :D  RESIDUE:N  HARVEST:M  WTH:M  
                                                                                
*SUMMARY OF SOIL AND GENETIC INPUT PARAMETERS                                   
                                                                                
   SOIL LOWER UPPER   SAT  EXTR  INIT   ROOT   BULK     pH    NO3    NH4    ORG 
  DEPTH LIMIT LIMIT    SW    SW    SW   DIST   DENS                          C  
   cm   cm3/cm3    cm3/cm3    cm3/cm3         g/cm3         ugN/g  ugN/g     %  
------------------------------------------------------------------------------- 
  0-  5 0.331 0.542 0.585 0.211 0.394   1.00   1.11   6.50   5.00   1.50   2.74 
  5- 15 0.331 0.542 0.585 0.211 0.394   1.00   1.11   6.50   5.00   1.50   2.74 
 15- 30 0.331 0.542 0.585 0.211 0.394   1.00   1.11   6.50   5.00   1.50   2.74 
 30- 45 0.290 0.438 0.491 0.148 0.334   0.43   1.26   6.50   4.60   1.50   1.07 
 45- 60 0.292 0.431 0.480 0.138 0.375   0.39   1.29   6.27   2.45   1.50   0.90 
 60- 90 0.293 0.419 0.466 0.126 0.419   0.32   1.34   6.00   0.00   1.50   0.64 
 90-108 0.286 0.408 0.460 0.122 0.408   0.23   1.36   6.00   0.00   1.50   0.35 
108-125 0.276 0.395 0.456 0.119 0.395   0.12   1.38   6.00   0.00   1.50   0.14 
                                                                                
TOT-125  37.3  55.9  62.1  18.6  49.1  <--cm   -  kg/ha-->   30.1   23.9 166127 
SOIL ALBEDO    : 0.09      EVAPORATION LIMIT : 6.00         MIN. FACTOR  : 1.00 
RUNOFF CURVE # :10.00      DRAINAGE RATE     : 0.40         FERT. FACTOR : 1.00 
                                                                                
 SOYBEAN    CULTIVAR :UY0141-GM 4 UY            ECOTYPE :SB0401                 
 CSDVAR :13.39  PPSEN  : 0.29  EMG-FLW:21.50  FLW-FSD:18.00  FSD-PHM : 32.00    
 WTPSD  :0.190  SDPDVR : 2.20  SDFDUR :23.00  PODDUR :10.00  XFRUIT  :  1.00    
                                                                                
                                                                                
                                                                                
                                                                                
*SIMULATED CROP AND SOIL STATUS AT MAIN DEVELOPMENT STAGES

 RUN NO.     1     UYSB                    

        CROP GROWTH   BIOMASS         LEAF   CROP N     STRESS  
   DATE  AGE STAGE      kg/ha    LAI   NUM  kg/ha  %   H2O    N 
 ------  --- ---------- -----  -----  ----  ---  ---  ----  ----
 12 AUG    0 Start Sim      0   0.00   0.0    0  0.0  0.00  0.00
 15 AUG    0 Sowing         0   0.00   0.0    0  0.0  0.00  0.00
 24 AUG    9 Emergence      4   0.01   0.0    0  5.1  0.00  0.00
 24 AUG    9 End Juven.     4   0.01   0.0    0  5.1  0.00  0.00

     Freeze occurred at   18 days after planting.                                  
       (DAY : 1990245 )                                                            

 17 SEP   33 Unifoliate     1   0.00   1.1    0  2.8  0.00  0.00
 19 SEP   35 Flower Ind     1   0.00   1.3    0  2.8  0.00  0.00
 29 OCT   75 First Flwr     1   0.00   7.6    0  3.1  0.00  0.00
  9 NOV   86 First Pod      2   0.00   9.5    0  3.3  0.00  0.00
 28 NOV  105 First Seed     4   0.00  13.7    0  3.6  0.00  0.00
 10 DEC  117 End Leaf       6   0.00  16.0    0  3.6  0.00  0.00
 15 DEC  122 End Msnode     7   0.00  16.8    0  3.6  0.00  0.00
 17 DEC  124 End Pod        7   0.00  16.8    0  3.6  0.00  0.00
 19 JAN  157 Phys. Mat     11   0.00  16.8    0  3.5  0.00  0.00
 31 JAN  169 Harv. Mat      9   0.00  16.8    0  3.5  0.00  0.00
 31 JAN  169 Harvest        9   0.00  16.8    0  3.5  0.00  0.00


*MAIN GROWTH AND DEVELOPMENT VARIABLES

@     VARIABLE                          SIMULATED     MEASURED
      --------                          ---------     --------
      Anthesis day (dap)                       75          -99
      First pod day (dap)                      86          -99
      First seed day (dap)                    105          -99
      Physiological maturity day (dap)        157          -99
      Yield at harvest maturity (kg [dm]/       3          -99
      Pod/Ear/Panicle weight at maturity        6          -99
      Number at maturity (no/m2)                3          -99
      Unit wt at maturity (g [dm]/unit)    0.1206          -99
      Number at maturity (no/unit)           2.07          -99
      Tops weight at maturity (kg [dm]/ha       9          -99
      By-product produced (stalk) at matu      10          -99
      Leaf area index, maximum               0.01          -99
      Harvest index at maturity             0.375          -99
      Threshing % at maturity               56.97          -99
      Grain N at maturity (kg/ha)               0          -99
      Tops N at maturity (kg/ha)                0          -99
      Stem N at maturity (kg/ha)                0          -99
      Grain N at maturity (%)                6.27          -99
      Tops weight at anthesis (kg [dm]/ha       1          -99
      Tops N at anthesis (kg/ha)                0          -99
      Leaf number per stem at maturity      16.81          -99
      Grain oil at maturity (%)             19.73          -99
      Canopy height (m)                      0.79          -99
      Harvest maturity day (dap)              169          -99


*ENVIRONMENTAL AND STRESS FACTORS

 |-----Development Phase------|-------------Environment--------------|---------Stress----------|
                              |--------Average-------|---Cumulative--|  (0=Min, 1=Max Stress)  |
                         Time  Temp  Temp Solar Photop         Evapo |----Water---|--Nitrogen--|
                         Span   Max   Min   Rad  [day]   Rain  Trans  Photo         Photo
                         days    øC    øC MJ/m2     hr     mm     mm  synth Growth  synth Growth
------------------------------------------------------------------------------------------------
 Emergence -First Flower   66  20.3   9.8  16.4  12.15  249.4  109.3  0.000  0.000  0.000  0.000
 First Flower-First Seed   30  26.0  15.4  21.5  13.57  141.2   62.5  0.000  0.000  0.000  0.000
 First Seed - Phys. Mat.   52  26.9  14.6  24.9  13.99  269.5   88.5  0.000  0.000  0.000  0.000
 Emergence  - Phys. Mat.  148  23.8  12.6  20.4  13.09  660.1  260.3  0.000  0.000  0.000  0.000

                   Soybean YIELD :        3 kg/ha    [Dry weight] 

************************************************************************************************

*DSSAT Cropping System Model Ver. 4.0.2.000               Aug 15, 2016; 16:10:12
                                                                                
*RUN   2        : UYSB                                                          
 MODEL          : CRGRO040 - SOYBEAN                                            
 EXPERIMENT     : UYSB0212 SN late to create DSS                                
 TREATMENT  1   : UYSB                                                          
                                                                                
 CROP           : SOYBEAN        CULTIVAR : GM 4 UY          ECOTYPE :SB0401    
 STARTING DATE  : AUG 12 1990                                                   
 PLANTING DATE  : AUG 15 1990    PLANTS/m2 :  7.0     ROW SPACING :  15.cm      
 WEATHER        : UYTA   1990                                                   
 SOIL           : UYSS0N2002     TEXTURE :       -  N20-02    SNIA CLAY RISS    
 SOIL INITIAL C : DEPTH:125cm EXTR. H2O:186.3mm  NO3: 30.1kg/ha  NH4: 23.9kg/ha 
 WATER BALANCE  : AUTOMATIC IRRIGATION - REFILL PROFILE                         
 IRRIGATION     : AUTOMATIC - PLANTING -> MATURITY [ SOIL DEPTH:30.00m 50.%]    
 NITROGEN BAL.  : SOIL-N, N-UPTAKE & DYNAMIC N-FIXATION SIMULATION              
 N-FERTILIZER   :        2 kg/ha IN     2 APPLICATIONS                          
 RESIDUE/MANURE : INITIAL :     0 kg/ha ;       0 kg/ha IN     0 APPLICATIONS   
 ENVIRONM. OPT. : DAYL=    0.00  SRAD=    0.00  TMAX=    0.00  TMIN=    0.00    
                  RAIN=    0.00  CO2 = R330.00  DEW =    0.00  WIND=    0.00    
 SIMULATION OPT : WATER   :Y  NITROGEN:Y  N-FIX:Y  PHOSPH :N  PESTS  :N         
                  PHOTO   :C  ET      :R  INFIL:S  HYDROL :R  SOM    :G         
 MANAGEMENT OPT : PLANTING:R  IRRIG   :A  FERT :D  RESIDUE:N  HARVEST:M  WTH:M  
                                                                                
*SUMMARY OF SOIL AND GENETIC INPUT PARAMETERS                                   
                                                                                
   SOIL LOWER UPPER   SAT  EXTR  INIT   ROOT   BULK     pH    NO3    NH4    ORG 
  DEPTH LIMIT LIMIT    SW    SW    SW   DIST   DENS                          C  
   cm   cm3/cm3    cm3/cm3    cm3/cm3         g/cm3         ugN/g  ugN/g     %  
------------------------------------------------------------------------------- 
  0-  5 0.331 0.542 0.585 0.211 0.394   1.00   1.11   6.50   5.00   1.50   2.74 
  5- 15 0.331 0.542 0.585 0.211 0.394   1.00   1.11   6.50   5.00   1.50   2.74 
 15- 30 0.331 0.542 0.585 0.211 0.394   1.00   1.11   6.50   5.00   1.50   2.74 
 30- 45 0.290 0.438 0.491 0.148 0.334   0.43   1.26   6.50   4.60   1.50   1.07 
 45- 60 0.292 0.431 0.480 0.138 0.375   0.39   1.29   6.27   2.45   1.50   0.90 
 60- 90 0.293 0.419 0.466 0.126 0.419   0.32   1.34   6.00   0.00   1.50   0.64 
 90-108 0.286 0.408 0.460 0.122 0.408   0.23   1.36   6.00   0.00   1.50   0.35 
108-125 0.276 0.395 0.456 0.119 0.395   0.12   1.38   6.00   0.00   1.50   0.14 
                                                                                
TOT-125  37.3  55.9  62.1  18.6  49.1  <--cm   -  kg/ha-->   30.1   23.9 166127 
SOIL ALBEDO    : 0.09      EVAPORATION LIMIT : 6.00         MIN. FACTOR  : 1.00 
RUNOFF CURVE # :10.00      DRAINAGE RATE     : 0.40         FERT. FACTOR : 1.00 
                                                                                
 SOYBEAN    CULTIVAR :UY0141-GM 4 UY            ECOTYPE :SB0401                 
 CSDVAR :13.39  PPSEN  : 0.29  EMG-FLW:21.50  FLW-FSD:18.00  FSD-PHM : 32.00    
 WTPSD  :0.190  SDPDVR : 2.20  SDFDUR :23.00  PODDUR :10.00  XFRUIT  :  1.00    
                                                                                
                                                                                
                                                                                
                                                                                
*SIMULATED CROP AND SOIL STATUS AT MAIN DEVELOPMENT STAGES

 RUN NO.     2     UYSB                    

        CROP GROWTH   BIOMASS         LEAF   CROP N     STRESS  
   DATE  AGE STAGE      kg/ha    LAI   NUM  kg/ha  %   H2O    N 
 ------  --- ---------- -----  -----  ----  ---  ---  ----  ----
 12 AUG    0 Start Sim      0   0.00   0.0    0  0.0  0.00  0.00
 15 AUG    0 Sowing         0   0.00   0.0    0  0.0  0.00  0.00
 22 AUG    7 Emergence      4   0.01   0.0    0  5.1  0.00  0.00
 22 AUG    7 End Juven.     4   0.01   0.0    0  5.1  0.00  0.00
  4 SEP   20 Flower Ind     7   0.01   1.0    0  5.0  0.00  0.00
  5 SEP   21 Unifoliate     8   0.02   1.2    0  5.0  0.00  0.00
 22 OCT   68 First Flwr   442   0.61   7.5   19  4.3  0.00  0.00
  3 NOV   80 First Pod    931   1.13   9.4   38  4.1  0.00  0.00
 26 NOV  103 First Seed  3087   1.56  13.2   86  2.8  0.00  0.13
  6 DEC  113 End Leaf    4060   1.50  15.5  105  2.6  0.00  0.07
 10 DEC  117 End Msnode  4303   1.46  16.4  114  2.7  0.00  0.00
 13 DEC  120 End Pod     4455   1.42  16.4  120  2.7  0.00  0.00
 14 JAN  152 Phys. Mat   5947   1.07  16.4  212  3.6  0.00  0.01
 26 JAN  164 Harv. Mat   5174   0.07  16.4  196  3.8  0.00  0.06
 26 JAN  164 Harvest     5174   0.07  16.4  196  3.8  0.00  0.00


*MAIN GROWTH AND DEVELOPMENT VARIABLES

@     VARIABLE                          SIMULATED     MEASURED
      --------                          ---------     --------
      Anthesis day (dap)                       68          -99
      First pod day (dap)                      80          -99
      First seed day (dap)                    103          -99
      Physiological maturity day (dap)        152          -99
      Yield at harvest maturity (kg [dm]/    2771          -99
      Pod/Ear/Panicle weight at maturity     4099          -99
      Number at maturity (no/m2)             1752          -99
      Unit wt at maturity (g [dm]/unit)    0.1581          -99
      Number at maturity (no/unit)           2.20          -99
      Tops weight at maturity (kg [dm]/ha    5174          -99
      By-product produced (stalk) at matu    2400          -99
      Leaf area index, maximum               1.56          -99
      Harvest index at maturity             0.536          -99
      Threshing % at maturity               67.61          -99
      Grain N at maturity (kg/ha)             168          -99
      Tops N at maturity (kg/ha)              196          -99
      Stem N at maturity (kg/ha)                7          -99
      Grain N at maturity (%)                6.05          -99
      Tops weight at anthesis (kg [dm]/ha     442          -99
      Tops N at anthesis (kg/ha)               19          -99
      Leaf number per stem at maturity      16.42          -99
      Grain oil at maturity (%)             20.44          -99
      Canopy height (m)                      0.76          -99
      Harvest maturity day (dap)              164          -99


*ENVIRONMENTAL AND STRESS FACTORS

 |-----Development Phase------|-------------Environment--------------|---------Stress----------|
                              |--------Average-------|---Cumulative--|  (0=Min, 1=Max Stress)  |
                         Time  Temp  Temp Solar Photop         Evapo |----Water---|--Nitrogen--|
                         Span   Max   Min   Rad  [day]   Rain  Trans  Photo         Photo
                         days    øC    øC MJ/m2     hr     mm     mm  synth Growth  synth Growth
------------------------------------------------------------------------------------------------
 Emergence -First Flower   61  21.4  10.8  15.8  12.01  282.2  104.0  0.000  0.000  0.000  0.000
 First Flower-First Seed   35  22.9  13.2  17.9  13.46  111.0  122.8  0.000  0.000  0.000  0.088
 First Seed - Phys. Mat.   49  27.8  17.0  22.8  14.00  224.1  247.7  0.000  0.000  0.077  0.022
 Emergence  - Phys. Mat.  145  24.0  13.4  18.7  13.03  617.3  474.5  0.000  0.000  0.007  0.029

                   Soybean YIELD :     2771 kg/ha    [Dry weight] 

************************************************************************************************

*DSSAT Cropping System Model Ver. 4.0.2.000               Aug 15, 2016; 16:10:12
                                                                                
*RUN   3        : UYSB                                                          
 MODEL          : CRGRO040 - SOYBEAN                                            
 EXPERIMENT     : UYSB0212 SN late to create DSS                                
 TREATMENT  1   : UYSB                                                          
                                                                                
 CROP           : SOYBEAN        CULTIVAR : GM 4 UY          ECOTYPE :SB0401    
 STARTING DATE  : AUG 12 1990                                                   
 PLANTING DATE  : AUG 15 1990    PLANTS/m2 :  7.0     ROW SPACING :  15.cm      
 WEATHER        : UYTA   1990                                                   
 SOIL           : UYSS0N2002     TEXTURE :       -  N20-02    SNIA CLAY RISS    
 SOIL INITIAL C : DEPTH:125cm EXTR. H2O:186.3mm  NO3: 30.1kg/ha  NH4: 23.9kg/ha 
 WATER BALANCE  : AUTOMATIC IRRIGATION - REFILL PROFILE                         
 IRRIGATION     : AUTOMATIC - PLANTING -> MATURITY [ SOIL DEPTH:30.00m 50.%]    
 NITROGEN BAL.  : SOIL-N, N-UPTAKE & DYNAMIC N-FIXATION SIMULATION              
 N-FERTILIZER   :        2 kg/ha IN     2 APPLICATIONS                          
 RESIDUE/MANURE : INITIAL :     0 kg/ha ;       0 kg/ha IN     0 APPLICATIONS   
 ENVIRONM. OPT. : DAYL=    0.00  SRAD=    0.00  TMAX=    0.00  TMIN=    0.00    
                  RAIN=    0.00  CO2 = R330.00  DEW =    0.00  WIND=    0.00    
 SIMULATION OPT : WATER   :Y  NITROGEN:Y  N-FIX:Y  PHOSPH :N  PESTS  :N         
                  PHOTO   :C  ET      :R  INFIL:S  HYDROL :R  SOM    :G         
 MANAGEMENT OPT : PLANTING:R  IRRIG   :A  FERT :D  RESIDUE:N  HARVEST:M  WTH:M  
                                                                                
*SUMMARY OF SOIL AND GENETIC INPUT PARAMETERS                                   
                                                                                
   SOIL LOWER UPPER   SAT  EXTR  INIT   ROOT   BULK     pH    NO3    NH4    ORG 
  DEPTH LIMIT LIMIT    SW    SW    SW   DIST   DENS                          C  
   cm   cm3/cm3    cm3/cm3    cm3/cm3         g/cm3         ugN/g  ugN/g     %  
------------------------------------------------------------------------------- 
  0-  5 0.331 0.542 0.585 0.211 0.394   1.00   1.11   6.50   5.00   1.50   2.74 
  5- 15 0.331 0.542 0.585 0.211 0.394   1.00   1.11   6.50   5.00   1.50   2.74 
 15- 30 0.331 0.542 0.585 0.211 0.394   1.00   1.11   6.50   5.00   1.50   2.74 
 30- 45 0.290 0.438 0.491 0.148 0.334   0.43   1.26   6.50   4.60   1.50   1.07 
 45- 60 0.292 0.431 0.480 0.138 0.375   0.39   1.29   6.27   2.45   1.50   0.90 
 60- 90 0.293 0.419 0.466 0.126 0.419   0.32   1.34   6.00   0.00   1.50   0.64 
 90-108 0.286 0.408 0.460 0.122 0.408   0.23   1.36   6.00   0.00   1.50   0.35 
108-125 0.276 0.395 0.456 0.119 0.395   0.12   1.38   6.00   0.00   1.50   0.14 
                                                                                
TOT-125  37.3  55.9  62.1  18.6  49.1  <--cm   -  kg/ha-->   30.1   23.9 166127 
SOIL ALBEDO    : 0.09      EVAPORATION LIMIT : 6.00         MIN. FACTOR  : 1.00 
RUNOFF CURVE # :10.00      DRAINAGE RATE     : 0.40         FERT. FACTOR : 1.00 
                                                                                
 SOYBEAN    CULTIVAR :UY0141-GM 4 UY            ECOTYPE :SB0401                 
 CSDVAR :13.39  PPSEN  : 0.29  EMG-FLW:21.50  FLW-FSD:18.00  FSD-PHM : 32.00    
 WTPSD  :0.190  SDPDVR : 2.20  SDFDUR :23.00  PODDUR :10.00  XFRUIT  :  1.00    
                                                                                
                                                                                
                                                                                
                                                                                
*SIMULATED CROP AND SOIL STATUS AT MAIN DEVELOPMENT STAGES

 RUN NO.     3     UYSB                    

        CROP GROWTH   BIOMASS         LEAF   CROP N     STRESS  
   DATE  AGE STAGE      kg/ha    LAI   NUM  kg/ha  %   H2O    N 
 ------  --- ---------- -----  -----  ----  ---  ---  ----  ----
 11 AUG    0 Start Sim      0   0.00   0.0    0  0.0  0.00  0.00
 14 AUG    0 Sowing         0   0.00   0.0    0  0.0  0.00  0.00
 24 AUG   10 Emergence      4   0.01   0.0    0  5.1  0.00  0.00
 24 AUG   10 End Juven.     4   0.01   0.0    0  5.1  0.00  0.00
 11 SEP   28 Unifoliate     9   0.02   1.2    0  4.9  0.00  0.00
 11 SEP   28 Flower Ind     9   0.02   1.2    0  4.9  0.00  0.00
  2 NOV   80 First Flwr   721   0.87   8.1   31  4.2  0.00  0.00
 16 NOV   94 First Pod   1892   1.81  10.3   76  4.0  0.00  0.00
  9 DEC  117 First Seed  5247   2.66  14.7  165  3.1  0.00  0.01
 20 DEC  128 End Leaf    6706   2.55  17.1  205  3.1  0.00  0.00
 23 DEC  131 End Msnode  6831   2.49  17.8  208  3.1  0.00  0.00
 27 DEC  135 End Pod     7249   2.41  17.8  222  3.1  0.00  0.00
 26 JAN  165 Phys. Mat   8844   1.77  17.8  306  3.5  0.00  0.01
  7 FEB  177 Harv. Mat   7297   0.12  17.8  277  3.8  0.00  0.03
  7 FEB  177 Harvest     7297   0.12  17.8  277  3.8  0.00  0.00


*MAIN GROWTH AND DEVELOPMENT VARIABLES

@     VARIABLE                          SIMULATED     MEASURED
      --------                          ---------     --------
      Anthesis day (dap)                       80          -99
      First pod day (dap)                      94          -99
      First seed day (dap)                    117          -99
      Physiological maturity day (dap)        165          -99
      Yield at harvest maturity (kg [dm]/    3827          -99
      Pod/Ear/Panicle weight at maturity     5419          -99
      Number at maturity (no/m2)             2374          -99
      Unit wt at maturity (g [dm]/unit)    0.1612          -99
      Number at maturity (no/unit)           2.20          -99
      Tops weight at maturity (kg [dm]/ha    7297          -99
      By-product produced (stalk) at matu    3470          -99
      Leaf area index, maximum               2.66          -99
      Harvest index at maturity             0.525          -99
      Threshing % at maturity               70.63          -99
      Grain N at maturity (kg/ha)             241          -99
      Tops N at maturity (kg/ha)              277          -99
      Stem N at maturity (kg/ha)               13          -99
      Grain N at maturity (%)                6.30          -99
      Tops weight at anthesis (kg [dm]/ha     721          -99
      Tops N at anthesis (kg/ha)               31          -99
      Leaf number per stem at maturity      17.82          -99
      Grain oil at maturity (%)             20.44          -99
      Canopy height (m)                      0.80          -99
      Harvest maturity day (dap)              177          -99


*ENVIRONMENTAL AND STRESS FACTORS

 |-----Development Phase------|-------------Environment--------------|---------Stress----------|
                              |--------Average-------|---Cumulative--|  (0=Min, 1=Max Stress)  |
                         Time  Temp  Temp Solar Photop         Evapo |----Water---|--Nitrogen--|
                         Span   Max   Min   Rad  [day]   Rain  Trans  Photo         Photo
                         days    øC    øC MJ/m2     hr     mm     mm  synth Growth  synth Growth
------------------------------------------------------------------------------------------------
 Emergence -First Flower   70  21.4   9.4  17.8  12.25  115.5  118.0  0.000  0.000  0.000  0.000
 First Flower-First Seed   37  25.2  12.1  24.4  13.74  112.3  186.2  0.000  0.000  0.000  0.004
 First Seed - Phys. Mat.   48  28.6  17.6  22.9  13.96  314.1  253.2  0.000  0.000  0.121  0.004
 Emergence  - Phys. Mat.  155  24.5  12.6  21.0  13.13  541.9  557.5  0.000  0.000  0.018  0.002

                   Soybean YIELD :     3827 kg/ha    [Dry weight] 

************************************************************************************************
