*SOIL N BALANCE - CERES SOIL N&C ROUTINES

*DSSAT Cropping System Model Ver. 4.0.2.000               Aug 15, 2016; 16:10:12

*RUN   1        : UYSB                    
 MODEL          : CRGRO040 - Soybean         
 EXPERIMENT     : UYSB0212 SB    late to create DSS                             
 TREATMENT  1   : UYSB                    



                                         INITIAL Year/Doy      FINAL Year/Doy
                                                 1990/224            1991/031
SOIL N BALANCE                                  -----------kg N/ha-----------

   Soil Humus N                                  16646.04            16530.92
   Soil Litter N                                     0.00                0.10
   N in Surface Residue                              0.00                0.38
   Soil NO3                                         30.27               92.77
   Soil NH4                                         23.95               25.03
   Soil Urea                                         0.00                0.00

   Added to / Removed from Soil:
   N in Harvest Residues from Previous Crop          0.00
   N from Organic Applications                       0.00
   N from senesced plant matter                      0.48
   Fertilizer N                                      2.00
   Leached NO3                                                          44.95
   N Denitrified                                                         5.74
   N Uptake From Soil                                                    0.67
   Ammonia volatilization                                                2.18

   Total N balance                               16702.74            16702.74

================================================================================

*DSSAT Cropping System Model Ver. 4.0.2.000               Aug 15, 2016; 16:10:12

*RUN   2        : UYSB                    
 MODEL          : CRGRO040 - Soybean         
 EXPERIMENT     : UYSB0212 SB    late to create DSS                             
 TREATMENT  1   : UYSB                    



                                         INITIAL Year/Doy      FINAL Year/Doy
                                                 1991/224            1992/026
SOIL N BALANCE                                  -----------kg N/ha-----------

   Soil Humus N                                  16646.04            16538.22
   Soil Litter N                                     0.00                4.68
   N in Surface Residue                              0.00               58.15
   Soil NO3                                         30.27               11.60
   Soil NH4                                         23.95                7.85
   Soil Urea                                         0.00                0.00

   Added to / Removed from Soil:
   N in Harvest Residues from Previous Crop          0.00
   N from Organic Applications                       0.00
   N from senesced plant matter                     66.06
   Fertilizer N                                      2.00
   Leached NO3                                                           9.36
   N Denitrified                                                         0.70
   N Uptake From Soil                                                  136.35
   Ammonia volatilization                                                1.41

   Total N balance                               16768.32            16768.32

================================================================================

*DSSAT Cropping System Model Ver. 4.0.2.000               Aug 15, 2016; 16:10:12

*RUN   3        : UYSB                    
 MODEL          : CRGRO040 - Soybean         
 EXPERIMENT     : UYSB0212 SB    late to create DSS                             
 TREATMENT  1   : UYSB                    



                                         INITIAL Year/Doy      FINAL Year/Doy
                                                 1992/224            1993/038
SOIL N BALANCE                                  -----------kg N/ha-----------

   Soil Humus N                                  16646.04            16531.32
   Soil Litter N                                     0.00                7.05
   N in Surface Residue                              0.00               86.88
   Soil NO3                                         30.27               11.35
   Soil NH4                                         23.95                8.26
   Soil Urea                                         0.00                0.00

   Added to / Removed from Soil:
   N in Harvest Residues from Previous Crop          0.00
   N from Organic Applications                       0.00
   N from senesced plant matter                     98.95
   Fertilizer N                                      2.00
   Leached NO3                                                           1.52
   N Denitrified                                                         0.04
   N Uptake From Soil                                                  153.23
   Ammonia volatilization                                                1.56

   Total N balance                               16801.21            16801.21
