*SOIL NITROGEN DAILY OUTPUT FILE

*DSSAT Cropping System Model Ver. 4.0.2.000               Aug 15, 2016; 16:10:12

*RUN   1        : UYSB                    
 MODEL          : CRGRO040 - Soybean         
 EXPERIMENT     : UYSB0212 SB    late to create DSS                             
 TREATMENT  1   : UYSB                    

@YEAR DOY   DAS  NAPC  NI#M    NLCC   NIAD    NOAD   NITD   NHTD  NI1D  NI2D  NI3D  NI4D  NI5D  NI6D  NI7D  NI8D  NI9D  NI10  NH1D  NH2D  NH3D  NH4D  NH5D  NH6D  NH7D  NH8D  NH9D  NH10    NMNC    NITC    NDNC    NIMC    AMLC
 1990 224     0     0     0     0.0   55.0   16645   32.8   22.2   6.7   5.5   5.2   4.7   2.6   0.0   0.1   0.1   0.0   0.0   0.0   1.2   1.5   1.4   1.4  1.50  1.46  1.45  0.00  0.00    0.76    2.49    0.00    0.00    0.00
 1990 225     1     0     0     0.0   55.7   16645   34.2   21.5   6.7   5.8   5.4   4.8   2.7   0.0   0.1   0.1   0.0   0.0   0.2   1.0   1.4   1.3   1.4  1.51  1.42  1.40  0.00  0.00    1.52    3.93    0.00    0.00    0.00
 1990 226     2     0     0     0.0   56.5   16644   35.6   20.9   6.9   6.1   5.6   5.0   2.8   0.1   0.2   0.2   0.0   0.0   0.1   0.8   1.4   1.3   1.3  1.51  1.39  1.36  0.00  0.00    2.27    5.37    0.00    0.00    0.00
 1990 227     3     0     0     0.0   57.2   16643   36.9   20.3   1.5   4.6   7.0   6.5   2.9   0.1   0.2   0.2   0.0   0.0   0.1   0.7   1.3   1.2   1.3  1.51  1.35  1.31  0.00  0.00    3.02    6.66    0.00    0.00    0.00
 1990 228     4     2     2     0.0   59.9   16642   38.7   21.2   3.5   4.5   6.9   6.6   3.1   0.1   0.3   0.3   0.0   0.0   1.8   0.8   1.4   1.2   1.2  1.52  1.32  1.27  0.00  0.00    3.71    7.42    0.00    0.00    0.06
 1990 229     5     2     2     0.0   60.4   16642   40.3   20.1   5.3   4.5   6.8   6.7   3.3   0.1   0.3   0.3   0.0   0.0   0.0   0.9   1.5   1.1   1.2  1.52  1.29  1.23  0.00  0.00    4.36    9.05    0.00    0.00    0.17
 1990 230     6     2     2     0.0   61.0   16641   41.1   19.9   5.4   4.6   6.8   6.8   3.4   0.1   0.3   0.3   0.0   0.0   0.1   0.8   1.6   1.1   1.1  1.52  1.26  1.19  0.00  0.00    4.97    9.87    0.00    0.00    0.17
 1990 231     7     2     2     0.0   61.6   16640   42.1   19.5   5.6   4.7   7.0   6.8   3.5   0.2   0.4   0.4   0.0   0.0   0.1   0.8   1.6   1.1   1.1  1.52  1.23  1.16  0.00  0.00    5.55   10.85    0.00    0.00    0.19
 1990 232     8     2     2     0.0   62.1   16640   43.0   19.1   5.8   4.8   7.1   6.9   3.6   0.2   0.4   0.4   0.0   0.0   0.1   0.7   1.5   1.0   1.1  1.53  1.20  1.12  0.00  0.00    6.11   11.75    0.00    0.00    0.21
 1990 233     9     2     2     0.0   62.7   16639   43.9   18.8   6.0   4.9   7.2   6.9   3.7   0.2   0.5   0.5   0.0   0.0   0.1   0.7   1.5   1.0   1.0  1.53  1.18  1.09  0.00  0.00    6.69   12.65    0.00    0.00    0.23
 1990 234    10     2     2     0.0   63.3   16639   44.8   18.4   6.2   5.0   7.3   7.0   3.7   0.2   0.5   0.5   0.0   0.0   0.1   0.6   1.5   1.0   1.0  1.53  1.15  1.06  0.00  0.00    7.27   13.55    0.00    0.00    0.25
 1990 235    11     2     2     0.0   63.8   16638   45.7   18.1   6.3   5.1   7.4   7.1   3.8   0.2   0.5   0.5   0.0   0.0   0.1   0.6   1.4   0.9   1.0  1.54  1.13  1.02  0.00  0.00    7.85   14.40    0.00    0.00    0.26
 1990 236    12     2     2     0.0   64.3   16638   46.5   17.9   6.5   5.2   7.5   7.1   3.9   0.3   0.6   0.6   0.0   0.0   0.1   0.6   1.4   0.9   1.0  1.54  1.10  0.99  0.00  0.00    8.40   15.20    0.00    0.00    0.28
 1990 237    13     2     2     0.0   64.9   16637   47.2   17.6   6.7   5.2   7.6   7.2   3.9   0.3   0.6   0.6   0.0   0.0   0.1   0.6   1.4   0.9   0.9  1.54  1.08  0.97  0.00  0.00    8.93   15.97    0.00    0.00    0.30
 1990 238    14     2     2     0.0   65.4   16637   48.0   17.4   6.8   5.3   7.7   7.2   4.0   0.3   0.6   0.6   0.0   0.0   0.1   0.6   1.4   0.9   0.9  1.54  1.06  0.94  0.00  0.00    9.47   16.72    0.00    0.00    0.30
 1990 239    15     2     2     0.0   65.9   16636   48.7   17.2   2.8   4.7   7.6   7.4   5.1   0.6   0.7   0.7   0.0   0.0   0.1   0.6   1.3   0.9   0.9  1.55  1.04  0.91  0.00  0.00   10.03   17.50    0.00    0.00    0.31
 1990 240    16     2     2     0.0   66.4   16635   48.8   17.6   2.7   4.6   7.5   7.3   5.1   0.7   0.7   0.7   0.0   0.0   0.2   0.6   1.4   0.9   0.9  1.56  1.04  0.90  0.00  0.00   10.57   17.65    0.00    0.00    0.31
 1990 241    17     2     2     0.2   66.7   16635   48.8   17.9   2.8   4.6   7.4   7.1   5.1   0.8   0.7   0.7   0.0   0.0   0.1   0.7   1.5   0.9   0.9  1.58  1.04  0.90  0.00  0.00   11.09   17.86    0.00    0.00    0.31
 1990 242    18     2     2     0.3   67.1   16634   49.1   18.0   3.0   4.7   7.3   7.0   5.1   0.9   0.7   0.7   0.0   0.0   0.1   0.7   1.6   0.9   1.0  1.59  1.04  0.89  0.00  0.00   11.61   18.18    0.00    0.00    0.32
 1990 243    19     2     2     0.4   67.5   16634   49.3   18.2   3.2   4.7   7.3   6.9   5.1   1.0   0.7   0.7   0.0   0.0   0.1   0.6   1.6   0.9   1.0  1.61  1.04  0.89  0.00  0.00   12.10   18.51    0.00    0.00    0.32
 1990 244    20     2     2     0.4   67.9   16634   49.7   18.2   3.4   4.7   7.4   6.9   5.1   1.0   0.7   0.7   0.0   0.0   0.1   0.6   1.6   1.0   1.0  1.62  1.04  0.88  0.00  0.00   12.54   18.93    0.02    0.00    0.32
 1990 245    21     2     2     0.4   68.3   16633   50.0   18.2   3.6   4.8   7.5   6.9   5.0   1.0   0.7   0.7   0.0   0.0   0.1   0.6   1.5   1.0   1.0  1.63  1.05  0.87  0.00  0.00   12.93   19.31    0.03    0.00    0.32
 1990 246    22     2     2     0.4   68.7   16633   50.4   18.2   3.7   4.8   7.6   6.9   5.0   1.0   0.7   0.7   0.0   0.0   0.1   0.6   1.5   1.0   1.0  1.65  1.05  0.87  0.00  0.00   13.33   19.70    0.04    0.00    0.33
 1990 247    23     2     2     0.4   69.1   16632   50.8   18.3   3.9   4.9   7.6   6.9   5.1   1.0   0.8   0.7   0.0   0.0   0.1   0.6   1.5   1.0   1.0  1.66  1.05  0.86  0.00  0.00   13.74   20.09    0.05    0.00    0.33
 1990 248    24     2     2     0.4   69.4   16632   51.2   18.2   4.0   4.9   7.7   7.0   5.1   1.0   0.8   0.8   0.0   0.0   0.1   0.5   1.5   1.0   1.0  1.67  1.05  0.85  0.00  0.00   14.13   20.52    0.05    0.00    0.33
 1990 249    25     2     2     0.4   69.8   16631   51.7   18.2   4.1   5.0   7.8   7.0   5.1   1.0   0.8   0.8   0.0   0.0   0.1   0.5   1.4   1.0   1.0  1.68  1.05  0.85  0.00  0.00   14.55   20.96    0.05    0.00    0.33
 1990 250    26     2     2     0.4   70.3   16631   52.1   18.2   3.7   5.3   7.9   7.1   5.1   1.0   0.8   0.8   0.0   0.0   0.1   0.5   1.4   0.9   1.1  1.70  1.05  0.84  0.00  0.00   15.00   21.43    0.06    0.00    0.34
 1990 251    27     2     2     0.4   70.8   16631   52.5   18.3   2.3   4.7   8.0   7.5   5.3   1.1   0.8   0.8   0.0   0.0   0.2   0.6   1.4   0.9   1.1  1.71  1.05  0.84  0.00  0.00   15.48   21.82    0.06    0.00    0.34
 1990 252    28     2     2     0.6   71.0   16630   52.5   18.6   2.3   4.7   7.9   7.3   5.4   1.2   0.8   0.8   0.0   0.0   0.2   0.6   1.5   0.9   1.1  1.72  1.05  0.83  0.00  0.00   15.94   21.97    0.08    0.00    0.34
 1990 253    29     2     2     0.7   71.4   16630   52.6   18.8   2.5   4.6   7.8   7.1   5.4   1.3   0.9   0.8   0.0   0.0   0.1   0.7   1.5   1.0   1.1  1.74  1.05  0.83  0.00  0.00   16.44   22.22    0.10    0.00    0.35
 1990 254    30     2     2     0.7   71.9   16629   53.0   19.0   1.6   4.1   7.5   7.2   5.9   1.5   0.9   0.8   0.0   0.0   0.1   0.7   1.6   1.0   1.1  1.75  1.05  0.82  0.00  0.00   16.99   22.60    0.11    0.00    0.35
 1990 255    31     2     2     1.0   72.2   16628   52.9   19.3   1.7   4.1   7.3   6.9   5.8   1.7   1.0   0.8   0.0   0.0   0.1   0.8   1.7   1.0   1.1  1.77  1.05  0.81  0.00  0.00   17.56   22.81    0.17    0.00    0.35
 1990 256    32     2     2     1.1   72.5   16628   52.8   19.6   1.8   4.1   7.2   6.8   5.7   1.7   1.0   0.9   0.0   0.0   0.1   0.8   1.7   1.0   1.1  1.78  1.05  0.81  0.00  0.00   18.12   23.05    0.29    0.00    0.36
 1990 257    33     2     2     1.2   72.9   16627   53.1   19.8   2.0   4.2   7.2   6.7   5.7   1.8   1.0   0.9   0.0   0.0   0.1   0.8   1.8   1.0   1.2  1.79  1.06  0.80  0.00  0.00   18.68   23.46    0.36    0.00    0.36
 1990 258    34     2     2     1.2   73.4   16627   53.6   19.8   2.2   4.2   7.3   6.7   5.6   1.8   1.1   0.9   0.0   0.0   0.1   0.7   1.7   1.1   1.2  1.81  1.06  0.80  0.00  0.00   19.19   24.00    0.38    0.00    0.36
 1990 259    35     2     2     1.2   73.8   16626   54.1   19.7   2.4   4.3   7.4   6.7   5.6   1.8   1.1   0.9   0.0   0.0   0.1   0.7   1.7   1.1   1.2  1.82  1.06  0.79  0.00  0.00   19.65   24.49    0.40    0.00    0.37
 1990 260    36     2     2     1.2   74.2   16626   54.5   19.7   2.6   4.4   7.5   6.7   5.7   1.8   1.1   0.9   0.0   0.0   0.1   0.7   1.7   1.1   1.2  1.83  1.06  0.79  0.00  0.00   20.12   24.97    0.41    0.00    0.37
 1990 261    37     2     2     1.2   74.7   16625   55.0   19.7   1.4   3.7   7.3   6.8   6.1   2.1   1.1   0.9   0.0   0.0   0.1   0.6   1.6   1.1   1.2  1.85  1.06  0.78  0.00  0.00   20.59   25.46    0.42    0.00    0.37
 1990 262    38     2     2     1.5   74.8   16625   54.7   20.0   1.4   3.6   7.1   6.6   6.0   2.2   1.2   0.9   0.0   0.0   0.2   0.7   1.7   1.1   1.2  1.86  1.06  0.78  0.00  0.00   21.09   25.61    0.53    0.00    0.37
 1990 263    39     2     2     1.7   75.1   16624   54.7   20.3   1.5   3.6   7.1   6.5   5.9   2.3   1.3   1.0   0.0   0.0   0.1   0.8   1.8   1.1   1.2  1.87  1.06  0.77  0.00  0.00   21.61   25.86    0.61    0.00    0.38
 1990 264    40     2     2     1.8   75.4   16624   55.0   20.5   1.7   3.7   7.0   6.4   5.9   2.3   1.3   1.0   0.0   0.0   0.1   0.7   1.8   1.1   1.2  1.89  1.06  0.77  0.00  0.00   22.14   26.24    0.65    0.00    0.38
 1990 265    41     2     2     1.8   75.9   16623   55.3   20.6   1.9   3.8   7.1   6.4   5.8   2.3   1.3   1.0   0.0   0.0   0.1   0.7   1.9   1.2   1.3  1.90  1.06  0.76  0.00  0.00   22.66   26.62    0.67    0.00    0.38
 1990 266    42     2     2     1.8   76.4   16623   55.8   20.5   2.1   3.9   7.2   6.4   5.8   2.3   1.4   1.0   0.0   0.0   0.1   0.6   1.8   1.2   1.3  1.91  1.06  0.76  0.00  0.00   23.18   27.19    0.69    0.00    0.39
 1990 267    43     2     2     1.8   76.9   16622   56.4   20.5   2.2   3.9   7.3   6.4   5.8   2.3   1.4   1.0   0.0   0.0   0.1   0.6   1.8   1.2   1.3  1.93  1.06  0.75  0.00  0.00   23.69   27.73    0.70    0.00    0.39
 1990 268    44     2     2     1.8   77.4   16622   56.9   20.5   2.4   4.0   7.4   6.4   5.9   2.4   1.4   1.0   0.0   0.0   0.1   0.6   1.7   1.2   1.3  1.94  1.06  0.75  0.00  0.00   24.19   28.24    0.71    0.00    0.39
 1990 269    45     2     2     1.8   77.8   16621   57.5   20.4   2.6   4.1   7.6   6.5   5.9   2.4   1.4   1.0   0.0   0.0   0.1   0.6   1.7   1.2   1.3  1.95  1.06  0.74  0.00  0.00   24.68   28.83    0.71    0.00    0.40
 1990 270    46     2     2     1.8   78.3   16621   58.0   20.3   2.7   4.2   7.7   6.5   5.9   2.4   1.4   1.1   0.0   0.0   0.1   0.6   1.6   1.1   1.3  1.96  1.06  0.74  0.00  0.00   25.16   29.40    0.72    0.00    0.40
 1990 271    47     2     2     1.8   78.8   16620   58.6   20.2   2.9   4.3   7.8   6.6   5.9   2.4   1.4   1.1   0.0   0.0   0.1   0.6   1.6   1.1   1.3  1.98  1.06  0.73  0.00  0.00   25.67   29.99    0.73    0.00    0.40
 1990 272    48     2     2     1.8   79.4   16620   59.2   20.1   3.0   4.3   7.9   6.7   5.9   2.4   1.4   1.1   0.0   0.0   0.1   0.5   1.6   1.1   1.3  1.99  1.07  0.73  0.00  0.00   26.22   30.60    0.73    0.00    0.40
 1990 273    49     2     2     1.8   79.9   16619   59.9   20.1   3.2   4.4   8.0   6.7   6.0   2.4   1.4   1.1   0.0   0.0   0.1   0.5   1.5   1.0   1.3  2.00  1.07  0.72  0.00  0.00   26.79   31.25    0.74    0.00    0.41
 1990 274    50     2     2     1.8   80.5   16619   60.5   20.0   3.4   4.6   8.1   6.8   6.0   2.4   1.4   1.1   0.0   0.0   0.1   0.5   1.5   1.0   1.3  2.02  1.07  0.72  0.00  0.00   27.41   31.93    0.74    0.00    0.41
 1990 275    51     2     2     1.8   81.2   16618   61.2   19.9   3.6   4.7   8.3   6.9   6.0   2.4   1.4   1.1   0.0   0.0   0.1   0.5   1.4   1.0   1.3  2.03  1.07  0.71  0.00  0.00   28.06   32.65    0.75    0.00    0.41
 1990 276    52     2     2     1.8   81.8   16617   61.9   19.9   3.8   4.8   8.4   6.9   6.0   2.4   1.5   1.1   0.0   0.0   0.1   0.5   1.4   0.9   1.4  2.04  1.07  0.71  0.00  0.00   28.72   33.36    0.76    0.00    0.44
 1990 277    53     2     2     1.8   82.5   16617   62.7   19.8   4.0   4.9   8.5   7.0   6.0   2.4   1.5   1.1   0.0   0.0   0.1   0.5   1.4   0.9   1.4  2.06  1.07  0.70  0.00  0.00   29.41   34.08    0.76    0.00    0.45
 1990 278    54     2     2     1.8   83.2   16616   63.4   19.8   4.1   5.1   8.7   7.1   6.1   2.4   1.5   1.1   0.0   0.0   0.1   0.5   1.4   0.9   1.4  2.07  1.07  0.70  0.00  0.00   30.14   34.84    0.76    0.00    0.47
 1990 279    55     2     2     1.8   83.9   16615   64.3   19.6   2.5   5.0   9.2   7.4   6.2   2.4   1.5   1.1   0.0   0.0   0.1   0.5   1.3   0.9   1.3  2.09  1.07  0.70  0.00  0.00   30.85   35.68    0.77    0.00    0.49
 1990 280    56     2     2     1.9   84.5   16615   64.5   20.0   2.3   4.9   9.1   7.5   6.3   2.5   1.5   1.1   0.0   0.0   0.1   0.6   1.4   0.9   1.3  2.10  1.07  0.69  0.00  0.00   31.52   35.95    0.77    0.00    0.51
 1990 281    57     2     2     2.5   84.5   16614   64.1   20.4   1.0   3.4   7.4   6.8   6.6   3.3   2.0   1.4   0.0   0.0   0.2   0.7   1.5   0.9   1.3  2.11  1.07  0.69  0.00  0.00   32.18   36.16    0.78    0.00    0.53
 1990 282    58     2     2     3.1   84.4   16613   63.6   20.8   1.2   3.3   7.2   6.6   6.5   3.4   2.1   1.5   0.0   0.0   0.1   0.8   1.6   0.9   1.4  2.13  1.08  0.69  0.00  0.00   32.80   36.38    0.85    0.00    0.57
 1990 283    59     2     2     3.6   84.5   16613   63.3   21.1   1.3   3.3   7.2   6.5   6.4   3.4   2.2   1.5   0.0   0.0   0.1   0.9   1.7   1.0   1.4  2.15  1.08  0.69  0.00  0.00   33.40   36.60    0.89    0.00    0.58
 1990 284    60     2     2     3.8   84.8   16612   63.5   21.3   1.5   3.5   7.2   6.4   6.3   3.4   2.2   1.5   0.0   0.0   0.1   0.8   1.7   1.0   1.4  2.16  1.08  0.68  0.00  0.00   34.01   37.05    0.98    0.00    0.60
 1990 285    61     2     2     3.9   85.2   16611   63.9   21.2   0.8   2.7   6.4   6.2   6.5   3.9   2.5   1.6   0.0   0.0   0.1   0.7   1.7   1.0   1.4  2.17  1.08  0.68  0.00  0.00   34.61   37.69    1.02    0.00    0.62
 1990 286    62     2     2     4.6   84.8   16611   63.2   21.6   0.9   2.7   6.3   6.0   6.3   3.8   2.6   1.7   0.0   0.0   0.1   0.8   1.8   1.0   1.4  2.19  1.09  0.68  0.00  0.00   35.20   37.87    1.20    0.00    0.64
 1990 287    63     2     2     5.1   84.9   16610   63.1   21.8   1.0   2.8   6.3   5.9   6.2   3.8   2.6   1.7   0.0   0.0   0.1   0.7   1.8   1.1   1.4  2.20  1.09  0.67  0.00  0.00   35.80   38.28    1.31    0.00    0.66
 1990 288    64     2     2     5.3   85.2   16610   63.2   22.0   1.2   2.9   6.3   5.8   6.1   3.8   2.6   1.8   0.0   0.0   0.1   0.7   1.9   1.1   1.4  2.22  1.09  0.67  0.00  0.00   36.40   38.70    1.38    0.00    0.68
 1990 289    65     2     2     5.4   85.6   16609   63.7   21.9   1.3   3.0   6.5   5.8   6.1   3.8   2.6   1.8   0.0   0.0   0.1   0.6   1.8   1.1   1.4  2.23  1.09  0.67  0.00  0.00   37.00   39.34    1.42    0.00    0.68
 1990 290    66     2     2     5.5   86.1   16608   64.2   21.9   1.5   3.1   6.6   5.8   6.1   3.8   2.6   1.8   0.0   0.0   0.1   0.6   1.8   1.1   1.5  2.24  1.09  0.66  0.00  0.00   37.60   39.99    1.44    0.00    0.68
 1990 291    67     2     2     5.5   86.7   16608   64.8   21.8   1.7   3.3   6.8   5.9   6.1   3.8   2.6   1.8   0.0   0.0   0.1   0.6   1.7   1.1   1.5  2.25  1.09  0.66  0.00  0.00   38.20   40.62    1.45    0.00    0.68
 1990 292    68     2     2     5.5   87.3   16607   65.5   21.8   1.7   3.5   6.9   5.9   6.2   3.8   2.6   1.8   0.0   0.0   0.1   0.6   1.7   1.1   1.5  2.27  1.09  0.66  0.00  0.00   38.81   41.26    1.46    0.00    0.69
 1990 293    69     2     2     5.5   87.9   16607   66.2   21.7   1.7   3.6   7.1   6.0   6.2   3.8   2.6   1.8   0.0   0.0   0.1   0.6   1.6   1.1   1.5  2.28  1.09  0.65  0.00  0.00   39.42   41.99    1.47    0.00    0.69
 1990 294    70     2     2     5.5   88.5   16606   66.9   21.6   1.8   3.8   7.2   6.0   6.2   3.8   2.7   1.8   0.0   0.0   0.1   0.5   1.6   1.1   1.5  2.29  1.09  0.65  0.00  0.00   40.05   42.72    1.48    0.00    0.69
 1990 295    71     2     2     5.5   89.1   16605   67.6   21.5   2.0   3.9   7.4   6.1   6.2   3.8   2.7   1.9   0.0   0.0   0.1   0.5   1.5   1.0   1.5  2.30  1.10  0.65  0.00  0.00   40.70   43.46    1.49    0.00    0.70
 1990 296    72     2     2     5.5   89.8   16605   68.4   21.4   2.1   4.0   7.5   6.2   6.3   3.8   2.7   1.9   0.0   0.0   0.1   0.5   1.5   1.0   1.5  2.32  1.10  0.64  0.00  0.00   41.37   44.22    1.50    0.00    0.70
 1990 297    73     2     2     5.5   90.4   16604   69.1   21.3   2.3   4.2   7.7   6.2   6.3   3.9   2.7   1.9   0.0   0.0   0.1   0.5   1.4   1.0   1.5  2.33  1.10  0.64  0.00  0.00   42.05   44.97    1.51    0.00    0.70
 1990 298    74     2     2     5.5   91.1   16603   69.8   21.2   2.5   4.3   7.8   6.3   6.3   3.9   2.7   1.9   0.0   0.0   0.1   0.5   1.4   0.9   1.5  2.34  1.10  0.63  0.00  0.00   42.72   45.70    1.52    0.00    0.70
 1990 299    75     2     2     5.5   91.7   16603   70.5   21.2   2.7   4.4   8.0   6.4   6.3   3.9   2.7   1.9   0.0   0.0   0.1   0.5   1.4   0.9   1.5  2.36  1.10  0.63  0.00  0.00   43.39   46.42    1.53    0.00    0.73
 1990 300    76     2     2     5.5   92.4   16602   71.2   21.1   2.9   4.5   8.1   6.4   6.4   3.9   2.7   1.9   0.0   0.0   0.1   0.5   1.4   0.9   1.5  2.37  1.10  0.63  0.00  0.00   44.07   47.12    1.54    0.00    0.75
 1990 301    77     2     2     5.5   93.0   16601   72.0   21.1   3.0   4.6   8.2   6.5   6.4   3.9   2.7   1.9   0.0   0.0   0.1   0.5   1.3   0.9   1.5  2.38  1.10  0.62  0.00  0.00   44.77   47.84    1.55    0.00    0.77
 1990 302    78     2     2     5.5   93.7   16601   72.6   21.1   3.1   4.8   8.4   6.6   6.4   3.9   2.7   1.9   0.0   0.0   0.1   0.5   1.3   0.8   1.5  2.39  1.10  0.62  0.00  0.00   45.46   48.54    1.56    0.00    0.79
 1990 303    79     2     2     5.5   94.4   16600   73.3   21.0   1.9   4.5   8.6   7.0   6.6   3.9   2.8   1.9   0.0   0.0   0.1   0.5   1.3   0.8   1.5  2.41  1.10  0.62  0.00  0.00   46.17   49.26    1.56    0.00    0.81
 1990 304    80     2     2     5.9   94.7   16599   73.3   21.5   2.0   4.5   8.4   6.8   6.5   4.0   2.8   2.0   0.0   0.0   0.1   0.6   1.4   0.8   1.5  2.42  1.10  0.61  0.00  0.00   46.89   49.53    1.59    0.00    0.83
 1990 305    81     2     2     5.9   95.4   16598   73.7   21.7   2.3   4.6   8.4   6.8   6.6   4.0   2.9   2.0   0.0   0.0   0.1   0.6   1.5   0.9   1.6  2.43  1.10  0.61  0.00  0.00   47.61   50.00    1.60    0.00    0.84
 1990 306    82     2     2     6.0   95.9   16598   74.0   21.9   2.5   4.7   8.4   6.8   6.6   4.0   2.9   2.0   0.0   0.0   0.1   0.5   1.6   0.9   1.6  2.45  1.10  0.61  0.00  0.00   48.32   50.46    1.63    0.00    0.86
 1990 307    83     2     2     6.1   96.6   16597   74.7   21.9   2.8   4.8   8.5   6.8   6.6   4.0   2.9   2.0   0.0   0.0   0.1   0.5   1.5   0.9   1.6  2.46  1.10  0.60  0.00  0.00   49.04   51.17    1.64    0.00    0.88
 1990 308    84     2     2     6.1   97.2   16596   75.3   21.9   1.5   3.9   8.1   6.9   7.0   4.4   3.1   2.1   0.0   0.0   0.1   0.5   1.5   0.9   1.6  2.47  1.10  0.60  0.00  0.00   49.76   51.88    1.66    0.00    0.90
 1990 309    85     2     2     6.8   96.9   16596   74.6   22.4   1.6   3.9   7.9   6.7   6.8   4.4   3.1   2.2   0.0   0.0   0.1   0.6   1.6   1.0   1.6  2.49  1.10  0.60  0.00  0.00   50.44   52.10    1.84    0.00    0.92
 1990 310    86     2     2     7.3   97.1   16595   74.5   22.6   1.8   4.0   7.9   6.6   6.6   4.4   3.2   2.2   0.0   0.0   0.1   0.6   1.7   1.0   1.6  2.50  1.10  0.60  0.00  0.00   51.11   52.52    1.95    0.00    0.94
 1990 311    87     2     2     7.3   97.6   16594   74.8   22.8   2.0   4.1   7.9   6.5   6.6   4.4   3.2   2.3   0.0   0.0   0.1   0.6   1.7   1.0   1.6  2.51  1.10  0.59  0.00  0.00   51.76   52.94    2.01    0.00    0.96
 1990 312    88     2     2     7.5   97.9   16594   75.2   22.8   2.2   4.2   8.1   6.5   6.6   4.4   3.2   2.3   0.0   0.0   0.1   0.5   1.7   1.0   1.6  2.52  1.10  0.59  0.00  0.00   52.39   53.57    2.06    0.00    0.98
 1990 313    89     2     2     7.6   98.4   16593   75.6   22.8   2.4   4.3   8.2   6.5   6.6   4.4   3.2   2.3   0.0   0.0   0.1   0.5   1.6   1.1   1.6  2.54  1.10  0.59  0.00  0.00   52.98   54.14    2.09    0.00    1.00
 1990 314    90     2     2     7.6   98.9   16592   76.2   22.8   2.5   4.4   8.3   6.5   6.6   4.4   3.2   2.3   0.0   0.0   0.1   0.5   1.6   1.1   1.6  2.55  1.10  0.59  0.00  0.00   53.56   54.71    2.11    0.00    1.02
 1990 315    91     2     2     7.6   99.5   16592   76.7   22.8   2.7   4.5   8.4   6.5   6.6   4.4   3.3   2.3   0.0   0.0   0.1   0.5   1.5   1.1   1.6  2.56  1.10  0.58  0.00  0.00   54.17   55.29    2.12    0.00    1.04
 1990 316    92     2     2     7.6  100.1   16591   77.4   22.7   2.9   4.6   8.6   6.6   6.6   4.4   3.3   2.3   0.0   0.0   0.1   0.5   1.5   1.1   1.6  2.57  1.10  0.58  0.00  0.00   54.80   56.01    2.13    0.00    1.06
 1990 317    93     2     2     7.6  100.7   16591   78.1   22.6   3.0   4.7   8.7   6.7   6.7   4.4   3.3   2.3   0.0   0.0   0.1   0.5   1.5   1.0   1.6  2.58  1.10  0.58  0.00  0.00   55.45   56.71    2.15    0.00    1.08
 1990 318    94     2     2     7.6  101.4   16590   78.9   22.5   3.2   4.8   8.9   6.8   6.7   4.4   3.3   2.3   0.0   0.0   0.1   0.5   1.4   1.0   1.6  2.59  1.10  0.57  0.00  0.00   56.17   57.51    2.16    0.00    1.10
 1990 319    95     2     2     7.6  102.1   16589   79.8   22.4   3.4   5.0   9.0   6.8   6.7   4.4   3.3   2.3   0.0   0.0   0.1   0.5   1.4   0.9   1.7  2.61  1.10  0.57  0.00  0.00   56.94   58.38    2.17    0.00    1.12
 1990 320    96     2     2     8.3  102.2   16588   79.9   22.3   1.3   3.5   7.7   6.8   7.0   5.0   3.8   2.7   0.0   0.0   0.1   0.5   1.3   0.9   1.7  2.62  1.10  0.57  0.00  0.00   57.71   59.21    2.19    0.00    1.14
 1990 321    97     2     2     9.5  101.4   16588   78.7   22.8   1.5   3.4   7.5   6.6   6.8   5.0   3.8   2.8   0.0   0.0   0.1   0.6   1.4   0.9   1.7  2.63  1.11  0.57  0.00  0.00   58.43   59.43    2.37    0.00    1.16
 1990 322    98     2     2    10.3  101.3   16587   78.3   23.0   1.7   3.6   7.4   6.5   6.7   4.9   3.8   2.8   0.0   0.0   0.1   0.6   1.5   1.0   1.7  2.65  1.11  0.57  0.00  0.00   59.18   59.90    2.47    0.00    1.18
 1990 323    99     2     2    10.7  101.5   16586   78.3   23.3   1.9   3.7   7.5   6.5   6.6   4.9   3.8   2.8   0.0   0.0   0.1   0.5   1.6   1.0   1.7  2.66  1.11  0.57  0.00  0.00   59.92   60.37    2.54    0.00    1.19
 1990 324   100     2     2    11.0  102.0   16585   78.7   23.2   2.1   3.8   7.6   6.5   6.6   4.9   3.8   2.8   0.0   0.0   0.1   0.5   1.6   1.0   1.7  2.68  1.12  0.56  0.00  0.00   60.66   61.13    2.57    0.00    1.21
 1990 325   101     2     2    11.0  102.6   16585   79.4   23.2   2.3   3.9   7.8   6.5   6.6   4.9   3.8   2.8   0.0   0.0   0.1   0.5   1.5   1.0   1.7  2.69  1.12  0.56  0.00  0.00   61.42   61.90    2.60    0.00    1.23
 1990 326   102     2     2    11.1  103.3   16584   80.1   23.2   2.6   4.1   8.0   6.5   6.6   4.9   3.8   2.8   0.0   0.0   0.1   0.5   1.4   1.1   1.7  2.70  1.12  0.56  0.00  0.00   62.23   62.71    2.63    0.00    1.25
 1990 327   103     2     2    11.1  104.1   16583   80.9   23.2   2.8   4.3   8.2   6.5   6.7   4.9   3.8   2.8   0.0   0.0   0.1   0.5   1.4   1.1   1.7  2.71  1.12  0.56  0.00  0.00   63.04   63.53    2.64    0.00    1.27
 1990 328   104     2     2    11.1  104.8   16582   81.8   23.0   3.0   4.4   8.4   6.6   6.7   4.9   3.9   2.9   0.0   0.0   0.1   0.5   1.3   1.0   1.7  2.73  1.12  0.55  0.00  0.00   63.86   64.45    2.66    0.00    1.29
 1990 329   105     2     2    11.1  105.6   16581   82.6   22.9   3.2   4.6   8.5   6.7   6.7   4.9   3.9   2.9   0.0   0.0   0.1   0.5   1.3   1.0   1.7  2.74  1.12  0.55  0.00  0.00   64.64   65.31    2.67    0.00    1.31
 1990 330   106     2     2    11.1  106.3   16581   83.4   22.9   2.1   4.5   8.9   7.0   6.8   4.9   3.9   2.9   0.0   0.0   0.1   0.5   1.3   1.0   1.7  2.75  1.12  0.55  0.00  0.00   65.44   66.17    2.69    0.00    1.33
 1990 331   107     2     2    11.5  106.7   16580   83.4   23.3   2.3   4.5   8.8   6.9   6.8   5.0   3.9   2.9   0.0   0.0   0.1   0.6   1.4   1.0   1.7  2.76  1.12  0.55  0.00  0.00   66.20   66.48    2.70    0.00    1.35
 1990 332   108     2     2    11.6  107.2   16579   83.7   23.5   2.5   4.6   8.7   6.9   6.8   5.0   3.9   2.9   0.0   0.0   0.1   0.5   1.5   1.0   1.7  2.77  1.12  0.54  0.00  0.00   66.93   66.99    2.72    0.00    1.37
 1990 333   109     2     2    11.6  107.9   16578   84.2   23.7   2.7   4.7   8.7   6.9   6.9   5.0   4.0   2.9   0.0   0.0   0.1   0.5   1.6   1.0   1.7  2.79  1.12  0.54  0.00  0.00   67.65   67.47    2.73    0.00    1.38
 1990 334   110     2     2    11.6  108.6   16578   84.9   23.7   3.0   4.8   8.9   6.9   6.9   5.0   4.0   3.0   0.0   0.0   0.1   0.5   1.5   1.0   1.7  2.80  1.12  0.54  0.00  0.00   68.36   68.19    2.75    0.00    1.40
 1990 335   111     2     2    11.6  109.2   16577   85.5   23.7   3.2   4.9   9.0   6.9   6.9   5.0   4.0   3.0   0.0   0.0   0.1   0.5   1.5   1.1   1.7  2.81  1.12  0.54  0.00  0.00   69.06   68.87    2.77    0.00    1.42
 1990 336   112     2     2    11.6  109.9   16576   86.2   23.7   3.5   5.0   9.2   7.0   6.9   5.0   4.0   3.0   0.0   0.0   0.1   0.5   1.4   1.1   1.7  2.82  1.12  0.54  0.00  0.00   69.77   69.55    2.78    0.00    1.44
 1990 337   113     2     2    11.6  110.5   16576   87.0   23.6   3.1   5.3   9.3   7.1   7.0   5.0   4.0   3.0   0.0   0.0   0.1   0.5   1.4   1.0   1.7  2.83  1.12  0.53  0.00  0.00   70.47   70.34    2.80    0.00    1.46
 1990 338   114     2     2    11.6  111.2   16575   87.6   23.6   3.2   5.4   9.5   7.1   7.0   5.0   4.0   3.0   0.0   0.0   0.1   0.6   1.4   1.0   1.7  2.84  1.12  0.53  0.00  0.00   71.17   70.98    2.81    0.00    1.48
 1990 339   115     2     2    11.6  111.9   16574   88.3   23.5   3.3   5.5   9.6   7.2   7.0   5.0   4.0   3.0   0.0   0.0   0.1   0.6   1.3   1.0   1.7  2.85  1.12  0.53  0.00  0.00   71.87   71.76    2.82    0.00    1.50
 1990 340   116     2     2    11.9  112.3   16573   88.9   23.4   1.5   4.1   8.5   7.4   7.4   5.6   4.5   3.2   0.0   0.0   0.1   0.5   1.3   0.9   1.7  2.86  1.12  0.53  0.00  0.00   72.60   72.56    2.84    0.00    1.52
 1990 341   117     2     2    19.0  105.7   16573   81.8   23.9   0.6   2.3   6.1   6.0   6.7   5.8   4.9   3.9   0.0   0.0   0.1   0.7   1.4   1.0   1.8  2.88  1.12  0.53  0.00  0.00   73.31   72.79    3.03    0.00    1.54
 1990 342   118     2     2    20.7  104.4   16572   80.1   24.3   0.7   2.3   5.9   5.9   6.4   5.6   4.9   3.9   0.0   0.0   0.1   0.8   1.5   1.0   1.8  2.89  1.13  0.53  0.00  0.00   74.03   73.02    3.23    0.00    1.56
 1990 343   119     2     2    21.8  104.0   16571   79.4   24.5   0.9   2.5   5.9   5.8   6.3   5.5   4.8   3.9   0.0   0.0   0.1   0.7   1.6   1.0   1.8  2.91  1.13  0.53  0.00  0.00   74.78   73.56    3.35    0.00    1.58
 1990 344   120     2     2    27.3   99.1   16571   74.3   24.7   0.4   1.5   4.2   4.6   5.6   5.6   5.2   4.5   0.0   0.0   0.1   0.6   1.7   1.0   1.8  2.92  1.13  0.53  0.00  0.00   75.49   74.06    3.42    0.00    1.60
 1990 345   121     2     2    29.3   97.4   16570   72.2   25.2   0.4   1.5   4.1   4.5   5.4   5.5   5.1   4.4   0.0   0.0   0.2   0.7   1.8   1.1   1.8  2.93  1.13  0.53  0.00  0.00   76.12   74.23    3.71    0.00    1.62
 1990 346   122     2     2    30.5   96.7   16569   71.2   25.5   0.6   1.5   4.0   4.4   5.3   5.4   5.0   4.3   0.0   0.0   0.1   0.8   1.9   1.1   1.8  2.95  1.14  0.53  0.00  0.00   76.77   74.54    3.87    0.00    1.62
 1990 347   123     2     2    31.1   96.5   16569   70.9   25.6   0.8   1.6   4.0   4.3   5.3   5.3   5.0   4.3   0.0   0.0   0.1   0.7   1.9   1.1   1.8  2.96  1.14  0.52  0.00  0.00   77.39   75.03    3.97    0.00    1.62
 1990 348   124     2     2    31.5   96.7   16568   71.2   25.5   0.9   1.8   4.2   4.3   5.2   5.3   4.9   4.3   0.0   0.0   0.1   0.7   1.9   1.1   1.8  2.97  1.14  0.52  0.00  0.00   78.01   75.74    4.01    0.00    1.63
 1990 349   125     2     2    31.7   97.1   16567   71.7   25.4   1.1   1.9   4.4   4.3   5.2   5.3   4.9   4.3   0.0   0.0   0.1   0.6   1.8   1.1   1.8  2.98  1.14  0.52  0.00  0.00   78.64   76.46    4.04    0.00    1.63
 1990 350   126     2     2    31.7   97.7   16567   72.4   25.3   1.3   2.1   4.5   4.4   5.3   5.3   4.9   4.3   0.0   0.0   0.1   0.6   1.7   1.2   1.8  2.99  1.14  0.52  0.00  0.00   79.31   77.22    4.05    0.00    1.63
 1990 351   127     2     2    31.7   98.4   16566   73.2   25.2   1.4   2.2   4.7   4.4   5.3   5.3   4.9   4.3   0.0   0.0   0.1   0.6   1.6   1.2   1.8  3.00  1.14  0.52  0.00  0.00   80.01   78.00    4.07    0.00    1.63
 1990 352   128     2     2    31.9   99.0   16565   73.9   25.0   0.8   2.0   4.5   4.5   5.4   5.5   5.1   4.4   0.0   0.0   0.1   0.5   1.6   1.1   1.8  3.01  1.14  0.52  0.00  0.00   80.75   78.94    4.08    0.00    1.64
 1990 353   129     2     2    33.3   98.1   16565   72.6   25.5   1.0   1.9   4.4   4.3   5.2   5.4   5.0   4.4   0.0   0.0   0.1   0.7   1.7   1.2   1.8  3.02  1.14  0.51  0.00  0.00   81.48   79.23    4.21    0.00    1.64
 1990 354   130     2     2    34.1   98.0   16564   72.3   25.7   1.2   2.1   4.4   4.3   5.1   5.3   5.0   4.4   0.0   0.0   0.1   0.6   1.8   1.2   1.9  3.04  1.14  0.51  0.00  0.00   82.26   79.79    4.29    0.00    1.64
 1990 355   131     2     2    34.5   98.3   16563   72.4   25.9   1.4   2.3   4.5   4.3   5.1   5.3   5.0   4.4   0.0   0.0   0.1   0.5   1.9   1.2   1.9  3.05  1.14  0.51  0.00  0.00   83.03   80.37    4.33    0.00    1.64
 1990 356   132     2     2    34.7   98.9   16562   73.2   25.8   0.9   2.1   4.5   4.3   5.3   5.4   5.1   4.5   0.0   0.0   0.1   0.5   1.8   1.2   1.9  3.06  1.14  0.51  0.00  0.00   83.80   81.26    4.36    0.00    1.65
 1990 357   133     2     2    36.0   98.2   16561   72.0   26.2   1.1   2.1   4.4   4.2   5.1   5.3   5.1   4.5   0.0   0.0   0.1   0.6   1.9   1.3   1.9  3.07  1.14  0.51  0.00  0.00   84.55   81.56    4.50    0.00    1.65
 1990 358   134     2     2    36.1   98.7   16561   72.1   26.6   0.9   2.0   4.3   4.2   5.1   5.3   5.1   4.5   0.0   0.0   0.1   0.7   2.0   1.3   1.9  3.09  1.14  0.50  0.00  0.00   85.31   81.94    4.59    0.00    1.65
 1990 359   135     2     2    37.3   98.1   16560   71.1   27.0   1.1   2.1   4.3   4.1   4.9   5.2   5.1   4.5   0.0   0.0   0.1   0.8   2.0   1.3   1.9  3.10  1.14  0.50  0.00  0.00   86.05   82.26    4.71    0.00    1.65
 1990 360   136     2     2    38.0   98.1   16559   70.7   27.3   1.3   2.1   4.3   4.0   4.8   5.2   5.0   4.5   0.0   0.0   0.1   0.9   2.1   1.3   1.9  3.11  1.15  0.50  0.00  0.00   86.78   82.66    4.79    0.00    1.66
 1990 361   137     2     2    38.4   98.4   16559   71.0   27.4   1.5   2.3   4.3   4.0   4.8   5.1   5.0   4.5   0.0   0.0   0.1   0.8   2.2   1.3   1.9  3.12  1.15  0.50  0.00  0.00   87.53   83.36    4.84    0.00    1.66
 1990 362   138     2     2    38.5   99.0   16558   72.0   27.0   1.7   2.6   4.6   4.0   4.8   5.2   5.0   4.5   0.0   0.0   0.1   0.7   2.1   1.4   1.9  3.13  1.14  0.50  0.00  0.00   88.32   84.46    4.87    0.00    1.66
 1990 363   139     2     2    38.5   99.7   16557   72.9   26.8   1.9   2.8   4.8   4.0   4.8   5.2   5.0   4.6   0.0   0.0   0.1   0.6   1.9   1.4   1.9  3.14  1.14  0.50  0.00  0.00   89.08   85.44    4.89    0.00    1.66
 1990 364   140     2     2    38.5  100.4   16556   73.8   26.6   2.1   2.9   5.1   4.0   4.9   5.2   5.1   4.6   0.0   0.0   0.1   0.6   1.8   1.4   1.9  3.15  1.14  0.49  0.00  0.00   89.84   86.37    4.90    0.00    1.67
 1990 365   141     2     2    38.5  101.2   16555   74.7   26.5   2.4   3.1   5.3   4.1   4.9   5.2   5.1   4.6   0.0   0.0   0.1   0.5   1.7   1.4   1.9  3.16  1.14  0.49  0.00  0.00   90.61   87.28    4.92    0.00    1.67
 1991 001   142     2     2    38.5  101.9   16555   75.7   26.2   2.6   3.3   5.5   4.2   4.9   5.2   5.1   4.6   0.0   0.0   0.1   0.5   1.6   1.3   1.9  3.17  1.14  0.49  0.00  0.00   91.37   88.30    4.93    0.00    1.67
 1991 002   143     2     2    38.5  102.6   16554   76.6   26.0   2.8   3.4   5.7   4.3   5.0   5.2   5.1   4.6   0.0   0.0   0.1   0.5   1.6   1.3   1.9  3.18  1.14  0.49  0.00  0.00   92.13   89.27    4.94    0.00    1.68
 1991 003   144     2     2    38.5  103.4   16553   77.6   25.8   3.0   3.6   5.9   4.4   5.0   5.2   5.1   4.6   0.0   0.0   0.1   0.5   1.5   1.2   1.9  3.19  1.14  0.49  0.00  0.00   92.92   90.27    4.95    0.00    1.68
 1991 004   145     2     2    38.5  104.2   16552   78.6   25.6   3.3   3.7   6.1   4.5   5.1   5.2   5.1   4.6   0.0   0.0   0.1   0.5   1.4   1.1   1.9  3.20  1.14  0.49  0.00  0.00   93.74   91.30    4.97    0.00    1.68
 1991 005   146     2     2    38.5  105.0   16551   79.6   25.4   3.5   3.9   6.3   4.6   5.1   5.2   5.1   4.6   0.0   0.0   0.1   0.5   1.4   1.1   1.9  3.21  1.14  0.48  0.00  0.00   94.57   92.30    4.98    0.00    1.70
 1991 006   147     2     2    38.5  105.8   16551   80.5   25.3   3.7   4.1   6.4   4.7   5.1   5.2   5.1   4.6   0.0   0.0   0.1   0.4   1.3   1.0   1.9  3.22  1.14  0.48  0.00  0.00   95.39   93.24    4.99    0.00    1.72
 1991 007   148     2     2    38.5  106.6   16550   81.4   25.1   3.9   4.2   6.6   4.8   5.2   5.3   5.1   4.6   0.0   0.0   0.1   0.4   1.3   1.0   1.9  3.23  1.14  0.48  0.00  0.00   96.21   94.19    5.00    0.00    1.74
 1991 008   149     2     2    38.5  107.4   16549   82.3   25.0   4.1   4.4   6.8   4.9   5.2   5.3   5.2   4.6   0.0   0.0   0.1   0.4   1.3   0.9   1.9  3.24  1.14  0.48  0.00  0.00   97.05   95.11    5.01    0.00    1.75
 1991 009   150     2     2    38.5  108.2   16548   83.5   24.7   4.3   4.5   7.0   5.0   5.4   5.3   5.2   4.6   0.0   0.0   0.1   0.4   1.2   0.9   1.8  3.26  1.14  0.48  0.00  0.00   97.92   96.28    5.02    0.00    1.77
 1991 010   151     2     2    38.5  109.0   16547   84.6   24.5   4.3   4.8   7.1   5.1   5.5   5.3   5.2   4.6   0.0   0.0   0.1   0.4   1.2   0.9   1.7  3.27  1.14  0.48  0.00  0.00   98.76   97.34    5.03    0.00    1.79
 1991 011   152     2     2    38.5  109.8   16546   85.6   24.2   4.5   5.0   7.3   5.1   5.6   5.3   5.2   4.6   0.0   0.0   0.1   0.4   1.2   0.8   1.6  3.28  1.14  0.47  0.00  0.00   99.62   98.44    5.04    0.00    1.81
 1991 012   153     2     2    38.5  110.6   16546   86.6   24.0   4.7   5.1   7.5   5.2   5.7   5.3   5.2   4.6   0.0   0.0   0.1   0.4   1.1   0.8   1.5  3.29  1.14  0.47  0.00  0.00  100.46   99.44    5.05    0.00    1.83
 1991 013   154     2     2    38.5  111.4   16545   87.6   23.8   4.9   5.3   7.6   5.3   5.9   5.3   5.2   4.6   0.0   0.0   0.1   0.4   1.1   0.8   1.5  3.30  1.14  0.47  0.00  0.00  101.28  100.43    5.06    0.00    1.85
 1991 014   155     2     2    38.5  112.2   16544   88.4   23.7   5.0   5.4   7.7   5.4   6.0   5.3   5.2   4.6   0.0   0.0   0.1   0.4   1.1   0.8   1.4  3.31  1.14  0.47  0.00  0.00  102.05  101.29    5.07    0.00    1.86
 1991 015   156     2     2    38.5  112.9   16543   89.3   23.6   5.3   5.6   7.9   5.4   6.1   5.3   5.2   4.6   0.0   0.0   0.1   0.4   1.1   0.7   1.3  3.32  1.14  0.47  0.00  0.00  102.84  102.20    5.08    0.00    1.88
 1991 016   157     2     2    38.5  113.7   16542   90.2   23.5   5.4   5.7   8.0   5.5   6.1   5.3   5.2   4.7   0.0   0.0   0.1   0.4   1.1   0.7   1.3  3.33  1.14  0.47  0.00  0.00  103.63  103.08    5.09    0.00    1.90
 1991 017   158     2     2    38.5  114.4   16542   91.0   23.4   5.6   5.9   8.2   5.5   6.2   5.4   5.2   4.7   0.0   0.0   0.1   0.4   1.1   0.7   1.2  3.34  1.14  0.46  0.00  0.00  104.40  103.93    5.10    0.00    1.92
 1991 018   159     2     2    38.5  115.1   16541   91.8   23.3   5.8   6.0   8.3   5.6   6.3   5.4   5.3   4.7   0.0   0.0   0.1   0.5   1.1   0.7   1.2  3.35  1.14  0.46  0.00  0.00  105.16  104.75    5.11    0.00    1.94
 1991 019   160     2     2    38.5  115.9   16540   92.7   23.2   6.0   6.1   8.4   5.7   6.4   5.4   5.3   4.7   0.0   0.0   0.1   0.5   1.1   0.7   1.1  3.36  1.14  0.46  0.00  0.00  105.93  105.58    5.12    0.00    1.96
 1991 020   161     2     2    38.5  116.6   16539   93.5   23.1   6.2   6.3   8.5   5.7   6.5   5.4   5.3   4.7   0.0   0.0   0.1   0.5   1.1   0.7   1.1  3.37  1.14  0.46  0.00  0.00  106.71  106.41    5.13    0.00    1.97
 1991 021   162     2     2    39.0  116.9   16539   93.8   23.1   2.2   4.7   8.0   6.3   6.8   5.9   5.7   5.0   0.0   0.0   0.1   0.5   1.1   0.7   1.1  3.37  1.14  0.46  0.00  0.00  107.48  107.22    5.14    0.00    1.99
 1991 022   163     2     2    39.6  116.9   16538   93.3   23.6   1.9   4.5   7.8   6.2   6.8   5.8   5.7   5.1   0.0   0.0   0.1   0.6   1.2   0.7   1.1  3.39  1.14  0.46  0.00  0.00  108.23  107.43    5.29    0.00    2.01
 1991 023   164     2     2    41.8  115.3   16537   91.2   24.1   2.1   4.4   7.6   6.1   6.6   5.7   5.5   5.0   0.0   0.0   0.1   0.7   1.3   0.7   1.1  3.40  1.15  0.46  0.00  0.00  109.00  107.67    5.44    0.00    2.03
 1991 024   165     2     2    43.1  114.7   16536   90.3   24.4   2.4   4.6   7.6   6.0   6.5   5.6   5.4   4.9   0.0   0.0   0.1   0.6   1.4   0.8   1.1  3.42  1.15  0.46  0.00  0.00  109.80  108.20    5.53    0.00    2.05
 1991 025   166     2     2    43.7  114.8   16535   90.1   24.6   2.6   4.7   7.6   5.9   6.4   5.6   5.4   4.9   0.0   0.0   0.1   0.6   1.5   0.8   1.1  3.43  1.15  0.46  0.00  0.00  110.58  108.71    5.58    0.00    2.07
 1991 026   167     2     2    44.1  115.0   16535   90.4   24.6   2.9   4.9   7.8   5.9   6.4   5.6   5.3   4.9   0.0   0.0   0.1   0.5   1.5   0.8   1.2  3.44  1.15  0.46  0.00  0.00  111.34  109.46    5.64    0.00    2.09
 1991 027   168     2     2    44.4  115.5   16534   90.9   24.6   3.2   5.0   8.0   5.9   6.4   5.6   5.3   4.8   0.0   0.0   0.1   0.5   1.4   0.9   1.2  3.45  1.15  0.46  0.00  0.00  112.11  110.21    5.67    0.00    2.11
 1991 028   169     2     2    44.4  116.2   16533   91.6   24.6   3.4   5.1   8.2   5.9   6.4   5.6   5.3   4.8   0.0   0.0   0.1   0.5   1.4   0.9   1.2  3.46  1.15  0.46  0.00  0.00  112.87  110.92    5.69    0.00    2.13
 1991 029   170     2     2    44.4  117.0   16532   92.3   24.7   3.6   5.2   8.3   5.9   6.4   5.6   5.3   4.9   0.0   0.0   0.1   0.5   1.3   0.9   1.2  3.47  1.15  0.46  0.00  0.00  113.63  111.63    5.71    0.00    2.15
 1991 030   171     2     2    44.4  117.6   16532   93.0   24.6   2.4   5.2   8.8   6.2   6.5   5.6   5.4   4.9   0.0   0.0   0.1   0.5   1.3   0.9   1.2  3.48  1.15  0.45  0.00  0.00  114.39  112.43    5.72    0.00    2.16
 1991 031   172     2     2    44.9  117.8   16531   92.8   25.0   2.5   5.1   8.6   6.1   6.5   5.6   5.4   4.9   0.0   0.0   0.1   0.6   1.4   0.9   1.2  3.49  1.15  0.45  0.00  0.00  115.12  112.73    5.74    0.00    2.18

*DSSAT Cropping System Model Ver. 4.0.2.000               Aug 15, 2016; 16:10:12

*RUN   2        : UYSB                    
 MODEL          : CRGRO040 - Soybean         
 EXPERIMENT     : UYSB0212 SB    late to create DSS                             
 TREATMENT  1   : UYSB                    

@YEAR DOY   DAS  NAPC  NI#M    NLCC   NIAD    NOAD   NITD   NHTD  NI1D  NI2D  NI3D  NI4D  NI5D  NI6D  NI7D  NI8D  NI9D  NI10  NH1D  NH2D  NH3D  NH4D  NH5D  NH6D  NH7D  NH8D  NH9D  NH10    NMNC    NITC    NDNC    NIMC    AMLC
 1991 224     0     0     0     0.0   54.6   16646   31.6   23.1   5.7   5.2   5.1   4.7   2.6   0.0   0.1   0.1   0.0   0.0   0.9   1.4   1.5   1.5   1.5  1.50  1.47  1.46  0.00  0.00    0.39    1.29    0.00    0.00    0.00
 1991 225     1     0     0     0.0   55.0   16645   32.7   22.4   6.1   5.4   5.2   4.7   2.6   0.0   0.1   0.1   0.0   0.0   0.5   1.3   1.4   1.4   1.4  1.51  1.43  1.41  0.00  0.00    0.80    2.39    0.00    0.00    0.00
 1991 226     2     0     0     0.0   55.4   16645   33.7   21.8   6.3   5.5   5.3   4.8   2.7   0.1   0.1   0.2   0.0   0.0   0.3   1.2   1.4   1.4   1.4  1.51  1.40  1.37  0.00  0.00    1.22    3.42    0.00    0.00    0.00
 1991 227     3     0     0     0.0   55.9   16644   34.7   21.2   2.2   6.0   6.6   4.9   2.7   0.1   0.2   0.2   0.0   0.0   0.2   1.1   1.4   1.3   1.3  1.51  1.37  1.33  0.00  0.00    1.71    4.44    0.00    0.00    0.00
 1991 228     4     2     2     0.0   58.4   16644   36.6   21.8   4.1   5.9   6.9   5.0   2.8   0.1   0.2   0.2   0.0   0.0   1.8   1.1   1.4   1.3   1.3  1.51  1.34  1.29  0.00  0.00    2.25    5.31    0.00    0.00    0.09
 1991 229     5     2     2     0.0   58.9   16643   38.5   20.4   5.7   6.1   7.0   5.1   2.9   0.1   0.3   0.3   0.0   0.0   0.1   1.0   1.4   1.2   1.2  1.52  1.31  1.25  0.00  0.00    2.86    7.24    0.00    0.00    0.20
 1991 230     6     2     2     0.0   59.5   16643   39.7   19.8   5.8   6.3   7.1   5.2   3.0   0.1   0.3   0.3   0.0   0.0   0.0   0.9   1.3   1.2   1.2  1.52  1.28  1.21  0.00  0.00    3.53    8.40    0.00    0.00    0.27
 1991 231     7     2     2     0.0   60.2   16642   40.8   19.4   5.8   6.5   7.3   5.3   3.0   0.1   0.4   0.4   0.0   0.0   0.1   0.8   1.3   1.1   1.2  1.52  1.25  1.17  0.00  0.00    4.22    9.49    0.00    0.00    0.27
 1991 232     8     2     2     0.0   60.8   16641   41.9   19.0   6.0   6.7   7.4   5.4   3.1   0.2   0.4   0.4   0.0   0.0   0.1   0.7   1.3   1.1   1.1  1.53  1.22  1.14  0.00  0.00    4.91   10.61    0.00    0.00    0.30
 1991 233     9     2     2     0.0   61.5   16640   42.9   18.6   6.0   6.9   7.5   5.5   3.2   0.2   0.4   0.5   0.0   0.0   0.1   0.6   1.3   1.0   1.1  1.53  1.19  1.10  0.00  0.00    5.60   11.65    0.00    0.00    0.32
 1991 234    10     2     2     0.0   62.2   16640   43.9   18.2   6.2   7.0   7.6   5.6   3.2   0.2   0.5   0.5   0.0   0.0   0.1   0.6   1.3   1.0   1.0  1.53  1.16  1.07  0.00  0.00    6.29   12.65    0.00    0.00    0.34
 1991 235    11     2     2     0.0   62.8   16639   44.9   17.9   6.3   7.1   7.7   5.7   3.3   0.2   0.5   0.5   0.0   0.0   0.1   0.6   1.2   1.0   1.0  1.53  1.14  1.03  0.00  0.00    6.97   13.63    0.00    0.00    0.36
 1991 236    12     2     2     0.0   63.4   16638   45.8   17.6   6.4   7.3   7.9   5.8   3.3   0.2   0.5   0.6   0.0   0.0   0.1   0.5   1.2   0.9   1.0  1.54  1.11  1.00  0.00  0.00    7.59   14.59    0.00    0.00    0.38
 1991 237    13     2     2     0.0   64.0   16638   46.7   17.3   6.5   7.4   8.0   5.9   3.4   0.3   0.6   0.6   0.0   0.0   0.1   0.5   1.2   0.9   1.0  1.54  1.09  0.97  0.00  0.00    8.19   15.48    0.00    0.00    0.39
 1991 238    14     2     2     0.0   64.5   16637   47.6   17.0   6.7   7.5   8.1   6.0   3.4   0.3   0.6   0.6   0.0   0.0   0.1   0.5   1.2   0.8   0.9  1.54  1.06  0.94  0.00  0.00    8.78   16.34    0.00    0.00    0.39
 1991 239    15     2     2     0.0   65.1   16637   48.4   16.7   6.8   7.6   8.2   6.1   3.5   0.3   0.7   0.7   0.0   0.0   0.1   0.5   1.2   0.8   0.9  1.54  1.04  0.91  0.00  0.00    9.33   17.15    0.00    0.00    0.40
 1991 240    16     2     2     0.0   65.6   16636   49.1   16.5   6.9   7.6   8.3   6.1   3.5   0.3   0.7   0.7   0.0   0.0   0.1   0.5   1.2   0.8   0.9  1.55  1.02  0.89  0.00  0.00    9.84   17.89    0.00    0.00    0.40
 1991 241    17     2     2     0.0   66.1   16636   49.8   16.3   7.0   7.7   8.3   6.2   3.6   0.3   0.7   0.7   0.0   0.0   0.1   0.5   1.1   0.8   0.9  1.55  1.00  0.86  0.00  0.00   10.34   18.60    0.00    0.00    0.40
 1991 242    18     2     2     0.0   66.5   16635   50.5   16.1   7.2   7.8   8.4   6.3   3.6   0.4   0.7   0.8   0.0   0.0   0.1   0.5   1.1   0.7   0.8  1.55  0.98  0.84  0.00  0.00   10.85   19.31    0.00    0.00    0.40
 1991 243    19     2     2     0.0   67.0   16635   51.1   15.9   7.3   7.8   8.5   6.3   3.7   0.4   0.8   0.8   0.0   0.0   0.1   0.4   1.1   0.7   0.8  1.55  0.96  0.81  0.00  0.00   11.35   20.00    0.00    0.00    0.41
 1991 244    20     2     2     0.0   67.5   16634   51.8   15.7   5.3   8.9   8.6   6.4   3.7   0.4   0.8   0.8   0.0   0.0   0.1   0.4   1.1   0.7   0.8  1.56  0.94  0.79  0.00  0.00   11.85   20.68    0.00    0.00    0.43
 1991 245    21     2     2     0.0   68.0   16634   52.5   15.5   5.4   8.8   8.8   6.4   3.7   0.4   0.8   0.8   0.0   0.0   0.1   0.5   1.1   0.7   0.8  1.56  0.92  0.77  0.00  0.00   12.38   21.34    0.00    0.00    0.45
 1991 246    22     2     2     0.0   68.5   16633   53.1   15.4   5.5   8.8   8.9   6.5   3.8   0.4   0.9   0.9   0.0   0.0   0.1   0.5   1.1   0.7   0.8  1.56  0.91  0.75  0.00  0.00   12.89   21.98    0.00    0.00    0.47
 1991 247    23     2     2     0.0   68.9   16633   53.7   15.2   5.5   8.8   9.1   6.5   3.8   0.4   0.9   0.9   0.0   0.0   0.1   0.5   1.1   0.7   0.8  1.56  0.89  0.73  0.00  0.00   13.40   22.61    0.00    0.00    0.48
 1991 248    24     2     2     0.0   69.4   16632   54.3   15.1   5.6   8.9   9.1   6.6   3.8   0.5   0.9   0.9   0.0   0.0   0.1   0.5   1.1   0.6   0.7  1.57  0.87  0.71  0.00  0.00   13.92   23.24    0.00    0.00    0.50
 1991 249    25     2     2     0.0   69.9   16632   54.9   15.0   5.6   8.9   9.2   6.7   3.9   0.5   0.9   0.9   0.0   0.0   0.1   0.5   1.1   0.6   0.7  1.57  0.86  0.69  0.00  0.00   14.49   23.91    0.00    0.00    0.52
 1991 250    26     2     2     0.0   70.4   16631   55.6   14.8   5.5   9.1   9.3   6.7   3.9   0.5   1.0   1.0   0.0   0.0   0.1   0.5   1.1   0.6   0.7  1.57  0.84  0.67  0.00  0.00   15.08   24.62    0.00    0.00    0.54
 1991 251    27     2     2     0.0   71.0   16630   56.2   14.8   5.2   9.3   9.4   6.8   4.0   0.5   1.0   1.0   0.0   0.0   0.2   0.5   1.1   0.6   0.7  1.57  0.82  0.65  0.00  0.00   15.68   25.28    0.00    0.00    0.55
 1991 252    28     2     2     0.0   71.5   16630   56.9   14.6   5.3   9.4   9.6   6.8   4.0   0.5   1.0   1.0   0.0   0.0   0.1   0.5   1.1   0.6   0.7  1.57  0.81  0.63  0.00  0.00   16.26   25.98    0.00    0.00    0.59
 1991 253    29     2     2     0.0   72.0   16629   57.5   14.5   5.4   9.4   9.6   6.9   4.0   0.5   1.0   1.0   0.0   0.0   0.1   0.5   1.1   0.6   0.7  1.58  0.80  0.61  0.00  0.00   16.81   26.61    0.00    0.00    0.60
 1991 254    30     2     2     0.0   72.4   16629   58.0   14.4   5.4   9.5   9.7   6.9   4.0   0.6   1.1   1.0   0.0   0.0   0.1   0.5   1.1   0.6   0.7  1.58  0.78  0.60  0.00  0.00   17.33   27.21    0.00    0.00    0.62
 1991 255    31     2     2     0.0   72.8   16628   58.5   14.3   5.5   9.6   9.8   7.0   4.1   0.6   1.1   1.1   0.0   0.0   0.1   0.5   1.1   0.6   0.7  1.58  0.77  0.58  0.00  0.00   17.86   27.82    0.00    0.00    0.64
 1991 256    32     2     2     0.0   73.2   16628   59.1   14.2   5.6   9.6   9.8   7.0   4.1   0.6   1.1   1.1   0.0   0.0   0.1   0.5   1.1   0.6   0.6  1.58  0.76  0.57  0.00  0.00   18.42   28.46    0.00    0.00    0.65
 1991 257    33     2     2     0.0   73.7   16627   59.7   14.0   5.7   9.7   9.9   7.1   4.1   0.6   1.1   1.1   0.0   0.0   0.1   0.5   1.0   0.6   0.6  1.58  0.74  0.55  0.00  0.00   19.04   29.17    0.00    0.00    0.67
 1991 258    34     2     2     0.0   74.3   16626   60.3   13.9   4.1  10.6  10.1   7.1   4.2   0.6   1.2   1.1   0.0   0.0   0.1   0.5   1.0   0.5   0.6  1.58  0.73  0.54  0.00  0.00   19.66   29.87    0.00    0.00    0.69
 1991 259    35     2     2     0.0   74.8   16626   60.8   14.0   3.8  10.4  10.4   7.2   4.2   0.7   1.2   1.1   0.0   0.0   0.2   0.5   1.0   0.5   0.6  1.58  0.72  0.52  0.00  0.00   20.26   30.39    0.00    0.00    0.70
 1991 260    36     2     2     0.0   75.3   16625   61.3   14.0   2.9   9.4  11.5   7.2   4.2   0.7   1.2   1.2   0.0   0.0   0.1   0.6   1.0   0.5   0.6  1.58  0.71  0.51  0.00  0.00   20.87   30.98    0.00    0.00    0.74
 1991 261    37     2     2     0.1   75.6   16625   61.6   14.0   1.0   5.2   9.2   7.6   6.2   1.8   1.4   1.3   0.0   0.0   0.1   0.7   1.0   0.5   0.6  1.58  0.69  0.50  0.00  0.00   21.44   31.46    0.00    0.00    0.75
 1991 262    38     2     2     0.7   75.4   16624   61.1   14.4   1.0   5.1   9.0   7.3   6.1   1.9   1.4   1.3   0.0   0.0   0.1   0.8   1.1   0.6   0.6  1.60  0.70  0.50  0.00  0.00   21.97   31.61    0.00    0.00    0.78
 1991 263    39     2     2     1.0   75.5   16624   60.9   14.6   1.2   5.2   8.9   7.2   6.0   2.0   1.4   1.3   0.0   0.0   0.1   0.7   1.2   0.6   0.7  1.61  0.71  0.50  0.00  0.00   22.51   31.88    0.00    0.00    0.80
 1991 264    40     2     2     1.2   75.7   16623   60.9   14.8   1.4   5.2   8.9   7.1   6.0   2.0   1.4   1.3   0.0   0.0   0.1   0.7   1.3   0.6   0.7  1.63  0.71  0.50  0.00  0.00   23.09   32.20    0.00    0.00    0.82
 1991 265    41     2     2     1.3   76.0   16622   61.1   14.9   1.7   5.3   8.9   7.1   6.0   2.0   1.5   1.3   0.0   0.0   0.1   0.6   1.2   0.6   0.7  1.64  0.72  0.49  0.00  0.00   23.68   32.68    0.00    0.00    0.84
 1991 266    42     2     2     1.3   76.3   16622   61.3   14.9   1.9   5.3   9.0   7.0   5.9   2.0   1.5   1.3   0.0   0.0   0.1   0.6   1.2   0.7   0.7  1.65  0.72  0.49  0.00  0.00   24.27   33.14    0.02    0.00    0.86
 1991 267    43     2     2     1.3   76.7   16621   61.6   15.0   2.1   5.4   9.0   7.0   6.0   2.0   1.5   1.3   0.0   0.0   0.1   0.6   1.2   0.7   0.7  1.67  0.72  0.49  0.00  0.00   24.85   33.59    0.03    0.00    0.88
 1991 268    44     2     2     1.3   77.0   16621   62.0   15.0   2.3   5.4   9.0   7.1   6.0   2.0   1.5   1.3   0.0   0.0   0.1   0.6   1.2   0.7   0.7  1.68  0.73  0.49  0.00  0.00   25.43   34.09    0.03    0.00    0.89
 1991 269    45     2     2     1.3   77.3   16620   62.3   15.1   2.4   5.5   9.1   7.1   6.0   2.0   1.5   1.3   0.0   0.0   0.1   0.5   1.2   0.7   0.8  1.69  0.73  0.49  0.00  0.00   26.01   34.59    0.04    0.00    0.91
 1991 270    46     2     2     1.3   77.6   16619   62.5   15.1   2.6   5.6   9.1   7.1   5.9   2.0   1.5   1.3   0.0   0.0   0.1   0.5   1.2   0.7   0.8  1.70  0.73  0.49  0.00  0.00   26.58   35.07    0.04    0.00    0.93
 1991 271    47     2     2     1.3   77.9   16619   62.7   15.1   2.8   5.6   9.1   7.1   5.9   2.0   1.5   1.3   0.0   0.0   0.1   0.5   1.1   0.7   0.8  1.71  0.73  0.48  0.00  0.00   27.18   35.58    0.05    0.00    0.95
 1991 272    48     2     2     1.3   78.2   16618   63.0   15.1   2.9   5.7   9.1   7.1   5.9   2.0   1.5   1.3   0.0   0.0   0.1   0.5   1.1   0.6   0.8  1.72  0.74  0.48  0.00  0.00   27.78   36.08    0.05    0.00    0.97
 1991 273    49     2     2     1.3   78.5   16618   63.3   15.2   3.1   5.8   9.2   7.2   5.9   2.0   1.5   1.3   0.0   0.0   0.1   0.5   1.1   0.6   0.8  1.73  0.74  0.48  0.00  0.00   28.38   36.57    0.05    0.00    0.99
 1991 274    50     2     2     1.3   78.7   16617   63.5   15.2   3.2   5.8   9.2   7.2   6.0   2.0   1.5   1.3   0.0   0.0   0.1   0.5   1.1   0.6   0.8  1.74  0.74  0.48  0.00  0.00   28.97   37.12    0.06    0.00    1.01
 1991 275    51     2     2     1.3   79.0   16617   63.8   15.1   3.4   5.9   9.2   7.2   6.0   2.0   1.5   1.3   0.0   0.0   0.1   0.5   1.1   0.6   0.8  1.75  0.74  0.48  0.00  0.00   29.54   37.65    0.06    0.00    1.03
 1991 276    52     2     2     1.3   79.2   16616   64.1   15.1   3.5   5.9   9.2   7.2   6.0   2.0   1.5   1.3   0.0   0.0   0.1   0.5   1.1   0.6   0.8  1.76  0.74  0.48  0.00  0.00   30.07   38.13    0.06    0.00    1.05
 1991 277    53     2     2     1.3   79.4   16615   64.3   15.1   3.6   6.0   9.2   7.2   6.0   2.0   1.5   1.3   0.0   0.0   0.1   0.5   1.1   0.6   0.8  1.76  0.75  0.47  0.00  0.00   30.60   38.61    0.06    0.00    1.06
 1991 278    54     2     2     1.3   79.6   16615   64.5   15.1   3.8   6.0   9.3   7.2   6.1   2.0   1.5   1.3   0.0   0.0   0.1   0.5   1.1   0.6   0.7  1.77  0.75  0.47  0.00  0.00   31.15   39.11    0.06    0.00    1.08
 1991 279    55     2     2     1.3   79.9   16614   64.8   15.1   2.1   5.7   9.9   7.5   6.1   2.0   1.5   1.3   0.0   0.0   0.1   0.5   1.1   0.6   0.7  1.78  0.75  0.47  0.00  0.00   31.66   39.57    0.06    0.00    1.10
 1991 280    56     2     2     1.4   80.2   16614   64.9   15.3   1.3   4.5   8.9   7.6   6.7   2.4   1.6   1.4   0.0   0.0   0.1   0.6   1.2   0.6   0.7  1.79  0.75  0.47  0.00  0.00   32.16   39.78    0.06    0.00    1.10
 1991 281    57     2     2     1.8   80.0   16613   64.3   15.6   1.3   4.5   8.7   7.3   6.6   2.5   1.7   1.4   0.0   0.0   0.1   0.6   1.2   0.6   0.7  1.80  0.76  0.47  0.00  0.00   32.61   39.91    0.09    0.00    1.10
 1991 282    58     2     2     2.1   79.8   16613   63.9   15.8   1.4   4.3   8.6   7.2   6.5   2.6   1.7   1.4   0.0   0.0   0.1   0.7   1.3   0.7   0.8  1.81  0.76  0.47  0.00  0.00   33.07   40.07    0.11    0.00    1.11
 1991 283    59     2     2     2.2   79.6   16613   63.7   15.9   1.6   4.3   8.4   7.1   6.4   2.6   1.7   1.4   0.0   0.0   0.1   0.6   1.3   0.7   0.8  1.82  0.76  0.47  0.00  0.00   33.51   40.33    0.12    0.00    1.11
 1991 284    60     2     2     2.3   79.4   16612   63.5   15.9   1.8   4.3   8.4   7.0   6.4   2.6   1.7   1.4   0.0   0.0   0.1   0.6   1.3   0.7   0.8  1.82  0.76  0.46  0.00  0.00   34.01   40.73    0.14    0.00    1.11
 1991 285    61     2     2     2.3   79.1   16611   63.3   15.9   2.0   4.3   8.3   7.0   6.3   2.6   1.7   1.4   0.0   0.0   0.1   0.6   1.2   0.7   0.8  1.82  0.76  0.46  0.00  0.00   34.56   41.18    0.15    0.00    1.11
 1991 286    62     2     2     2.3   78.8   16611   63.0   15.8   2.2   4.3   8.2   6.9   6.3   2.6   1.7   1.4   0.0   0.0   0.1   0.5   1.2   0.7   0.8  1.82  0.76  0.46  0.00  0.00   35.19   41.69    0.16    0.00    1.12
 1991 287    63     2     2     2.3   78.5   16610   62.8   15.7   2.3   4.4   8.1   6.9   6.2   2.6   1.7   1.4   0.0   0.0   0.1   0.5   1.1   0.7   0.8  1.82  0.76  0.46  0.00  0.00   35.90   42.36    0.16    0.00    1.12
 1991 288    64     2     2     2.3   78.5   16609   62.9   15.6   1.1   3.4   7.3   7.0   6.7   3.0   1.9   1.4   0.0   0.0   0.1   0.5   1.1   0.7   0.8  1.82  0.76  0.46  0.00  0.00   36.67   43.07    0.16    0.00    1.12
 1991 289    65     2     2     5.7   75.1   16609   59.1   16.0   0.4   1.7   4.8   5.4   5.9   3.8   2.9   1.9   0.0   0.0   0.1   0.6   1.2   0.7   0.9  1.83  0.76  0.46  0.00  0.00   37.40   43.28    0.27    0.00    1.12
 1991 290    66     2     2     6.8   74.0   16608   57.6   16.4   0.4   1.6   4.7   5.1   5.6   3.8   2.9   2.0   0.0   0.0   0.2   0.7   1.3   0.8   0.9  1.83  0.76  0.46  0.00  0.00   38.05   43.39    0.42    0.00    1.13
 1991 291    67     2     2     7.5   73.2   16607   56.6   16.6   0.6   1.6   4.5   4.9   5.4   3.8   2.9   2.1   0.0   0.0   0.1   0.8   1.4   0.8   0.9  1.83  0.76  0.46  0.00  0.00   38.72   43.67    0.50    0.00    1.13
 1991 292    68     2     2     7.8   72.0   16607   55.5   16.5   0.8   1.6   4.3   4.8   5.3   3.7   2.9   2.1   0.0   0.0   0.1   0.6   1.4   0.8   0.9  1.82  0.75  0.46  0.00  0.00   39.33   44.05    0.54    0.00    1.14
 1991 293    69     2     2     8.0   70.7   16606   54.4   16.3   0.9   1.6   4.1   4.7   5.1   3.6   2.9   2.1   0.0   0.0   0.1   0.6   1.4   0.8   0.9  1.80  0.75  0.46  0.00  0.00   39.91   44.40    0.58    0.00    1.14
 1991 294    70     2     2     8.0   69.2   16606   53.3   15.9   1.0   1.6   3.9   4.6   5.0   3.6   2.8   2.1   0.0   0.0   0.1   0.5   1.2   0.8   0.9  1.77  0.74  0.46  0.00  0.00   40.50   44.89    0.59    0.00    1.14
 1991 295    71     2     2     8.0   67.6   16605   52.1   15.5   1.1   1.6   3.7   4.4   4.9   3.5   2.8   2.0   0.0   0.0   0.1   0.5   1.1   0.8   0.9  1.74  0.73  0.46  0.00  0.00   41.15   45.42    0.60    0.00    1.14
 1991 296    72     2     2     8.0   66.2   16604   51.2   15.0   1.3   1.6   3.6   4.4   4.8   3.4   2.8   2.0   0.0   0.0   0.1   0.5   1.0   0.7   0.8  1.71  0.72  0.45  0.00  0.00   41.86   46.15    0.60    0.00    1.15
 1991 297    73     2     2     8.0   65.9   16603   51.1   14.7   1.4   1.7   3.6   4.4   4.8   3.4   2.7   2.0   0.0   0.0   0.1   0.5   1.0   0.7   0.8  1.69  0.72  0.45  0.00  0.00   42.57   46.89    0.60    0.00    1.15
 1991 298    74     2     2     8.0   65.7   16603   51.2   14.5   1.5   1.8   3.6   4.4   4.8   3.4   2.7   2.0   0.0   0.0   0.1   0.5   1.0   0.7   0.7  1.67  0.72  0.45  0.00  0.00   43.24   47.57    0.60    0.00    1.15
 1991 299    75     2     2     8.0   65.2   16602   50.9   14.3   1.6   1.9   3.5   4.3   4.7   3.3   2.7   2.0   0.0   0.0   0.1   0.5   1.0   0.7   0.7  1.64  0.71  0.45  0.00  0.00   43.89   48.21    0.60    0.00    1.15
 1991 300    76     2     2     8.0   62.8   16602   49.2   13.6   1.7   1.8   3.2   4.2   4.5   3.2   2.6   2.0   0.0   0.0   0.1   0.5   0.9   0.6   0.7  1.58  0.68  0.45  0.00  0.00   44.51   48.85    0.60    0.00    1.16
 1991 301    77     2     2     8.0   61.3   16601   48.1   13.2   1.7   1.8   3.1   4.1   4.4   3.2   2.6   2.0   0.0   0.0   0.1   0.5   0.8   0.6   0.6  1.54  0.65  0.45  0.00  0.00   45.09   49.43    0.60    0.00    1.16
 1991 302    78     2     2     8.0   60.5   16600   47.6   12.9   1.8   1.8   3.0   4.0   4.4   3.1   2.6   2.0   0.0   0.0   0.1   0.5   0.8   0.6   0.6  1.51  0.63  0.45  0.00  0.00   45.67   50.00    0.60    0.00    1.16
 1991 303    79     2     2     8.0   59.9   16600   47.2   12.7   1.4   2.1   3.0   4.0   4.3   3.1   2.6   2.0   0.0   0.0   0.1   0.5   0.8   0.6   0.6  1.48  0.62  0.45  0.00  0.00   46.26   50.55    0.60    0.00    1.17
 1991 304    80     2     2     8.0   59.1   16599   46.5   12.6   1.3   2.0   2.9   3.9   4.3   3.0   2.6   2.0   0.0   0.0   0.2   0.6   0.8   0.6   0.6  1.45  0.60  0.44  0.00  0.00   46.84   50.95    0.60    0.00    1.17
 1991 305    81     2     2     8.0   58.2   16599   45.8   12.4   1.3   1.9   2.9   3.9   4.2   3.0   2.5   1.9   0.0   0.0   0.1   0.6   0.8   0.5   0.6  1.43  0.58  0.44  0.00  0.00   47.40   51.42    0.60    0.00    1.17
 1991 306    82     2     2     8.0   55.7   16598   44.0   11.7   1.3   1.7   2.6   3.7   4.0   2.9   2.5   1.9   0.0   0.0   0.1   0.5   0.7   0.5   0.5  1.37  0.56  0.43  0.00  0.00   47.95   51.97    0.60    0.00    1.18
 1991 307    83     2     2     8.0   52.6   16598   41.6   11.1   1.3   1.5   2.2   3.5   3.8   2.8   2.4   1.9   0.0   0.0   0.1   0.5   0.6   0.5   0.5  1.30  0.53  0.42  0.00  0.00   48.52   52.49    0.60    0.00    1.18
 1991 308    84     2     2     8.0   49.6   16597   39.0   10.6   1.4   1.3   1.9   3.3   3.6   2.6   2.3   1.9   0.0   0.0   0.1   0.5   0.5   0.5   0.5  1.22  0.50  0.41  0.00  0.00   49.11   53.00    0.60    0.00    1.18
 1991 309    85     2     2     8.0   45.7   16596   35.6   10.1   1.4   1.1   1.4   3.0   3.3   2.4   2.2   1.8   0.0   0.0   0.1   0.5   0.6   0.5   0.5  1.12  0.49  0.40  0.00  0.00   49.73   53.52    0.60    0.00    1.18
 1991 310    86     2     2     8.0   42.2   16596   32.5    9.7   1.3   1.0   1.1   2.7   2.9   2.2   2.0   1.8   0.0   0.0   0.1   0.5   0.6   0.5   0.5  1.02  0.49  0.39  0.00  0.00   50.37   54.06    0.60    0.00    1.19
 1991 311    87     2     2     8.0   39.7   16595   30.3    9.4   1.0   1.0   0.9   2.6   2.7   2.0   1.9   1.7   0.0   0.0   0.2   0.5   0.6   0.5   0.5  0.95  0.49  0.39  0.00  0.00   51.04   54.55    0.60    0.00    1.19
 1991 312    88     2     2     8.0   36.4   16594   27.4    9.0   1.0   0.8   0.7   2.3   2.4   1.8   1.8   1.6   0.0   0.0   0.1   0.5   0.6   0.5   0.5  0.86  0.48  0.38  0.00  0.00   51.72   55.15    0.60    0.00    1.19
 1991 313    89     2     2     8.0   33.1   16594   24.6    8.6   1.0   0.7   0.6   2.0   2.1   1.6   1.6   1.6   0.0   0.0   0.1   0.5   0.6   0.5   0.5  0.76  0.48  0.37  0.00  0.00   52.38   55.68    0.60    0.00    1.20
 1991 314    90     2     2     8.0   29.2   16593   21.1    8.1   1.0   0.6   0.4   1.7   1.8   1.4   1.4   1.5   0.0   0.0   0.1   0.5   0.6   0.5   0.5  0.65  0.47  0.36  0.00  0.00   53.02   56.20    0.60    0.00    1.20
 1991 315    91     2     2     8.0   26.1   16593   18.4    7.6   1.0   0.5   0.4   1.4   1.5   1.2   1.3   1.4   0.0   0.0   0.1   0.5   0.6   0.5   0.5  0.55  0.47  0.35  0.00  0.00   53.64   56.70    0.60    0.00    1.20
 1991 316    92     2     2     8.0   23.8   16592   16.3    7.4   1.0   0.6   0.5   1.2   1.2   1.0   1.1   1.3   0.0   0.0   0.1   0.5   0.5   0.5   0.5  0.51  0.47  0.35  0.00  0.00   54.22   57.17    0.60    0.00    1.20
 1991 317    93     2     2     8.0   21.8   16591   14.4    7.4   1.1   0.5   0.6   1.0   1.0   0.8   1.0   1.2   0.0   0.0   0.1   0.4   0.5   0.5   0.5  0.51  0.46  0.34  0.00  0.00   54.78   57.62    0.60    0.00    1.21
 1991 318    94     2     2     8.0   19.8   16591   12.5    7.3   0.6   0.7   0.5   0.9   0.9   0.7   0.8   1.1   0.0   0.0   0.1   0.4   0.5   0.5   0.5  0.51  0.46  0.33  0.00  0.00   55.32   58.06    0.60    0.00    1.21
 1991 319    95     2     2     8.0   18.3   16590   10.8    7.5   0.3   0.5   0.5   0.7   0.7   0.5   0.7   1.0   0.0   0.0   0.2   0.5   0.6   0.5   0.5  0.51  0.46  0.33  0.00  0.00   55.91   58.35    0.60    0.00    1.21
 1991 320    96     2     2     8.0   16.8   16590    9.3    7.5   0.5   0.5   0.3   0.6   0.6   0.4   0.6   1.0   0.0   0.0   0.1   0.6   0.6   0.5   0.5  0.51  0.45  0.32  0.00  0.00   56.48   58.73    0.60    0.00    1.21
 1991 321    97     2     2     8.0   15.9   16589    8.6    7.4   0.6   0.4   0.3   0.5   0.5   0.5   0.6   0.9   0.0   0.0   0.1   0.5   0.6   0.5   0.5  0.51  0.45  0.31  0.00  0.00   57.08   59.20    0.60    0.00    1.22
 1991 322    98     2     2     8.0   15.6   16589    8.2    7.4   0.4   0.5   0.4   0.5   0.5   0.5   0.5   0.8   0.0   0.0   0.1   0.5   0.6   0.5   0.5  0.51  0.45  0.31  0.00  0.00   57.69   59.66    0.60    0.00    1.22
 1991 323    99     2     2     8.0   15.7   16588    8.3    7.4   0.6   0.6   0.4   0.5   0.4   0.5   0.5   0.8   0.0   0.0   0.1   0.5   0.6   0.5   0.5  0.51  0.45  0.30  0.00  0.00   58.32   60.15    0.60    0.00    1.22
 1991 324   100     2     2     8.0   15.5   16587    8.2    7.3   0.6   0.4   0.5   0.5   0.5   0.5   0.5   0.7   0.0   0.0   0.1   0.5   0.6   0.5   0.5  0.51  0.44  0.30  0.00  0.00   58.95   60.64    0.60    0.00    1.23
 1991 325   101     2     2     8.0   15.4   16587    8.1    7.3   0.6   0.5   0.6   0.4   0.5   0.5   0.4   0.6   0.0   0.0   0.1   0.5   0.6   0.5   0.5  0.51  0.44  0.29  0.00  0.00   59.58   61.14    0.60    0.00    1.23
 1991 326   102     2     2     8.0   15.2   16586    7.9    7.2   0.7   0.6   0.3   0.5   0.5   0.5   0.4   0.6   0.0   0.0   0.1   0.5   0.5   0.5   0.5  0.52  0.44  0.29  0.00  0.00   60.20   61.67    0.60    0.00    1.23
 1991 327   103     2     2     8.0   15.0   16586    7.8    7.2   0.4   0.6   0.5   0.5   0.4   0.5   0.5   0.5   0.0   0.0   0.1   0.4   0.5   0.5   0.5  0.52  0.44  0.28  0.00  0.00   60.84   62.23    0.60    0.00    1.23
 1991 328   104     2     2     8.0   15.0   16585    7.6    7.4   0.5   0.3   0.5   0.5   0.5   0.5   0.5   0.5   0.0   0.0   0.1   0.6   0.6   0.5   0.5  0.52  0.43  0.28  0.00  0.00   61.64   62.67    0.60    0.00    1.24
 1991 329   105     2     2     8.0   14.8   16584    7.6    7.2   0.1   0.4   0.2   0.5   0.5   0.6   0.6   0.5   0.0   0.0   0.1   0.5   0.6   0.5   0.5  0.52  0.43  0.27  0.00  0.00   62.42   63.34    0.60    0.00    1.24
 1991 330   106     2     2     8.4   14.4   16583    6.8    7.7   0.0   0.3   0.2   0.4   0.4   0.5   0.5   0.5   0.0   0.0   0.2   0.6   0.6   0.5   0.5  0.52  0.44  0.27  0.00  0.00   63.16   63.43    0.60    0.00    1.24
 1991 331   107     2     2     8.5   14.3   16583    6.7    7.6   0.3   0.3   0.2   0.4   0.4   0.5   0.5   0.5   0.0   0.0   0.1   0.6   0.6   0.5   0.5  0.52  0.45  0.27  0.00  0.00   63.87   63.67    0.60    0.00    1.24
 1991 332   108     2     2     8.7   14.3   16582    6.7    7.6   0.4   0.3   0.2   0.4   0.4   0.5   0.5   0.5   0.0   0.0   0.1   0.6   0.6   0.5   0.5  0.52  0.46  0.28  0.00  0.00   64.54   63.80    0.60    0.00    1.25
 1991 333   109     2     2     8.7   14.4   16581    6.9    7.5   0.5   0.5   0.3   0.4   0.4   0.5   0.5   0.5   0.0   0.0   0.1   0.5   0.6   0.5   0.5  0.52  0.47  0.28  0.00  0.00   65.18   64.09    0.60    0.00    1.25
 1991 334   110     2     2     8.8   14.7   16581    7.0    7.7   0.5   0.5   0.3   0.4   0.4   0.5   0.5   0.5   0.0   0.0   0.2   0.6   0.6   0.5   0.5  0.52  0.47  0.28  0.00  0.00   65.86   64.21    0.61    0.00    1.25
 1991 335   111     2     2     8.8   14.8   16580    7.3    7.5   0.5   0.7   0.3   0.4   0.5   0.5   0.5   0.5   0.0   0.0   0.1   0.5   0.6   0.5   0.5  0.52  0.48  0.28  0.00  0.00   66.58   64.72    0.61    0.00    1.26
 1991 336   112     2     2     8.8   14.6   16579    7.1    7.5   0.4   0.4   0.4   0.4   0.5   0.5   0.5   0.5   0.0   0.0   0.1   0.5   0.6   0.5   0.5  0.52  0.49  0.28  0.00  0.00   67.35   65.19    0.61    0.00    1.26
 1991 337   113     2     2     8.8   15.1   16579    7.7    7.4   0.6   0.5   0.5   0.5   0.5   0.5   0.5   0.5   0.0   0.0   0.1   0.5   0.6   0.5   0.5  0.52  0.49  0.28  0.00  0.00   68.15   65.78    0.61    0.00    1.26
 1991 338   114     2     2     8.8   15.3   16578    7.9    7.4   0.5   0.4   0.5   0.5   0.5   0.5   0.5   0.5   0.0   0.0   0.1   0.5   0.6   0.5   0.5  0.52  0.49  0.28  0.00  0.00   68.94   66.38    0.61    0.00    1.27
 1991 339   115     2     2     8.8   14.3   16577    6.9    7.4   0.4   0.6   0.3   0.3   0.3   0.5   0.5   0.5   0.0   0.0   0.1   0.5   0.6   0.5   0.5  0.52  0.49  0.29  0.00  0.00   69.74   67.01    0.61    0.00    1.27
 1991 340   116     2     2     8.8   14.0   16576    6.4    7.6   0.4   0.3   0.4   0.3   0.3   0.5   0.4   0.5   0.0   0.0   0.2   0.6   0.6   0.5   0.5  0.52  0.48  0.29  0.00  0.00   70.57   67.41    0.61    0.00    1.27
 1991 341   117     2     2     8.8   14.6   16576    7.3    7.3   0.8   0.5   0.5   0.4   0.4   0.5   0.4   0.5   0.0   0.0   0.0   0.5   0.6   0.5   0.5  0.52  0.48  0.28  0.00  0.00   71.41   68.24    0.61    0.00    1.27
 1991 342   118     2     2     8.8   14.9   16575    7.5    7.4   0.3   0.6   0.6   0.4   0.4   0.5   0.4   0.5   0.0   0.0   0.2   0.5   0.6   0.5   0.5  0.52  0.48  0.28  0.00  0.00   72.24   68.81    0.61    0.00    1.28
 1991 343   119     2     2     8.8   14.6   16574    7.3    7.3   0.5   0.4   0.3   0.5   0.4   0.5   0.4   0.5   0.0   0.0   0.1   0.5   0.6   0.5   0.5  0.52  0.47  0.27  0.00  0.00   73.07   69.51    0.61    0.00    1.28
 1991 344   120     2     2     8.8   15.1   16573    7.6    7.5   0.3   0.4   0.5   0.5   0.5   0.5   0.4   0.5   0.0   0.0   0.2   0.6   0.6   0.5   0.5  0.52  0.47  0.27  0.00  0.00   73.88   69.90    0.61    0.00    1.28
 1991 345   121     2     2     8.8   15.2   16572    7.6    7.6   0.6   0.5   0.5   0.3   0.5   0.5   0.4   0.5   0.0   0.0   0.1   0.6   0.6   0.5   0.5  0.52  0.47  0.26  0.00  0.00   74.67   70.30    0.61    0.00    1.28
 1991 346   122     2     2     8.8   14.0   16572    6.6    7.4   0.4   0.6   0.5   0.3   0.3   0.4   0.5   0.5   0.0   0.0   0.1   0.5   0.6   0.5   0.5  0.52  0.46  0.26  0.00  0.00   75.45   70.76    0.61    0.00    1.29
 1991 347   123     2     2     8.8   14.0   16571    6.6    7.4   0.5   0.4   0.5   0.3   0.3   0.4   0.5   0.5   0.0   0.0   0.1   0.5   0.6   0.5   0.5  0.52  0.46  0.25  0.00  0.00   76.21   71.20    0.61    0.00    1.29
 1991 348   124     2     2     8.8   14.4   16570    7.0    7.4   0.5   0.4   0.6   0.4   0.4   0.4   0.5   0.5   0.0   0.0   0.1   0.6   0.6   0.5   0.5  0.52  0.46  0.25  0.00  0.00   76.96   71.60    0.61    0.00    1.29
 1991 349   125     2     2     8.8   14.5   16570    6.9    7.6   0.5   0.4   0.4   0.4   0.4   0.4   0.5   0.5   0.0   0.0   0.2   0.6   0.6   0.5   0.5  0.52  0.46  0.25  0.00  0.00   77.70   71.77    0.62    0.00    1.30
 1991 350   126     2     2     8.8   14.7   16569    7.1    7.7   0.4   0.5   0.5   0.4   0.4   0.4   0.5   0.5   0.0   0.0   0.3   0.6   0.6   0.5   0.5  0.52  0.45  0.24  0.00  0.00   78.42   71.96    0.62    0.00    1.30
 1991 351   127     2     2     8.8   14.6   16568    7.1    7.5   0.8   0.5   0.5   0.4   0.4   0.4   0.4   0.5   0.0   0.0   0.1   0.6   0.6   0.5   0.5  0.52  0.45  0.24  0.00  0.00   79.13   72.32    0.62    0.00    1.31
 1991 352   128     2     2     8.9   14.5   16567    7.0    7.6   0.3   0.5   0.5   0.4   0.4   0.4   0.4   0.5   0.0   0.0   0.1   0.6   0.6   0.5   0.5  0.52  0.45  0.24  0.00  0.00   79.88   72.51    0.63    0.00    1.31
 1991 353   129     2     2     8.9   14.3   16567    6.9    7.4   0.3   0.4   0.5   0.4   0.4   0.4   0.4   0.4   0.0   0.0   0.1   0.5   0.6   0.5   0.5  0.52  0.45  0.23  0.00  0.00   80.64   72.93    0.63    0.00    1.31
 1991 354   130     2     2     8.9   14.6   16566    7.0    7.6   0.5   0.4   0.5   0.4   0.4   0.4   0.5   0.5   0.0   0.0   0.1   0.6   0.6   0.5   0.5  0.52  0.46  0.24  0.00  0.00   81.43   73.11    0.65    0.00    1.32
 1991 355   131     2     2     9.0   14.8   16565    7.1    7.7   0.7   0.4   0.5   0.4   0.4   0.4   0.4   0.4   0.0   0.0   0.1   0.6   0.6   0.5   0.5  0.52  0.46  0.24  0.00  0.00   82.29   73.34    0.66    0.00    1.32
 1991 356   132     2     2     9.0   14.4   16564    7.1    7.3   0.5   0.7   0.3   0.4   0.4   0.4   0.4   0.4   0.0   0.0   0.1   0.4   0.6   0.5   0.5  0.52  0.47  0.24  0.00  0.00   83.17   73.95    0.66    0.00    1.32
 1991 357   133     2     2     9.1   14.5   16564    7.1    7.4   0.4   0.3   0.5   0.4   0.4   0.4   0.5   0.5   0.0   0.0   0.1   0.4   0.6   0.5   0.5  0.52  0.48  0.24  0.00  0.00   84.05   74.45    0.67    0.00    1.33
 1991 358   134     2     2     9.2   14.8   16563    7.1    7.7   0.6   0.3   0.5   0.4   0.4   0.4   0.5   0.5   0.0   0.0   0.1   0.6   0.6   0.5   0.5  0.52  0.49  0.24  0.00  0.00   84.91   74.65    0.68    0.00    1.33
 1991 359   135     2     2     9.3   14.8   16562    7.2    7.6   0.4   0.5   0.5   0.4   0.4   0.4   0.5   0.5   0.0   0.0   0.1   0.4   0.6   0.5   0.5  0.52  0.50  0.25  0.00  0.00   85.79   75.09    0.69    0.00    1.33
 1991 360   136     2     2     9.3   14.4   16561    7.0    7.5   0.6   0.4   0.3   0.4   0.5   0.4   0.5   0.5   0.0   0.0   0.1   0.5   0.6   0.5   0.5  0.52  0.50  0.25  0.00  0.00   86.63   75.59    0.70    0.00    1.33
 1991 361   137     2     2     9.4   14.7   16560    7.2    7.5   0.4   0.6   0.4   0.5   0.5   0.4   0.5   0.5   0.0   0.0   0.1   0.5   0.6   0.5   0.5  0.52  0.51  0.25  0.00  0.00   87.44   76.02    0.70    0.00    1.34
 1991 362   138     2     2     9.4   14.8   16560    7.4    7.4   0.6   0.4   0.5   0.5   0.5   0.4   0.5   0.5   0.0   0.0   0.1   0.5   0.6   0.5   0.5  0.52  0.51  0.25  0.00  0.00   88.23   76.58    0.70    0.00    1.34
 1991 363   139     2     2     9.4   15.2   16559    7.8    7.4   0.5   0.5   0.5   0.5   0.5   0.4   0.5   0.5   0.0   0.0   0.1   0.5   0.6   0.5   0.5  0.52  0.51  0.25  0.00  0.00   88.99   77.12    0.70    0.00    1.34
 1991 364   140     2     2     9.4   13.9   16558    6.5    7.4   0.6   0.4   0.3   0.3   0.3   0.4   0.5   0.5   0.0   0.0   0.1   0.5   0.6   0.5   0.5  0.52  0.50  0.26  0.00  0.00   89.75   77.68    0.70    0.00    1.34
 1991 365   141     2     2     9.4   14.4   16557    7.0    7.3   0.6   0.5   0.4   0.3   0.3   0.4   0.5   0.5   0.0   0.0   0.1   0.5   0.6   0.5   0.5  0.52  0.49  0.26  0.00  0.00   90.51   78.26    0.70    0.00    1.35
 1992 001   142     2     2     9.4   14.6   16557    7.3    7.3   0.6   0.4   0.5   0.4   0.4   0.5   0.5   0.5   0.0   0.0   0.1   0.4   0.6   0.5   0.5  0.52  0.49  0.25  0.00  0.00   91.31   78.90    0.70    0.00    1.35
 1992 002   143     2     2     9.4   14.8   16556    7.5    7.3   0.4   0.7   0.6   0.4   0.4   0.5   0.4   0.5   0.0   0.0   0.1   0.4   0.6   0.5   0.5  0.52  0.49  0.25  0.00  0.00   92.12   79.53    0.70    0.00    1.35
 1992 003   144     2     2     9.4   14.6   16555    7.2    7.4   0.6   0.4   0.3   0.5   0.4   0.5   0.4   0.5   0.0   0.0   0.1   0.6   0.6   0.5   0.5  0.52  0.48  0.25  0.00  0.00   92.97   80.02    0.70    0.00    1.35
 1992 004   145     2     2     9.4   15.0   16554    7.7    7.3   0.4   0.6   0.4   0.5   0.5   0.5   0.4   0.5   0.0   0.0   0.1   0.5   0.6   0.5   0.5  0.52  0.48  0.24  0.00  0.00   93.80   80.71    0.70    0.00    1.35
 1992 005   146     2     2     9.4   14.8   16554    7.5    7.3   0.6   0.4   0.5   0.4   0.5   0.5   0.4   0.5   0.0   0.0   0.1   0.5   0.6   0.5   0.5  0.52  0.48  0.24  0.00  0.00   94.60   81.33    0.70    0.00    1.36
 1992 006   147     2     2     9.4   14.8   16553    7.5    7.2   0.6   0.6   0.6   0.4   0.4   0.5   0.5   0.5   0.0   0.0   0.1   0.5   0.6   0.5   0.5  0.52  0.47  0.24  0.00  0.00   95.38   81.92    0.70    0.00    1.36
 1992 007   148     2     2     9.4   14.4   16552    7.2    7.2   0.6   0.4   0.3   0.5   0.4   0.5   0.5   0.5   0.0   0.0   0.1   0.5   0.6   0.5   0.5  0.52  0.47  0.23  0.00  0.00   96.14   82.51    0.70    0.00    1.36
 1992 008   149     2     2     9.4   14.9   16551    7.7    7.2   0.6   0.5   0.4   0.5   0.4   0.5   0.5   0.5   0.0   0.0   0.1   0.4   0.6   0.5   0.5  0.52  0.47  0.23  0.00  0.00   96.89   83.10    0.70    0.00    1.36
 1992 009   150     2     2     9.4   15.1   16551    8.0    7.1   0.7   0.4   0.5   0.5   0.5   0.5   0.5   0.5   0.0   0.0   0.1   0.4   0.6   0.5   0.5  0.52  0.46  0.23  0.00  0.00   97.64   83.72    0.70    0.00    1.37
 1992 010   151     2     2     9.4   15.3   16550    8.2    7.1   0.7   0.6   0.5   0.4   0.5   0.5   0.5   0.5   0.0   0.0   0.1   0.4   0.6   0.5   0.5  0.52  0.46  0.22  0.00  0.00   98.40   84.34    0.70    0.00    1.37
 1992 011   152     2     2     9.4   14.4   16549    7.3    7.0   0.4   0.6   0.4   0.5   0.5   0.4   0.4   0.5   0.0   0.0   0.1   0.4   0.5   0.5   0.5  0.52  0.46  0.22  0.00  0.00   99.14   84.96    0.70    0.00    1.37
 1992 012   153     2     2     9.4   14.5   16549    7.2    7.2   0.6   0.3   0.5   0.5   0.4   0.4   0.4   0.5   0.0   0.0   0.1   0.5   0.6   0.5   0.5  0.52  0.46  0.22  0.00  0.00   99.99   85.43    0.70    0.00    1.37
 1992 013   154     2     2     9.4   14.2   16548    7.1    7.2   0.5   0.5   0.3   0.4   0.5   0.4   0.5   0.5   0.0   0.0   0.1   0.5   0.6   0.5   0.5  0.52  0.45  0.22  0.00  0.00  100.85   86.14    0.70    0.00    1.37
 1992 014   155     2     2     9.4   14.6   16547    7.4    7.1   0.6   0.4   0.4   0.5   0.5   0.4   0.5   0.5   0.0   0.0   0.1   0.5   0.6   0.5   0.5  0.52  0.45  0.21  0.00  0.00  101.67   86.79    0.70    0.00    1.38
 1992 015   156     2     2     9.4   14.9   16546    7.8    7.1   0.6   0.6   0.5   0.5   0.5   0.4   0.5   0.5   0.0   0.0   0.1   0.5   0.6   0.5   0.5  0.52  0.45  0.21  0.00  0.00  102.46   87.42    0.70    0.00    1.38
 1992 016   157     2     2     9.4   14.5   16545    7.3    7.1   0.4   0.4   0.6   0.5   0.4   0.4   0.5   0.5   0.0   0.0   0.1   0.5   0.6   0.5   0.5  0.52  0.45  0.21  0.00  0.00  103.21   87.99    0.70    0.00    1.38
 1992 017   158     2     2     9.4   14.5   16545    7.4    7.1   0.5   0.5   0.3   0.5   0.5   0.4   0.5   0.5   0.0   0.0   0.1   0.5   0.6   0.5   0.5  0.52  0.44  0.21  0.00  0.00  103.92   88.56    0.70    0.00    1.38
 1992 018   159     2     2     9.4   14.4   16544    7.4    7.0   0.6   0.4   0.4   0.5   0.5   0.4   0.4   0.5   0.0   0.0   0.1   0.5   0.6   0.5   0.5  0.52  0.44  0.20  0.00  0.00  104.60   89.12    0.70    0.00    1.39
 1992 019   160     2     2     9.4   14.5   16544    7.4    7.0   0.6   0.5   0.4   0.5   0.4   0.4   0.5   0.5   0.0   0.0   0.1   0.4   0.5   0.5   0.5  0.52  0.44  0.20  0.00  0.00  105.28   89.67    0.70    0.00    1.39
 1992 020   161     2     2     9.4   14.8   16543    7.8    7.0   0.7   0.5   0.5   0.5   0.5   0.4   0.5   0.5   0.0   0.0   0.1   0.4   0.5   0.5   0.5  0.52  0.44  0.20  0.00  0.00  105.95   90.23    0.70    0.00    1.39
 1992 021   162     2     2     9.4   15.1   16542    8.2    6.9   0.5   0.7   0.6   0.5   0.5   0.5   0.5   0.5   0.0   0.0   0.1   0.4   0.5   0.5   0.5  0.52  0.44  0.20  0.00  0.00  106.65   90.83    0.70    0.00    1.39
 1992 022   163     2     2     9.4   15.9   16541    8.6    7.3   0.6   0.7   0.7   0.6   0.5   0.5   0.5   0.5   0.0   0.0   0.1   0.5   0.6   0.5   0.5  0.53  0.43  0.20  0.00  0.00  107.52   91.31    0.70    0.00    1.40
 1992 023   164     2     2     9.4   16.8   16541    9.4    7.4   0.8   0.9   0.8   0.6   0.6   0.5   0.5   0.5   0.0   0.0   0.1   0.5   0.7   0.5   0.5  0.55  0.43  0.19  0.00  0.00  108.42   92.10    0.70    0.00    1.40
 1992 024   165     2     2     9.4   17.7   16540   10.2    7.6   0.9   1.1   0.9   0.7   0.6   0.5   0.5   0.5   0.0   0.0   0.1   0.5   0.7   0.5   0.5  0.56  0.43  0.19  0.00  0.00  109.31   92.82    0.70    0.00    1.40
 1992 025   166     2     2     9.4   18.6   16539   10.9    7.7   1.2   1.3   1.0   0.7   0.7   0.5   0.5   0.5   0.0   0.0   0.1   0.5   0.8   0.5   0.5  0.58  0.43  0.19  0.00  0.00  110.20   93.57    0.70    0.00    1.40
 1992 026   167     2     2     9.4   19.5   16538   11.6    7.9   0.8   1.5   1.2   0.8   0.7   0.5   0.6   0.5   0.0   0.0   0.1   0.5   0.8   0.5   0.5  0.60  0.43  0.19  0.00  0.00  111.05   94.27    0.70    0.00    1.41

*DSSAT Cropping System Model Ver. 4.0.2.000               Aug 15, 2016; 16:10:12

*RUN   3        : UYSB                    
 MODEL          : CRGRO040 - Soybean         
 EXPERIMENT     : UYSB0212 SB    late to create DSS                             
 TREATMENT  1   : UYSB                    

@YEAR DOY   DAS  NAPC  NI#M    NLCC   NIAD    NOAD   NITD   NHTD  NI1D  NI2D  NI3D  NI4D  NI5D  NI6D  NI7D  NI8D  NI9D  NI10  NH1D  NH2D  NH3D  NH4D  NH5D  NH6D  NH7D  NH8D  NH9D  NH10    NMNC    NITC    NDNC    NIMC    AMLC
 1992 224     0     0     0     0.0   54.7   16646   31.7   23.0   5.8   5.2   5.1   4.7   2.6   0.0   0.1   0.1   0.0   0.0   0.7   1.4   1.5   1.4   1.5  1.50  1.47  1.46  0.00  0.00    0.46    1.45    0.00    0.00    0.00
 1992 225     1     0     0     0.0   55.1   16645   32.9   22.2   6.2   5.4   5.2   4.8   2.6   0.0   0.1   0.1   0.0   0.0   0.4   1.2   1.4   1.4   1.4  1.51  1.43  1.41  0.00  0.00    0.91    2.63    0.00    0.00    0.00
 1992 226     2     0     0     0.0   55.6   16645   33.9   21.7   6.5   5.6   5.3   4.8   2.7   0.1   0.1   0.2   0.0   0.0   0.2   1.1   1.4   1.4   1.4  1.51  1.40  1.37  0.00  0.00    1.37    3.66    0.00    0.00    0.00
 1992 227     3     0     0     0.0   56.1   16644   34.9   21.2   2.1   6.1   6.7   4.9   2.8   0.1   0.2   0.2   0.0   0.0   0.2   1.0   1.4   1.3   1.3  1.51  1.37  1.33  0.00  0.00    1.84    4.63    0.00    0.00    0.00
 1992 228     4     2     2     0.0   58.5   16644   36.7   21.8   4.0   6.0   6.9   5.0   2.8   0.1   0.2   0.2   0.0   0.0   1.8   1.1   1.4   1.3   1.3  1.51  1.34  1.29  0.00  0.00    2.31    5.41    0.00    0.00    0.07
 1992 229     5     2     2     0.0   58.9   16643   38.2   20.7   5.1   6.1   7.0   5.1   2.9   0.1   0.3   0.3   0.0   0.0   0.7   1.0   1.4   1.2   1.2  1.52  1.31  1.25  0.00  0.00    2.80    6.90    0.00    0.00    0.15
 1992 230     6     2     2     0.0   59.3   16643   39.3   20.0   5.6   6.2   7.1   5.2   2.9   0.1   0.3   0.3   0.0   0.0   0.1   0.9   1.3   1.2   1.2  1.52  1.28  1.21  0.00  0.00    3.32    8.03    0.00    0.00    0.24
[...]
 1992 317    93     2     2     0.0   43.8   16594   35.2    8.7   0.9   2.7   3.6   5.3   3.2   0.9   1.2   1.3   0.0   0.0   0.1   0.6   0.6   0.5   0.5  0.91  0.41  0.19  0.00  0.00   52.53   60.80    0.00    0.00    1.31
 1992 318    94     2     2     0.0   39.4   16593   31.0    8.4   0.8   1.8   2.4   5.0   3.0   0.8   1.2   1.3   0.0   0.0   0.1   0.5   0.6   0.5   0.5  0.86  0.41  0.19  0.00  0.00   53.26   61.41    0.00    0.00    1.33
 1992 319    95     2     2     0.0   34.3   16592   26.3    8.0   0.8   1.1   1.3   4.5   2.8   0.7   1.1   1.2   0.0   0.0   0.1   0.5   0.6   0.5   0.5  0.78  0.41  0.18  0.00  0.00   54.00   61.99    0.00    0.00    1.35
 1992 320    96     2     2     0.0   30.3   16591   22.6    7.7   0.4   0.7   0.8   4.0   2.5   0.7   1.0   1.1   0.0   0.0   0.1   0.5   0.6   0.5   0.5  0.70  0.41  0.18  0.00  0.00   54.74   62.56    0.00    0.00    1.35
 1992 321    97     2     2     0.0   26.1   16591   18.5    7.6   0.6   0.3   0.3   3.3   2.1   0.6   0.9   1.1   0.0   0.0   0.1   0.6   0.6   0.5   0.5  0.61  0.41  0.18  0.00  0.00   55.52   62.94    0.00    0.00    1.35
 1992 322    98     2     2     0.0   22.9   16590   16.0    7.0   0.4   0.5   0.3   2.5   1.8   0.5   0.8   1.0   0.0   0.0   0.1   0.5   0.6   0.5   0.5  0.53  0.41  0.18  0.00  0.00   56.27   63.57    0.00    0.00    1.35
 1992 323    99     2     2     0.0   20.9   16589   13.9    6.9   0.5   0.4   0.4   1.9   1.6   0.5   0.7   0.9   0.0   0.0   0.1   0.5   0.6   0.5   0.5  0.51  0.40  0.18  0.00  0.00   56.98   64.11    0.00    0.00    1.35
 1992 324   100     2     2     0.0   19.4   16588   12.5    6.9   0.5   0.5   0.5   1.5   1.3   0.5   0.6   0.9   0.0   0.0   0.1   0.5   0.6   0.5   0.5  0.51  0.40  0.18  0.00  0.00   57.66   64.62    0.00    0.00    1.36
 1992 325   101     2     2     0.0   18.3   16588   11.3    6.9   0.5   0.6   0.5   1.1   1.1   0.5   0.5   0.8   0.0   0.0   0.1   0.5   0.6   0.5   0.5  0.51  0.40  0.17  0.00  0.00   58.32   65.12    0.00    0.00    1.36
 1992 326   102     2     2     0.0   16.1   16587    9.2    6.9   0.5   0.4   0.3   0.9   0.9   0.4   0.5   0.7   0.0   0.0   0.1   0.5   0.6   0.5   0.5  0.51  0.40  0.17  0.00  0.00   58.97   65.64    0.00    0.00    1.36
 1992 327   103     2     2     0.0   15.6   16587    8.7    6.9   0.6   0.5   0.4   0.7   0.8   0.4   0.5   0.7   0.0   0.0   0.1   0.5   0.6   0.5   0.5  0.51  0.40  0.17  0.00  0.00   59.62   66.14    0.00    0.00    1.37
 1992 328   104     2     2     0.0   15.2   16586    8.4    6.8   0.6   0.6   0.4   0.5   0.7   0.4   0.5   0.6   0.0   0.0   0.1   0.4   0.5   0.5   0.5  0.51  0.40  0.17  0.00  0.00   60.22   66.63    0.00    0.00    1.37
 1992 329   105     2     2     0.0   14.7   16585    7.9    6.8   0.6   0.5   0.5   0.4   0.5   0.4   0.5   0.6   0.0   0.0   0.1   0.4   0.5   0.5   0.5  0.51  0.40  0.17  0.00  0.00   60.80   67.10    0.00    0.00    1.37
 1992 330   106     2     2     0.0   14.7   16585    7.9    6.7   0.3   0.7   0.6   0.5   0.5   0.4   0.5   0.5   0.0   0.0   0.1   0.4   0.5   0.5   0.5  0.51  0.39  0.17  0.00  0.00   61.33   67.55    0.00    0.00    1.37
 1992 331   107     2     2     0.0   13.9   16584    7.0    6.9   0.4   0.3   0.3   0.5   0.5   0.5   0.4   0.5   0.0   0.0   0.1   0.5   0.6   0.5   0.5  0.51  0.39  0.17  0.00  0.00   61.94   67.88    0.00    0.00    1.37
 1992 332   108     2     2     0.0   14.4   16584    7.5    6.9   0.6   0.4   0.4   0.5   0.5   0.5   0.5   0.5   0.0   0.0   0.1   0.5   0.6   0.5   0.5  0.51  0.39  0.16  0.00  0.00   62.56   68.37    0.00    0.00    1.38
 1992 333   109     2     2     0.0   14.2   16583    7.4    6.9   0.4   0.6   0.4   0.4   0.4   0.5   0.5   0.5   0.0   0.0   0.1   0.5   0.6   0.5   0.5  0.51  0.39  0.16  0.00  0.00   63.22   68.89    0.00    0.00    1.38
 1992 334   110     2     2     0.0   14.4   16582    7.6    6.9   0.5   0.4   0.5   0.5   0.5   0.5   0.5   0.5   0.0   0.0   0.1   0.5   0.6   0.5   0.5  0.51  0.39  0.16  0.00  0.00   63.90   69.45    0.00    0.00    1.38
 1992 335   111     2     2     0.0   14.8   16582    8.0    6.8   0.2   0.6   0.6   0.5   0.5   0.5   0.5   0.5   0.0   0.0   0.1   0.5   0.6   0.5   0.5  0.51  0.39  0.16  0.00  0.00   64.57   70.01    0.00    0.00    1.38
 1992 336   112     2     2     0.0   14.1   16581    7.0    7.1   0.3   0.3   0.3   0.4   0.5   0.5   0.5   0.5   0.0   0.0   0.1   0.6   0.6   0.5   0.5  0.51  0.39  0.16  0.00  0.00   65.32   70.35    0.00    0.00    1.39
 1992 337   113     2     2     0.0   14.2   16580    7.4    6.8   0.5   0.5   0.3   0.4   0.4   0.5   0.5   0.5   0.0   0.0   0.1   0.5   0.6   0.5   0.5  0.51  0.39  0.16  0.00  0.00   66.07   71.00    0.00    0.00    1.39
 1992 338   114     2     2     0.0   14.5   16580    7.7    6.8   0.6   0.6   0.4   0.5   0.5   0.5   0.4   0.5   0.0   0.0   0.1   0.5   0.6   0.5   0.5  0.51  0.39  0.16  0.00  0.00   66.81   71.56    0.00    0.00    1.39
 1992 339   115     2     2     0.0   14.5   16579    7.7    6.8   0.4   0.4   0.5   0.5   0.5   0.5   0.4   0.5   0.0   0.0   0.1   0.5   0.6   0.5   0.5  0.51  0.38  0.16  0.00  0.00   67.55   72.13    0.00    0.00    1.40
 1992 340   116     2     2     0.0   14.7   16578    7.9    6.8   0.6   0.5   0.5   0.3   0.5   0.5   0.5   0.5   0.0   0.0   0.1   0.5   0.6   0.5   0.5  0.51  0.38  0.16  0.00  0.00   68.26   72.70    0.00    0.00    1.40
 1992 341   117     2     2     0.0   13.9   16578    7.2    6.7   0.3   0.4   0.4   0.4   0.4   0.5   0.5   0.5   0.0   0.0   0.1   0.5   0.6   0.5   0.5  0.51  0.38  0.16  0.00  0.00   68.95   73.25    0.00    0.00    1.40
 1992 342   118     2     2     0.0   14.0   16577    7.1    6.9   0.4   0.4   0.5   0.4   0.5   0.4   0.5   0.5   0.0   0.0   0.1   0.6   0.6   0.5   0.5  0.51  0.38  0.16  0.00  0.00   69.71   73.68    0.00    0.00    1.40
 1992 343   119     2     2     0.0   14.6   16576    7.8    6.8   0.6   0.6   0.5   0.5   0.5   0.4   0.5   0.5   0.0   0.0   0.1   0.5   0.6   0.5   0.5  0.51  0.38  0.15  0.00  0.00   70.48   74.33    0.00    0.00    1.40
 1992 344   120     2     2     0.0   14.1   16575    7.3    6.8   0.4   0.4   0.3   0.5   0.5   0.4   0.5   0.5   0.0   0.0   0.1   0.5   0.6   0.5   0.5  0.51  0.38  0.15  0.00  0.00   71.25   74.93    0.00    0.00    1.41
 1992 345   121     2     2     0.0   14.0   16575    7.2    6.7   0.6   0.6   0.4   0.3   0.4   0.4   0.5   0.5   0.0   0.0   0.1   0.5   0.6   0.5   0.5  0.51  0.38  0.15  0.00  0.00   72.00   75.52    0.00    0.00    1.41
 1992 346   122     2     2     0.0   13.8   16574    7.0    6.7   0.4   0.4   0.5   0.4   0.5   0.4   0.4   0.5   0.0   0.0   0.1   0.5   0.6   0.5   0.5  0.51  0.38  0.15  0.00  0.00   72.74   76.10    0.00    0.00    1.41
 1992 347   123     2     2     0.0   14.3   16573    7.6    6.7   0.6   0.5   0.5   0.4   0.5   0.4   0.4   0.5   0.0   0.0   0.1   0.5   0.6   0.5   0.5  0.51  0.37  0.15  0.00  0.00   73.44   76.66    0.00    0.00    1.42
 1992 348   124     2     2     0.0   13.9   16573    7.3    6.7   0.6   0.4   0.3   0.5   0.5   0.4   0.5   0.5   0.0   0.0   0.1   0.4   0.6   0.5   0.5  0.51  0.37  0.15  0.00  0.00   74.10   77.22    0.00    0.00    1.42
 1992 349   125     2     2     0.0   14.1   16572    7.6    6.6   0.3   0.6   0.4   0.5   0.4   0.5   0.5   0.5   0.0   0.0   0.1   0.4   0.5   0.5   0.5  0.51  0.37  0.15  0.00  0.00   74.73   77.77    0.00    0.00    1.42
 1992 350   126     2     2     0.0   14.1   16571    7.3    6.8   0.4   0.3   0.5   0.4   0.5   0.5   0.5   0.5   0.0   0.0   0.1   0.5   0.6   0.5   0.5  0.51  0.37  0.15  0.00  0.00   75.48   78.19    0.00    0.00    1.42
 1992 351   127     2     2     0.0   14.1   16571    7.5    6.7   0.6   0.4   0.3   0.4   0.5   0.5   0.5   0.5   0.0   0.0   0.1   0.5   0.6   0.5   0.5  0.51  0.37  0.15  0.00  0.00   76.23   78.85    0.00    0.00    1.42
 1992 352   128     2     2     0.0   14.4   16570    7.7    6.7   0.4   0.6   0.4   0.5   0.5   0.5   0.5   0.5   0.0   0.0   0.1   0.5   0.6   0.5   0.5  0.51  0.37  0.15  0.00  0.00   76.98   79.46    0.00    0.00    1.43
 1992 353   129     2     2     0.0   14.3   16569    7.7    6.6   0.6   0.4   0.5   0.5   0.4   0.5   0.5   0.5   0.0   0.0   0.1   0.5   0.6   0.5   0.5  0.51  0.37  0.15  0.00  0.00   77.71   80.09    0.00    0.00    1.43
 1992 354   130     2     2     0.0   14.3   16569    7.7    6.6   0.6   0.6   0.6   0.4   0.5   0.5   0.4   0.5   0.0   0.0   0.1   0.4   0.5   0.5   0.5  0.51  0.37  0.15  0.00  0.00   78.39   80.69    0.00    0.00    1.43
 1992 355   131     2     2     0.0   13.9   16568    7.4    6.5   0.3   0.4   0.4   0.5   0.5   0.5   0.4   0.5   0.0   0.0   0.1   0.4   0.5   0.5   0.5  0.51  0.36  0.15  0.00  0.00   79.05   81.27    0.00    0.00    1.43
 1992 356   132     2     2     0.0   14.6   16567    7.8    6.7   0.5   0.5   0.5   0.5   0.5   0.5   0.5   0.5   0.0   0.0   0.1   0.6   0.6   0.5   0.5  0.51  0.36  0.15  0.00  0.00   79.84   81.74    0.00    0.00    1.44
 1992 357   133     2     2     0.0   14.9   16566    8.3    6.6   0.7   0.7   0.6   0.6   0.5   0.5   0.5   0.5   0.0   0.0   0.1   0.5   0.6   0.5   0.5  0.51  0.36  0.15  0.00  0.00   80.65   82.47    0.00    0.00    1.44
 1992 358   134     2     2     0.0   14.1   16566    7.4    6.6   0.2   0.4   0.3   0.5   0.5   0.5   0.5   0.5   0.0   0.0   0.2   0.5   0.6   0.5   0.5  0.51  0.36  0.15  0.00  0.00   81.45   83.05    0.00    0.00    1.44
 1992 359   135     2     2     0.0   14.3   16565    7.8    6.5   0.6   0.5   0.5   0.6   0.5   0.4   0.5   0.5   0.0   0.0   0.0   0.5   0.6   0.5   0.4  0.51  0.36  0.15  0.00  0.00   82.24   83.84    0.00    0.00    1.44
 1992 360   136     2     2     0.0   13.7   16564    6.8    6.9   0.3   0.3   0.5   0.3   0.5   0.4   0.5   0.5   0.0   0.0   0.2   0.6   0.6   0.5   0.4  0.51  0.36  0.14  0.00  0.00   83.08   84.12    0.00    0.00    1.44
 1992 361   137     2     2     0.0   14.1   16563    7.6    6.5   0.6   0.5   0.6   0.3   0.5   0.4   0.5   0.5   0.0   0.0   0.1   0.5   0.6   0.5   0.4  0.51  0.36  0.14  0.00  0.00   83.88   84.87    0.00    0.00    1.44
 1992 362   138     2     2     0.0   13.8   16563    7.2    6.6   0.4   0.6   0.3   0.4   0.5   0.4   0.4   0.5   0.0   0.0   0.1   0.5   0.6   0.5   0.4  0.51  0.36  0.14  0.00  0.00   84.66   85.43    0.00    0.00    1.45
 1992 363   139     2     2     0.0   13.7   16562    7.1    6.6   0.6   0.4   0.4   0.4   0.4   0.4   0.5   0.5   0.0   0.0   0.1   0.5   0.6   0.5   0.4  0.51  0.35  0.14  0.00  0.00   85.42   86.04    0.00    0.00    1.45
 1992 364   140     2     2     0.0   14.2   16561    7.6    6.6   0.5   0.6   0.5   0.5   0.5   0.5   0.5   0.5   0.0   0.0   0.1   0.5   0.6   0.5   0.4  0.51  0.35  0.14  0.00  0.00   86.19   86.64    0.00    0.00    1.45
 1992 365   141     2     2     0.0   14.3   16561    7.8    6.6   0.6   0.4   0.5   0.5   0.5   0.5   0.5   0.5   0.0   0.0   0.1   0.4   0.6   0.5   0.4  0.51  0.35  0.14  0.00  0.00   86.94   87.23    0.00    0.00    1.45
 1992 366   142     2     2     0.0   13.9   16560    7.3    6.6   0.0   0.4   0.3   0.4   0.6   0.5   0.5   0.5   0.0   0.0   0.1   0.4   0.6   0.5   0.4  0.51  0.35  0.14  0.00  0.00   87.67   87.78    0.00    0.00    1.46
 1993 001   143     2     2     0.3   14.0   16559    7.1    6.9   0.2   0.2   0.3   0.3   0.4   0.5   0.6   0.6   0.0   0.0   0.1   0.5   0.6   0.5   0.5  0.51  0.35  0.14  0.00  0.00   88.41   87.99    0.00    0.00    1.46
 1993 002   144     2     2     0.5   13.9   16559    6.6    7.4   0.2   0.2   0.3   0.3   0.4   0.5   0.5   0.6   0.0   0.0   0.2   0.6   0.7   0.6   0.5  0.52  0.36  0.15  0.00  0.00   89.05   88.05    0.00    0.00    1.46
 1993 003   145     2     2     0.6   13.6   16558    6.4    7.2   0.2   0.2   0.3   0.3   0.4   0.5   0.5   0.5   0.0   0.0   0.3   0.6   0.6   0.5   0.5  0.52  0.37  0.15  0.00  0.00   89.72   88.15    0.00    0.00    1.47
 1993 004   146     2     2     0.9   13.5   16557    6.2    7.3   0.2   0.2   0.3   0.3   0.4   0.4   0.5   0.5   0.0   0.0   0.4   0.6   0.6   0.5   0.5  0.52  0.38  0.15  0.00  0.00   90.37   88.24    0.00    0.00    1.47
 1993 005   147     2     2     1.1   13.4   16557    6.2    7.2   0.6   0.2   0.3   0.3   0.4   0.4   0.5   0.5   0.0   0.0   0.1   0.6   0.6   0.5   0.5  0.52  0.39  0.16  0.00  0.00   91.06   88.53    0.01    0.00    1.47
 1993 006   148     2     2     1.2   13.3   16556    6.1    7.3   0.4   0.3   0.3   0.3   0.4   0.4   0.5   0.5   0.0   0.0   0.1   0.6   0.6   0.5   0.5  0.52  0.40  0.16  0.00  0.00   91.82   88.72    0.02    0.00    1.48
 1993 007   149     2     2     1.2   13.6   16555    6.5    7.0   0.5   0.5   0.4   0.3   0.4   0.4   0.5   0.5   0.0   0.0   0.1   0.5   0.6   0.5   0.5  0.52  0.41  0.16  0.00  0.00   92.64   89.21    0.03    0.00    1.49
 1993 008   150     2     2     1.3   13.9   16555    6.8    7.1   0.2   0.6   0.5   0.3   0.4   0.4   0.5   0.5   0.0   0.0   0.1   0.5   0.6   0.5   0.5  0.52  0.42  0.17  0.00  0.00   93.49   89.68    0.03    0.00    1.49
 1993 009   151     2     2     1.3   14.0   16554    6.5    7.5   0.2   0.3   0.5   0.3   0.4   0.4   0.5   0.5   0.0   0.0   0.2   0.6   0.6   0.5   0.5  0.52  0.42  0.17  0.00  0.00   94.35   89.80    0.04    0.00    1.49
 1993 010   152     2     2     1.4   14.2   16553    6.8    7.4   0.6   0.3   0.5   0.3   0.4   0.4   0.5   0.5   0.0   0.0   0.0   0.6   0.6   0.5   0.5  0.52  0.43  0.17  0.00  0.00   95.23   90.17    0.04    0.00    1.49
 1993 011   153     2     2     1.4   14.3   16552    7.1    7.1   0.3   0.5   0.6   0.3   0.4   0.4   0.5   0.5   0.0   0.0   0.2   0.4   0.6   0.5   0.5  0.52  0.43  0.18  0.00  0.00   96.11   90.71    0.04    0.00    1.50
 1993 012   154     2     2     1.4   13.9   16552    6.9    7.0   0.6   0.4   0.3   0.4   0.4   0.4   0.5   0.5   0.0   0.0   0.1   0.5   0.6   0.5   0.5  0.52  0.43  0.18  0.00  0.00   96.98   91.39    0.04    0.00    1.50
 1993 013   155     2     2     1.4   14.5   16551    7.5    7.0   0.5   0.6   0.4   0.4   0.5   0.4   0.5   0.5   0.0   0.0   0.1   0.5   0.6   0.5   0.5  0.52  0.43  0.18  0.00  0.00   97.88   92.04    0.04    0.00    1.50
 1993 014   156     2     2     1.4   14.8   16550    7.8    7.0   0.7   0.4   0.5   0.5   0.5   0.5   0.5   0.5   0.0   0.0   0.1   0.4   0.6   0.5   0.5  0.52  0.43  0.18  0.00  0.00   98.79   92.77    0.04    0.00    1.51
 1993 015   157     2     2     1.4   14.5   16549    7.6    7.0   0.2   0.6   0.6   0.6   0.3   0.5   0.4   0.5   0.0   0.0   0.1   0.4   0.6   0.5   0.5  0.52  0.43  0.18  0.00  0.00   99.70   93.46    0.04    0.00    1.51
 1993 016   158     2     2     1.5   14.0   16548    6.5    7.5   0.4   0.3   0.3   0.5   0.3   0.5   0.4   0.5   0.0   0.0   0.1   0.6   0.7   0.5   0.5  0.52  0.44  0.18  0.00  0.00  100.65   93.69    0.04    0.00    1.51
 1993 017   159     2     2     1.5   14.3   16547    7.0    7.3   0.6   0.5   0.3   0.5   0.3   0.5   0.4   0.5   0.0   0.0   0.1   0.4   0.6   0.5   0.5  0.52  0.44  0.17  0.00  0.00  101.59   94.20    0.04    0.00    1.51
 1993 018   160     2     2     1.5   14.5   16547    7.3    7.1   0.4   0.7   0.4   0.5   0.4   0.5   0.4   0.5   0.0   0.0   0.1   0.5   0.6   0.5   0.5  0.52  0.43  0.17  0.00  0.00  102.49   94.74    0.04    0.00    1.51
 1993 019   161     2     2     1.5   14.5   16546    7.4    7.1   0.6   0.4   0.4   0.5   0.4   0.5   0.4   0.5   0.0   0.0   0.1   0.5   0.6   0.5   0.5  0.52  0.43  0.17  0.00  0.00  103.33   95.25    0.04    0.00    1.52
 1993 020   162     2     2     1.5   14.8   16545    7.8    7.0   0.5   0.5   0.5   0.5   0.4   0.5   0.5   0.5   0.0   0.0   0.1   0.5   0.6   0.5   0.5  0.52  0.43  0.17  0.00  0.00  104.15   95.85    0.04    0.00    1.52
 1993 021   163     2     2     1.5   14.1   16544    7.1    7.0   0.6   0.4   0.3   0.3   0.4   0.5   0.5   0.5   0.0   0.0   0.1   0.5   0.6   0.5   0.5  0.52  0.43  0.17  0.00  0.00  104.96   96.44    0.04    0.00    1.52
 1993 022   164     2     2     1.5   14.6   16544    7.6    7.0   0.6   0.6   0.4   0.3   0.5   0.5   0.5   0.5   0.0   0.0   0.1   0.5   0.6   0.5   0.5  0.52  0.43  0.17  0.00  0.00  105.76   97.05    0.04    0.00    1.52
 1993 023   165     2     2     1.5   14.6   16543    7.6    7.0   0.6   0.4   0.5   0.4   0.5   0.5   0.5   0.4   0.0   0.0   0.1   0.4   0.6   0.5   0.5  0.52  0.43  0.17  0.00  0.00  106.60   97.71    0.04    0.00    1.53
 1993 024   166     2     2     1.5   13.8   16542    6.9    6.9   0.6   0.6   0.6   0.4   0.3   0.3   0.5   0.4   0.0   0.0   0.1   0.4   0.6   0.5   0.5  0.52  0.43  0.17  0.00  0.00  107.46   98.40    0.04    0.00    1.53
 1993 025   167     2     2     1.5   13.2   16541    6.3    6.9   0.5   0.6   0.3   0.5   0.3   0.3   0.4   0.4   0.0   0.0   0.1   0.4   0.6   0.5   0.5  0.52  0.43  0.17  0.00  0.00  108.33   99.13    0.04    0.00    1.53
 1993 026   168     2     2     1.5   13.5   16540    6.6    6.9   0.6   0.4   0.4   0.5   0.4   0.3   0.4   0.4   0.0   0.0   0.1   0.4   0.6   0.5   0.5  0.52  0.43  0.17  0.00  0.00  109.27   99.81    0.04    0.00    1.53
 1993 027   169     2     2     1.5   13.6   16540    6.8    6.9   0.5   0.6   0.5   0.4   0.4   0.3   0.4   0.5   0.0   0.0   0.1   0.4   0.6   0.5   0.5  0.52  0.43  0.17  0.00  0.00  110.20  100.57    0.04    0.00    1.54
 1993 028   170     2     2     1.5   13.9   16539    7.0    6.9   0.5   0.6   0.5   0.4   0.5   0.3   0.4   0.5   0.0   0.0   0.1   0.4   0.6   0.5   0.5  0.52  0.42  0.17  0.00  0.00  111.09  101.21    0.04    0.00    1.54
 1993 029   171     2     2     1.5   13.6   16538    6.7    6.9   0.5   0.4   0.3   0.5   0.5   0.3   0.4   0.5   0.0   0.0   0.1   0.4   0.6   0.5   0.5  0.52  0.42  0.17  0.00  0.00  111.94  101.89    0.04    0.00    1.54
 1993 030   172     2     2     1.5   14.2   16537    7.3    6.9   0.6   0.6   0.4   0.5   0.5   0.4   0.4   0.5   0.0   0.0   0.1   0.4   0.6   0.5   0.5  0.52  0.42  0.17  0.00  0.00  112.73  102.49    0.04    0.00    1.54
 1993 031   173     2     2     1.5   13.9   16537    6.9    6.9   0.4   0.4   0.5   0.5   0.4   0.4   0.5   0.5   0.0   0.0   0.1   0.4   0.5   0.5   0.5  0.52  0.42  0.17  0.00  0.00  113.53  103.11    0.04    0.00    1.55
 1993 032   174     2     2     1.5   14.5   16536    7.6    7.0   0.3   0.5   0.6   0.5   0.5   0.4   0.5   0.5   0.0   0.0   0.1   0.4   0.6   0.5   0.5  0.53  0.42  0.17  0.00  0.00  114.30  103.72    0.04    0.00    1.55
 1993 033   175     2     2     1.5   15.1   16535    7.8    7.3   0.5   0.5   0.6   0.6   0.5   0.4   0.5   0.5   0.0   0.0   0.1   0.6   0.7   0.5   0.5  0.52  0.42  0.16  0.00  0.00  115.17  104.09    0.04    0.00    1.55
 1993 034   176     2     2     1.5   15.9   16534    8.3    7.6   0.7   0.7   0.6   0.6   0.5   0.4   0.5   0.5   0.0   0.0   0.1   0.5   0.8   0.5   0.5  0.54  0.42  0.16  0.00  0.00  116.05  104.68    0.04    0.00    1.55
 1993 035   177     2     2     1.5   16.8   16534    9.1    7.8   0.9   0.9   0.7   0.7   0.6   0.4   0.5   0.5   0.0   0.0   0.1   0.5   0.9   0.5   0.5  0.56  0.42  0.16  0.00  0.00  116.96  105.39    0.04    0.00    1.56
 1993 036   178     2     2     1.5   17.7   16533    9.8    7.9   1.1   1.0   0.8   0.7   0.6   0.4   0.5   0.5   0.0   0.0   0.1   0.5   0.9   0.6   0.5  0.57  0.42  0.16  0.00  0.00  117.85  106.12    0.04    0.00    1.56
 1993 037   179     2     2     1.5   18.7   16532   10.6    8.1   1.3   1.2   1.0   0.8   0.7   0.4   0.5   0.5   0.0   0.0   0.1   0.5   1.0   0.6   0.5  0.59  0.42  0.16  0.00  0.00  118.79  106.89    0.04    0.00    1.56
 1993 038   180     2     2     1.5   19.6   16531   11.4    8.3   1.5   1.4   1.1   0.8   0.7   0.4   0.6   0.5   0.0   0.0   0.1   0.5   1.0   0.6   0.5  0.61  0.42  0.16  0.00  0.00  119.74  107.69    0.04    0.00    1.56
