*SOIL WATER DAILY OUTPUT FILE

*DSSAT Cropping System Model Ver. 4.0.2.000               Aug 15, 2016; 16:10:12

*RUN   1        : UYSB                    
 MODEL          : CRGRO040 - Soybean         
 EXPERIMENT     : UYSB0212 SB    late to create DSS                             
 TREATMENT  1   : UYSB                    

@YEAR DOY   DAS  SWXD   ROFC   DRNC   PREC  IR#C  IRRC  DTWT   SW1D   SW2D   SW3D   SW4D   SW5D   SW6D   SW7D   SW8D   SW9D   SW10
 1990 224     0   116      0      0      0     0     0   125  0.347  0.394  0.394  0.335  0.375  0.419  0.408  0.395  0.000  0.000
 1990 225     1   114      0      0      0     0     0   125  0.322  0.393  0.394  0.335  0.376  0.418  0.408  0.395  0.000  0.000
 1990 226     2   113      0      0      0     0     0   125  0.303  0.391  0.394  0.336  0.376  0.418  0.408  0.395  0.000  0.000
 1990 227     3   183      0      0     28     1    43   125  0.539  0.566  0.568  0.432  0.377  0.417  0.408  0.395  0.000  0.000
 1990 228     4   180      0      0     28     1    43   125  0.478  0.555  0.557  0.437  0.390  0.417  0.408  0.395  0.000  0.000
 1990 229     5   177      0      0     28     1    43   125  0.467  0.531  0.549  0.437  0.401  0.416  0.408  0.395  0.000  0.000
 1990 230     6   175      0      0     28     1    43   125  0.456  0.520  0.542  0.437  0.404  0.416  0.408  0.395  0.000  0.000
 1990 231     7   173      0      0     28     1    43   125  0.458  0.514  0.536  0.436  0.406  0.416  0.408  0.395  0.000  0.000
 1990 232     8   172      0      0     28     1    43   125  0.460  0.509  0.532  0.434  0.407  0.416  0.408  0.395  0.000  0.000
 1990 233     9   171      0      0     28     1    43   125  0.462  0.505  0.528  0.433  0.408  0.416  0.408  0.395  0.000  0.000
 1990 234    10   171      0      0     28     1    43   125  0.463  0.503  0.525  0.431  0.409  0.415  0.408  0.395  0.000  0.000
 1990 235    11   170      0      0     28     1    43   125  0.464  0.500  0.522  0.430  0.410  0.415  0.408  0.395  0.000  0.000
 1990 236    12   169      0      0     28     1    43   125  0.464  0.498  0.520  0.429  0.411  0.415  0.408  0.395  0.000  0.000
 1990 237    13   168      0      0     28     1    43   125  0.464  0.496  0.517  0.428  0.412  0.415  0.407  0.395  0.000  0.000
 1990 238    14   168      0      0     28     1    43   125  0.464  0.495  0.515  0.427  0.412  0.415  0.407  0.395  0.000  0.000
 1990 239    15   208      0      0     70     1    43   125  0.551  0.566  0.566  0.469  0.461  0.432  0.417  0.399  0.000  0.000
 1990 240    16   206      0      1     72     1    43   125  0.502  0.563  0.562  0.464  0.460  0.433  0.422  0.403  0.000  0.000
 1990 241    17   194      0     10     72     1    43   125  0.472  0.539  0.554  0.454  0.448  0.427  0.417  0.400  0.000  0.000
 1990 242    18   186      0     15     72     1    43   125  0.451  0.524  0.545  0.448  0.441  0.424  0.413  0.398  0.000  0.000
 1990 243    19   183      0     17     72     1    43   125  0.464  0.515  0.539  0.444  0.437  0.422  0.411  0.398  0.000  0.000
 1990 244    20   184      0     17     75     1    43   125  0.510  0.511  0.534  0.441  0.436  0.422  0.412  0.398  0.000  0.000
 1990 245    21   181      0     18     75     1    43   125  0.481  0.516  0.532  0.440  0.434  0.422  0.410  0.397  0.000  0.000
 1990 246    22   180      0     18     75     1    43   125  0.476  0.512  0.529  0.439  0.433  0.422  0.410  0.397  0.000  0.000
 1990 247    23   179      0     18     75     1    43   125  0.474  0.509  0.527  0.438  0.433  0.422  0.410  0.397  0.000  0.000
 1990 248    24   178      0     18     75     1    43   125  0.473  0.506  0.525  0.437  0.433  0.422  0.410  0.397  0.000  0.000
 1990 249    25   179      0     18     76     1    43   125  0.491  0.504  0.523  0.436  0.433  0.422  0.410  0.397  0.000  0.000
 1990 250    26   186      0     18     84     1    43   125  0.555  0.545  0.522  0.435  0.432  0.422  0.410  0.397  0.000  0.000
 1990 251    27   202      0     19    102     1    43   125  0.544  0.563  0.572  0.468  0.444  0.423  0.412  0.398  0.000  0.000
 1990 252    28   192      0     25    102     1    43   125  0.454  0.555  0.560  0.456  0.439  0.422  0.411  0.398  0.000  0.000
 1990 253    29   186      0     28    102     1    43   125  0.458  0.527  0.550  0.449  0.436  0.422  0.411  0.398  0.000  0.000
 1990 254    30   207      0     28    126     1    43   125  0.540  0.565  0.564  0.470  0.460  0.431  0.417  0.401  0.000  0.000
 1990 255    31   195      0     37    126     1    43   125  0.476  0.555  0.555  0.457  0.449  0.426  0.414  0.398  0.000  0.000
 1990 256    32   188      0     42    126     1    43   125  0.475  0.530  0.548  0.449  0.442  0.423  0.411  0.397  0.000  0.000
 1990 257    33   184      0     44    126     1    43   125  0.464  0.521  0.541  0.445  0.437  0.422  0.410  0.397  0.000  0.000
 1990 258    34   182      0     45    126     1    43   125  0.465  0.515  0.537  0.442  0.435  0.422  0.410  0.397  0.000  0.000
 1990 259    35   180      0     45    126     1    43   125  0.466  0.511  0.533  0.439  0.433  0.422  0.410  0.397  0.000  0.000
 1990 260    36   179      0     45    126     1    43   125  0.468  0.507  0.529  0.439  0.433  0.422  0.410  0.397  0.000  0.000
 1990 261    37   208      0     46    158     1    43   125  0.544  0.565  0.565  0.469  0.460  0.433  0.419  0.401  0.000  0.000
 1990 262    38   197      0     55    158     1    43   125  0.485  0.556  0.556  0.456  0.449  0.428  0.414  0.398  0.000  0.000
 1990 263    39   190      0     60    158     1    43   125  0.500  0.532  0.549  0.449  0.442  0.424  0.412  0.397  0.000  0.000
 1990 264    40   186      0     63    158     1    43   125  0.492  0.526  0.543  0.445  0.437  0.422  0.410  0.397  0.000  0.000
 1990 265    41   183      0     64    158     1    43   125  0.469  0.522  0.539  0.442  0.435  0.421  0.410  0.397  0.000  0.000
 1990 266    42   181      0     64    158     1    43   125  0.470  0.516  0.535  0.440  0.433  0.421  0.410  0.397  0.000  0.000
 1990 267    43   180      0     64    158     1    43   125  0.470  0.511  0.531  0.439  0.433  0.421  0.410  0.397  0.000  0.000
 1990 268    44   179      0     64    158     1    43   125  0.470  0.508  0.529  0.438  0.433  0.421  0.410  0.397  0.000  0.000
 1990 269    45   178      0     64    158     1    43   125  0.470  0.505  0.526  0.437  0.433  0.421  0.410  0.397  0.000  0.000
 1990 270    46   177      0     64    158     1    43   125  0.470  0.503  0.524  0.436  0.433  0.421  0.410  0.397  0.000  0.000
 1990 271    47   177      0     64    158     1    43   125  0.470  0.501  0.522  0.435  0.433  0.421  0.410  0.397  0.000  0.000
 1990 272    48   176      0     64    158     1    43   125  0.470  0.500  0.520  0.434  0.433  0.421  0.410  0.397  0.000  0.000
 1990 273    49   176      0     64    158     1    43   125  0.470  0.498  0.518  0.433  0.432  0.421  0.410  0.397  0.000  0.000
 1990 274    50   175      0     64    158     1    43   125  0.469  0.497  0.517  0.432  0.432  0.421  0.410  0.397  0.000  0.000
 1990 275    51   174      0     64    158     1    43   125  0.469  0.496  0.515  0.431  0.432  0.421  0.410  0.397  0.000  0.000
 1990 276    52   174      0     64    158     1    43   125  0.468  0.494  0.514  0.430  0.432  0.421  0.410  0.397  0.000  0.000
 1990 277    53   173      0     64    158     1    43   125  0.468  0.493  0.512  0.430  0.431  0.421  0.410  0.397  0.000  0.000
 1990 278    54   173      0     64    158     1    43   125  0.468  0.492  0.511  0.429  0.431  0.421  0.410  0.397  0.000  0.000
 1990 279    55   195      0     64    182     1    43   125  0.531  0.567  0.567  0.444  0.433  0.422  0.410  0.397  0.000  0.000
 1990 280    56   198      0     65    187     1    43   125  0.543  0.563  0.568  0.453  0.438  0.422  0.411  0.398  0.000  0.000
 1990 281    57   221      1     78    226     1    43   125  0.515  0.568  0.568  0.470  0.460  0.447  0.439  0.432  0.000  0.000
 1990 282    58   202      1     92    226     1    43   125  0.447  0.546  0.557  0.457  0.449  0.436  0.427  0.417  0.000  0.000
 1990 283    59   191      1    100    226     1    43   125  0.450  0.523  0.548  0.449  0.442  0.429  0.419  0.408  0.000  0.000
 1990 284    60   185      1    105    226     1    43   125  0.456  0.515  0.540  0.445  0.437  0.425  0.415  0.403  0.000  0.000
 1990 285    61   215      1    107    264     1    43   125  0.471  0.567  0.563  0.469  0.460  0.447  0.439  0.416  0.000  0.000
 1990 286    62   199      1    120    264     1    43   125  0.445  0.534  0.555  0.457  0.449  0.436  0.427  0.408  0.000  0.000
 1990 287    63   190      1    127    264     1    43   125  0.460  0.519  0.545  0.449  0.442  0.429  0.419  0.403  0.000  0.000
 1990 288    64   185      1    131    264     1    43   125  0.464  0.514  0.539  0.445  0.437  0.425  0.415  0.400  0.000  0.000
 1990 289    65   182      1    133    264     1    43   125  0.467  0.511  0.535  0.441  0.435  0.423  0.412  0.398  0.000  0.000
 1990 290    66   180      1    135    264     1    43   125  0.469  0.508  0.531  0.439  0.433  0.421  0.410  0.398  0.000  0.000
 1990 291    67   179      1    135    264     1    43   125  0.471  0.506  0.528  0.438  0.433  0.421  0.410  0.398  0.000  0.000
 1990 292    68   183      1    135    272     1    43   125  0.498  0.535  0.526  0.437  0.433  0.421  0.410  0.398  0.000  0.000
 1990 293    69   185      1    135    277     1    43   125  0.535  0.538  0.529  0.436  0.433  0.421  0.410  0.398  0.000  0.000
 1990 294    70   183      1    135    277     1    43   125  0.499  0.535  0.531  0.436  0.433  0.421  0.410  0.398  0.000  0.000
 1990 295    71   182      1    135    277     1    43   125  0.499  0.524  0.530  0.435  0.433  0.421  0.410  0.398  0.000  0.000
 1990 296    72   181      1    135    277     1    43   125  0.494  0.519  0.529  0.435  0.433  0.421  0.410  0.398  0.000  0.000
 1990 297    73   180      1    135    277     1    43   125  0.491  0.516  0.527  0.434  0.433  0.421  0.410  0.398  0.000  0.000
 1990 298    74   179      1    135    277     1    43   125  0.488  0.513  0.526  0.433  0.432  0.421  0.410  0.398  0.000  0.000
 1990 299    75   179      1    135    277     1    43   125  0.486  0.510  0.524  0.433  0.432  0.421  0.410  0.398  0.000  0.000
 1990 300    76   178      1    135    277     1    43   125  0.484  0.508  0.522  0.432  0.432  0.421  0.410  0.398  0.000  0.000
 1990 301    77   177      1    135    277     1    43   125  0.483  0.506  0.521  0.432  0.431  0.421  0.410  0.398  0.000  0.000
 1990 302    78   180      1    135    283     1    43   125  0.514  0.517  0.519  0.431  0.431  0.421  0.410  0.398  0.000  0.000
 1990 303    79   194      1    135    304     1    43   125  0.438  0.568  0.568  0.457  0.439  0.422  0.411  0.398  0.000  0.000
 1990 304    80   186      1    140    304     1    43   125  0.434  0.530  0.557  0.449  0.436  0.422  0.410  0.397  0.000  0.000
 1990 305    81   186      1    140    306     1    43   125  0.486  0.516  0.546  0.449  0.438  0.422  0.411  0.398  0.000  0.000
 1990 306    82   183      1    142    306     1    43   125  0.470  0.516  0.539  0.444  0.435  0.421  0.410  0.398  0.000  0.000
 1990 307    83   181      1    142    306     1    43   125  0.469  0.513  0.535  0.441  0.434  0.421  0.410  0.398  0.000  0.000
 1990 308    84   208      1    143    339     1    43   125  0.488  0.566  0.564  0.469  0.460  0.439  0.422  0.403  0.000  0.000
 1990 309    85   194      1    153    339     1    43   125  0.444  0.537  0.555  0.457  0.449  0.431  0.417  0.400  0.000  0.000
 1990 310    86   187      1    158    339     1    43   125  0.460  0.520  0.545  0.449  0.442  0.426  0.413  0.398  0.000  0.000
 1990 311    87   187      1    159    341     1    43   125  0.496  0.514  0.539  0.445  0.440  0.425  0.415  0.400  0.000  0.000
 1990 312    88   183      1    161    341     1    43   125  0.480  0.516  0.535  0.442  0.437  0.423  0.412  0.398  0.000  0.000
 1990 313    89   181      1    163    341     1    43   125  0.478  0.513  0.532  0.439  0.434  0.421  0.411  0.398  0.000  0.000
 1990 314    90   180      1    163    341     1    43   125  0.477  0.510  0.529  0.438  0.433  0.422  0.411  0.398  0.000  0.000
 1990 315    91   179      1    163    341     1    43   125  0.476  0.507  0.527  0.437  0.433  0.422  0.411  0.398  0.000  0.000
 1990 316    92   179      1    163    341     1    43   125  0.476  0.505  0.525  0.436  0.433  0.422  0.411  0.398  0.000  0.000
 1990 317    93   178      1    163    341     1    43   125  0.475  0.504  0.523  0.435  0.433  0.422  0.411  0.398  0.000  0.000
 1990 318    94   178      1    163    343     1    43   125  0.495  0.502  0.521  0.434  0.433  0.422  0.411  0.398  0.000  0.000
 1990 319    95   178      1    163    343     1    43   125  0.485  0.504  0.520  0.433  0.432  0.422  0.411  0.398  0.000  0.000
 1990 320    96   219      1    170    396     1    43   125  0.494  0.567  0.567  0.469  0.460  0.447  0.439  0.432  0.000  0.000
 1990 321    97   200      1    184    396     1    43   125  0.432  0.539  0.557  0.457  0.448  0.436  0.427  0.417  0.000  0.000
 1990 322    98   191      1    192    396     1    43   125  0.453  0.520  0.546  0.449  0.441  0.429  0.419  0.408  0.000  0.000
 1990 323    99   185      1    196    396     1    43   125  0.459  0.513  0.539  0.445  0.437  0.425  0.415  0.403  0.000  0.000
 1990 324   100   182      1    199    396     1    43   125  0.463  0.510  0.534  0.441  0.435  0.423  0.412  0.400  0.000  0.000
 1990 325   101   181      1    200    398     1    43   125  0.488  0.507  0.530  0.439  0.434  0.422  0.412  0.400  0.000  0.000
 1990 326   102   180      1    200    398     1    43   125  0.479  0.508  0.528  0.438  0.433  0.422  0.411  0.398  0.000  0.000
 1990 327   103   179      1    200    398     1    43   125  0.476  0.506  0.526  0.437  0.433  0.422  0.411  0.398  0.000  0.000
 1990 328   104   178      1    200    398     1    43   125  0.475  0.505  0.524  0.436  0.433  0.422  0.411  0.398  0.000  0.000
 1990 329   105   178      1    200    398     1    43   125  0.474  0.503  0.522  0.435  0.433  0.422  0.411  0.398  0.000  0.000
 1990 330   106   192      1    201    419     1    43   125  0.466  0.566  0.566  0.446  0.435  0.422  0.411  0.398  0.000  0.000
 1990 331   107   184      1    204    419     1    43   125  0.429  0.533  0.556  0.443  0.433  0.422  0.410  0.397  0.000  0.000
 1990 332   108   182      1    205    419     1    43   125  0.449  0.517  0.546  0.441  0.433  0.422  0.410  0.397  0.000  0.000
 1990 333   109   181      1    206    419     1    43   125  0.456  0.511  0.538  0.441  0.433  0.422  0.410  0.397  0.000  0.000
 1990 334   110   180      1    206    419     1    43   125  0.461  0.508  0.534  0.440  0.433  0.422  0.410  0.397  0.000  0.000
 1990 335   111   179      1    206    419     1    43   125  0.464  0.505  0.530  0.439  0.433  0.422  0.410  0.397  0.000  0.000
 1990 336   112   178      1    206    419     1    43   125  0.466  0.503  0.527  0.438  0.433  0.422  0.410  0.397  0.000  0.000
 1990 337   113   183      1    206    429     1    43   125  0.488  0.546  0.527  0.437  0.433  0.422  0.410  0.397  0.000  0.000
 1990 338   114   182      1    206    429     1    43   125  0.498  0.525  0.529  0.436  0.433  0.422  0.410  0.397  0.000  0.000
 1990 339   115   181      1    206    429     1    43   125  0.492  0.519  0.528  0.435  0.433  0.422  0.410  0.397  0.000  0.000
 1990 340   116   216      1    208    471     1    43   125  0.498  0.564  0.566  0.469  0.460  0.447  0.439  0.415  0.000  0.000
 1990 341   117   217      2    262    534     1    43   125  0.457  0.559  0.568  0.470  0.460  0.447  0.439  0.432  0.000  0.000
 1990 342   118   200      2    276    534     1    43   125  0.445  0.529  0.556  0.457  0.449  0.436  0.427  0.417  0.000  0.000
 1990 343   119   191      2    284    534     1    43   125  0.456  0.517  0.545  0.449  0.442  0.429  0.419  0.408  0.000  0.000
 1990 344   120   221      2    321    604     1    43   125  0.543  0.567  0.563  0.470  0.460  0.447  0.439  0.432  0.000  0.000
 1990 345   121   202      2    335    604     1    43   125  0.439  0.557  0.554  0.457  0.449  0.436  0.427  0.417  0.000  0.000
 1990 346   122   191      2    343    604     1    43   125  0.445  0.527  0.547  0.449  0.442  0.429  0.419  0.408  0.000  0.000
 1990 347   123   185      2    348    604     1    43   125  0.456  0.516  0.540  0.445  0.437  0.425  0.415  0.403  0.000  0.000
 1990 348   124   182      2    350    604     1    43   125  0.460  0.511  0.535  0.442  0.435  0.423  0.412  0.400  0.000  0.000
 1990 349   125   179      2    352    604     1    43   125  0.463  0.507  0.531  0.439  0.433  0.421  0.410  0.398  0.000  0.000
 1990 350   126   179      2    352    604     1    43   125  0.465  0.504  0.528  0.438  0.433  0.421  0.410  0.398  0.000  0.000
 1990 351   127   178      2    352    604     1    43   125  0.466  0.502  0.525  0.437  0.433  0.421  0.410  0.398  0.000  0.000
 1990 352   128   206      2    353    640     1    43   125  0.451  0.566  0.565  0.469  0.460  0.438  0.422  0.403  0.000  0.000
 1990 353   129   194      2    363    640     1    43   125  0.443  0.531  0.556  0.456  0.449  0.431  0.417  0.400  0.000  0.000
 1990 354   130   187      2    368    640     1    43   125  0.457  0.517  0.545  0.449  0.442  0.426  0.413  0.398  0.000  0.000
 1990 355   131   183      2    371    640     1    43   125  0.462  0.512  0.538  0.444  0.437  0.423  0.411  0.398  0.000  0.000
 1990 356   132   208      2    371    668     1    43   125  0.534  0.567  0.563  0.469  0.460  0.432  0.419  0.401  0.000  0.000
 1990 357   133   195      2    380    668     1    43   125  0.453  0.553  0.555  0.457  0.449  0.427  0.414  0.399  0.000  0.000
 1990 358   134   205      2    381    682     1    43   125  0.521  0.559  0.568  0.470  0.455  0.429  0.418  0.402  0.000  0.000
 1990 359   135   192      2    389    682     1    43   125  0.431  0.543  0.557  0.457  0.445  0.425  0.414  0.399  0.000  0.000
 1990 360   136   186      2    393    682     1    43   125  0.453  0.521  0.547  0.449  0.440  0.422  0.412  0.397  0.000  0.000
 1990 361   137   182      2    395    682     1    43   125  0.459  0.514  0.539  0.445  0.436  0.421  0.410  0.397  0.000  0.000
 1990 362   138   180      2    396    682     1    43   125  0.463  0.510  0.535  0.441  0.434  0.421  0.410  0.397  0.000  0.000
 1990 363   139   179      2    396    682     1    43   125  0.465  0.507  0.531  0.439  0.433  0.421  0.410  0.397  0.000  0.000
 1990 364   140   178      2    396    682     1    43   125  0.467  0.505  0.528  0.438  0.433  0.421  0.410  0.397  0.000  0.000
 1990 365   141   178      2    396    682     1    43   125  0.468  0.503  0.525  0.437  0.433  0.421  0.410  0.397  0.000  0.000
 1991 001   142   177      2    396    682     1    43   125  0.469  0.501  0.523  0.436  0.433  0.421  0.410  0.397  0.000  0.000
 1991 002   143   176      2    396    682     1    43   125  0.469  0.499  0.521  0.435  0.433  0.421  0.410  0.397  0.000  0.000
 1991 003   144   176      2    396    682     1    43   125  0.469  0.498  0.519  0.434  0.432  0.421  0.410  0.397  0.000  0.000
 1991 004   145   175      2    396    682     1    43   125  0.469  0.497  0.517  0.433  0.432  0.421  0.410  0.397  0.000  0.000
 1991 005   146   175      2    396    682     1    43   125  0.469  0.496  0.516  0.432  0.432  0.421  0.410  0.397  0.000  0.000
 1991 006   147   174      2    396    682     1    43   125  0.469  0.495  0.514  0.431  0.431  0.421  0.410  0.397  0.000  0.000
 1991 007   148   174      2    396    682     1    43   125  0.468  0.494  0.513  0.430  0.431  0.421  0.410  0.397  0.000  0.000
 1991 008   149   173      2    396    682     1    43   125  0.468  0.493  0.512  0.429  0.431  0.421  0.410  0.397  0.000  0.000
 1991 009   150   173      2    396    682     1    43   125  0.468  0.492  0.511  0.429  0.430  0.421  0.410  0.397  0.000  0.000
 1991 010   151   174      2    396    688     1    43   125  0.480  0.501  0.509  0.428  0.430  0.421  0.410  0.397  0.000  0.000
 1991 011   152   174      2    396    688     1    43   125  0.479  0.498  0.509  0.427  0.430  0.421  0.410  0.397  0.000  0.000
 1991 012   153   173      2    396    688     1    43   125  0.478  0.497  0.509  0.427  0.429  0.421  0.410  0.397  0.000  0.000
 1991 013   154   173      2    396    688     1    43   125  0.476  0.495  0.508  0.426  0.429  0.421  0.410  0.397  0.000  0.000
 1991 014   155   172      2    396    688     1    43   125  0.475  0.494  0.508  0.426  0.428  0.421  0.410  0.397  0.000  0.000
 1991 015   156   172      2    396    688     1    43   125  0.474  0.493  0.507  0.425  0.428  0.421  0.410  0.397  0.000  0.000
 1991 016   157   171      2    396    688     1    43   125  0.473  0.492  0.506  0.425  0.428  0.421  0.410  0.397  0.000  0.000
 1991 017   158   171      2    396    688     1    43   125  0.472  0.491  0.505  0.424  0.427  0.421  0.410  0.397  0.000  0.000
 1991 018   159   171      2    396    688     1    43   125  0.471  0.490  0.505  0.424  0.427  0.421  0.410  0.397  0.000  0.000
 1991 019   160   170      2    396    688     1    43   125  0.470  0.489  0.504  0.423  0.427  0.421  0.410  0.397  0.000  0.000
 1991 020   161   170      2    396    688     1    43   125  0.469  0.488  0.503  0.423  0.426  0.421  0.410  0.397  0.000  0.000
 1991 021   162   218      2    399    742     1    43   125  0.519  0.567  0.567  0.469  0.460  0.447  0.439  0.418  0.000  0.000
 1991 022   163   215      2    403    750     1    43   125  0.442  0.559  0.568  0.470  0.460  0.446  0.439  0.428  0.000  0.000
 1991 023   164   199      2    416    750     1    43   125  0.446  0.528  0.556  0.457  0.449  0.435  0.427  0.415  0.000  0.000
 1991 024   165   190      2    424    750     1    43   125  0.456  0.516  0.545  0.449  0.442  0.429  0.419  0.407  0.000  0.000
 1991 025   166   185      2    428    750     1    43   125  0.461  0.512  0.539  0.445  0.437  0.425  0.415  0.402  0.000  0.000
 1991 026   167   182      2    430    750     1    43   125  0.464  0.509  0.534  0.441  0.435  0.422  0.412  0.399  0.000  0.000
 1991 027   168   179      2    432    750     1    43   125  0.467  0.507  0.531  0.439  0.433  0.421  0.410  0.398  0.000  0.000
 1991 028   169   179      2    432    750     1    43   125  0.469  0.505  0.528  0.438  0.433  0.421  0.410  0.398  0.000  0.000
 1991 029   170   178      2    432    750     1    43   125  0.470  0.503  0.525  0.437  0.433  0.421  0.410  0.398  0.000  0.000
 1991 030   171   192      2    432    770     1    43   125  0.463  0.566  0.564  0.446  0.436  0.421  0.411  0.398  0.000  0.000
 1991 031   172   186      2    435    770     1    43   125  0.463  0.532  0.555  0.443  0.434  0.421  0.411  0.398  0.000  0.000

*DSSAT Cropping System Model Ver. 4.0.2.000               Aug 15, 2016; 16:10:12

*RUN   2        : UYSB                    
 MODEL          : CRGRO040 - Soybean         
 EXPERIMENT     : UYSB0212 SB    late to create DSS                             
 TREATMENT  1   : UYSB                    

@YEAR DOY   DAS  SWXD   ROFC   DRNC   PREC  IR#C  IRRC  DTWT   SW1D   SW2D   SW3D   SW4D   SW5D   SW6D   SW7D   SW8D   SW9D   SW10
 1991 224     0   116      0      0      0     0     0   125  0.349  0.394  0.394  0.335  0.375  0.419  0.408  0.395  0.000  0.000
 1991 225     1   113      0      0      0     0     0   125  0.302  0.393  0.394  0.335  0.376  0.418  0.408  0.395  0.000  0.000
 1991 226     2   111      0      0      0     0     0   125  0.271  0.391  0.394  0.336  0.376  0.418  0.408  0.395  0.000  0.000
 1991 227     3   154      0      0      0     1    45   125  0.519  0.566  0.475  0.336  0.377  0.417  0.408  0.395  0.000  0.000
 1991 228     4   150      0      0      0     1    45   125  0.475  0.537  0.486  0.338  0.377  0.417  0.408  0.395  0.000  0.000
 1991 229     5   148      0      0      0     1    45   125  0.466  0.514  0.487  0.341  0.378  0.416  0.408  0.395  0.000  0.000
 1991 230     6   146      0      0      0     1    45   125  0.448  0.501  0.487  0.343  0.378  0.416  0.408  0.395  0.000  0.000
 1991 231     7   145      0      0      0     1    45   125  0.441  0.491  0.486  0.345  0.378  0.415  0.408  0.395  0.000  0.000
 1991 232     8   144      0      0      0     1    45   125  0.435  0.484  0.484  0.347  0.379  0.415  0.408  0.395  0.000  0.000
 1991 233     9   143      0      0      0     1    45   125  0.430  0.478  0.482  0.349  0.379  0.415  0.408  0.395  0.000  0.000
 1991 234    10   142      0      0      0     1    45   125  0.426  0.473  0.480  0.351  0.379  0.414  0.408  0.395  0.000  0.000
 1991 235    11   141      0      0      0     1    45   125  0.422  0.469  0.478  0.353  0.380  0.414  0.407  0.395  0.000  0.000
 1991 236    12   141      0      0      0     1    45   125  0.418  0.465  0.476  0.354  0.380  0.414  0.407  0.395  0.000  0.000
 1991 237    13   140      0      0      0     1    45   125  0.415  0.462  0.474  0.356  0.380  0.413  0.407  0.395  0.000  0.000
 1991 238    14   139      0      0      0     1    45   125  0.411  0.459  0.472  0.357  0.381  0.413  0.407  0.395  0.000  0.000
 1991 239    15   140      0      0      2     1    45   125  0.437  0.456  0.470  0.359  0.381  0.413  0.407  0.395  0.000  0.000
 1991 240    16   140      0      0      2     1    45   125  0.429  0.455  0.468  0.360  0.382  0.412  0.407  0.395  0.000  0.000
 1991 241    17   139      0      0      2     1    45   125  0.422  0.454  0.467  0.361  0.382  0.412  0.407  0.395  0.000  0.000
 1991 242    18   139      0      0      2     1    45   125  0.417  0.452  0.465  0.362  0.382  0.412  0.407  0.395  0.000  0.000
 1991 243    19   139      0      0      4     1    45   125  0.439  0.450  0.464  0.363  0.382  0.411  0.407  0.395  0.000  0.000
 1991 244    20   152      0      0     19     1    45   125  0.531  0.536  0.463  0.364  0.383  0.411  0.407  0.395  0.000  0.000
 1991 245    21   151      0      0     19     1    45   125  0.517  0.525  0.468  0.365  0.383  0.411  0.407  0.395  0.000  0.000
 1991 246    22   149      0      0     19     1    45   125  0.481  0.516  0.471  0.366  0.383  0.411  0.407  0.395  0.000  0.000
 1991 247    23   146      0      0     19     1    45   125  0.440  0.503  0.473  0.367  0.384  0.410  0.406  0.395  0.000  0.000
 1991 248    24   145      0      0     19     1    45   125  0.433  0.490  0.473  0.368  0.384  0.410  0.406  0.395  0.000  0.000
 1991 249    25   144      0      0     19     1    45   125  0.427  0.481  0.473  0.369  0.384  0.410  0.406  0.395  0.000  0.000
 1991 250    26   150      0      0     27     1    45   125  0.552  0.482  0.473  0.370  0.385  0.410  0.406  0.395  0.000  0.000
 1991 251    27   149      0      0     27     1    45   125  0.501  0.496  0.473  0.371  0.385  0.409  0.406  0.395  0.000  0.000
 1991 252    28   146      0      0     27     1    45   125  0.441  0.495  0.474  0.372  0.385  0.409  0.406  0.395  0.000  0.000
 1991 253    29   145      0      0     27     1    45   125  0.429  0.485  0.474  0.373  0.386  0.409  0.406  0.394  0.000  0.000
 1991 254    30   144      0      0     27     1    45   125  0.421  0.477  0.474  0.374  0.386  0.409  0.406  0.394  0.000  0.000
 1991 255    31   143      0      0     27     1    45   125  0.415  0.471  0.473  0.375  0.386  0.409  0.406  0.394  0.000  0.000
 1991 256    32   142      0      0     27     1    45   125  0.409  0.465  0.471  0.376  0.386  0.408  0.406  0.394  0.000  0.000
 1991 257    33   141      0      0     27     1    45   125  0.405  0.461  0.470  0.377  0.387  0.408  0.405  0.394  0.000  0.000
 1991 258    34   157      0      0     44     1    45   125  0.554  0.543  0.471  0.377  0.387  0.408  0.405  0.394  0.000  0.000
 1991 259    35   157      0      0     47     1    45   125  0.514  0.544  0.483  0.378  0.387  0.408  0.405  0.394  0.000  0.000
 1991 260    36   168      0      0     60     1    45   125  0.555  0.551  0.540  0.379  0.387  0.408  0.405  0.394  0.000  0.000
 1991 261    37   217      2      3    118     1    45   125  0.484  0.567  0.564  0.474  0.461  0.447  0.439  0.420  0.000  0.000
 1991 262    38   200      2     16    118     1    45   125  0.456  0.536  0.555  0.459  0.449  0.436  0.427  0.410  0.000  0.000
 1991 263    39   190      2     24    118     1    45   125  0.455  0.521  0.545  0.451  0.442  0.429  0.419  0.404  0.000  0.000
 1991 264    40   185      2     28    118     1    45   125  0.458  0.514  0.538  0.445  0.437  0.425  0.415  0.400  0.000  0.000
 1991 265    41   181      2     30    118     1    45   125  0.460  0.509  0.533  0.442  0.435  0.422  0.412  0.398  0.000  0.000
 1991 266    42   179      2     32    118     1    45   125  0.462  0.505  0.529  0.439  0.433  0.421  0.410  0.397  0.000  0.000
 1991 267    43   178      2     32    118     1    45   125  0.462  0.502  0.526  0.438  0.433  0.421  0.410  0.397  0.000  0.000
 1991 268    44   177      2     32    118     1    45   125  0.463  0.500  0.523  0.436  0.433  0.421  0.410  0.397  0.000  0.000
 1991 269    45   176      2     32    118     1    45   125  0.463  0.498  0.521  0.435  0.432  0.421  0.410  0.397  0.000  0.000
 1991 270    46   175      2     32    118     1    45   125  0.462  0.496  0.518  0.434  0.432  0.421  0.410  0.397  0.000  0.000
 1991 271    47   174      2     32    118     1    45   125  0.462  0.494  0.516  0.433  0.432  0.420  0.410  0.397  0.000  0.000
 1991 272    48   173      2     32    118     1    45   125  0.461  0.492  0.514  0.431  0.431  0.420  0.410  0.397  0.000  0.000
 1991 273    49   172      2     32    118     1    45   125  0.460  0.490  0.512  0.430  0.431  0.420  0.410  0.397  0.000  0.000
 1991 274    50   171      2     32    118     1    45   125  0.459  0.488  0.510  0.429  0.430  0.420  0.410  0.396  0.000  0.000
 1991 275    51   171      2     32    118     1    45   125  0.458  0.487  0.508  0.428  0.430  0.420  0.409  0.396  0.000  0.000
 1991 276    52   170      2     32    118     1    45   125  0.457  0.485  0.506  0.427  0.429  0.420  0.409  0.396  0.000  0.000
 1991 277    53   169      2     32    118     1    45   125  0.456  0.483  0.505  0.426  0.428  0.419  0.409  0.396  0.000  0.000
 1991 278    54   168      2     32    118     1    45   125  0.455  0.482  0.503  0.425  0.428  0.419  0.409  0.396  0.000  0.000
 1991 279    55   191      2     32    143     1    45   125  0.527  0.567  0.562  0.439  0.428  0.419  0.409  0.396  0.000  0.000
 1991 280    56   210      2     32    165     1    45   125  0.527  0.561  0.568  0.470  0.461  0.438  0.421  0.401  0.000  0.000
 1991 281    57   196      2     42    165     1    45   125  0.460  0.546  0.557  0.457  0.448  0.430  0.416  0.399  0.000  0.000
 1991 282    58   187      2     47    165     1    45   125  0.451  0.524  0.547  0.449  0.441  0.425  0.413  0.397  0.000  0.000
 1991 283    59   182      2     50    165     1    45   125  0.455  0.514  0.539  0.444  0.437  0.423  0.411  0.397  0.000  0.000
 1991 284    60   180      2     51    165     1    45   125  0.457  0.509  0.533  0.441  0.434  0.421  0.410  0.397  0.000  0.000
 1991 285    61   178      2     51    165     1    45   125  0.458  0.504  0.528  0.439  0.432  0.420  0.410  0.397  0.000  0.000
 1991 286    62   176      2     51    165     1    45   125  0.457  0.500  0.524  0.437  0.432  0.420  0.410  0.397  0.000  0.000
 1991 287    63   180      2     51    172     1    45   125  0.525  0.512  0.521  0.436  0.432  0.420  0.410  0.397  0.000  0.000
 1991 288    64   213      2     52    208     1    45   125  0.528  0.572  0.568  0.469  0.460  0.443  0.425  0.403  0.000  0.000
 1991 289    65   228      6    106    282     1    45   125  0.553  0.565  0.585  0.491  0.460  0.447  0.439  0.432  0.000  0.000
 1991 290    66   208      6    123    282     1    45   125  0.494  0.555  0.567  0.469  0.448  0.436  0.426  0.417  0.000  0.000
 1991 291    67   194      6    132    282     1    45   125  0.454  0.531  0.554  0.456  0.440  0.428  0.419  0.408  0.000  0.000
 1991 292    68   185      6    138    282     1    45   125  0.447  0.516  0.542  0.448  0.436  0.424  0.414  0.402  0.000  0.000
 1991 293    69   180      6    140    282     1    45   125  0.447  0.508  0.534  0.442  0.433  0.421  0.411  0.399  0.000  0.000
 1991 294    70   176      6    140    282     1    45   125  0.446  0.501  0.528  0.439  0.432  0.420  0.410  0.397  0.000  0.000
 1991 295    71   174      6    140    282     1    45   125  0.444  0.495  0.522  0.436  0.430  0.419  0.409  0.397  0.000  0.000
 1991 296    72   175      6    140    285     1    45   125  0.493  0.492  0.519  0.435  0.430  0.419  0.409  0.397  0.000  0.000
 1991 297    73   174      6    140    285     1    45   125  0.471  0.495  0.516  0.433  0.429  0.418  0.409  0.397  0.000  0.000
 1991 298    74   172      6    140    285     1    45   125  0.461  0.494  0.514  0.432  0.429  0.418  0.409  0.396  0.000  0.000
 1991 299    75   169      6    140    285     1    45   125  0.453  0.488  0.509  0.429  0.427  0.417  0.408  0.396  0.000  0.000
 1991 300    76   167      6    140    285     1    45   125  0.447  0.484  0.506  0.427  0.426  0.416  0.407  0.396  0.000  0.000
 1991 301    77   166      6    140    285     1    45   125  0.443  0.481  0.504  0.426  0.425  0.416  0.407  0.396  0.000  0.000
 1991 302    78   164      6    140    285     1    45   125  0.440  0.478  0.501  0.424  0.425  0.415  0.407  0.395  0.000  0.000
 1991 303    79   179      6    140    301     1    45   125  0.556  0.559  0.507  0.423  0.424  0.415  0.406  0.395  0.000  0.000
 1991 304    80   178      6    140    302     1    45   125  0.540  0.548  0.518  0.422  0.423  0.415  0.406  0.395  0.000  0.000
 1991 305    81   174      6    140    302     1    45   125  0.494  0.536  0.520  0.422  0.422  0.414  0.405  0.395  0.000  0.000
 1991 306    82   169      6    140    302     1    45   125  0.459  0.517  0.516  0.420  0.420  0.412  0.404  0.394  0.000  0.000
 1991 307    83   164      6    140    302     1    45   125  0.428  0.503  0.512  0.419  0.418  0.411  0.404  0.394  0.000  0.000
 1991 308    84   159      6    140    302     1    45   125  0.418  0.488  0.504  0.416  0.416  0.409  0.402  0.393  0.000  0.000
 1991 309    85   155      6    140    302     1    45   125  0.411  0.477  0.497  0.414  0.414  0.408  0.401  0.392  0.000  0.000
 1991 310    86   162      6    140    311     1    45   125  0.552  0.482  0.494  0.413  0.413  0.407  0.401  0.392  0.000  0.000
 1991 311    87   157      6    140    311     1    45   125  0.471  0.494  0.490  0.411  0.411  0.406  0.400  0.391  0.000  0.000
 1991 312    88   153      6    140    311     1    45   125  0.431  0.486  0.487  0.409  0.410  0.405  0.399  0.391  0.000  0.000
 1991 313    89   147      6    140    311     1    45   125  0.409  0.473  0.481  0.406  0.407  0.403  0.397  0.390  0.000  0.000
 1991 314    90   144      6    140    311     1    45   125  0.396  0.463  0.476  0.403  0.405  0.402  0.396  0.389  0.000  0.000
 1991 315    91   140      6    140    311     1    45   125  0.387  0.454  0.471  0.401  0.403  0.401  0.395  0.388  0.000  0.000
 1991 316    92   136      6    140    311     1    45   125  0.379  0.444  0.463  0.398  0.401  0.399  0.394  0.387  0.000  0.000
 1991 317    93   133      6    140    311     1    45   125  0.371  0.437  0.458  0.396  0.399  0.398  0.393  0.387  0.000  0.000
 1991 318    94   161      6    140    311     2    74   125  0.557  0.564  0.498  0.395  0.398  0.398  0.393  0.386  0.000  0.000
 1991 319    95   158      6    140    311     2    74   125  0.523  0.545  0.508  0.395  0.398  0.397  0.392  0.386  0.000  0.000
 1991 320    96   154      6    140    311     2    74   125  0.495  0.526  0.506  0.395  0.396  0.396  0.392  0.385  0.000  0.000
 1991 321    97   149      6    140    311     2    74   125  0.468  0.510  0.501  0.395  0.395  0.395  0.391  0.384  0.000  0.000
 1991 322    98   144      6    140    311     2    74   125  0.428  0.495  0.495  0.394  0.394  0.394  0.390  0.384  0.000  0.000
 1991 323    99   138      6    140    311     2    74   125  0.410  0.477  0.484  0.392  0.392  0.393  0.388  0.382  0.000  0.000
 1991 324   100   133      6    140    311     2    74   125  0.398  0.463  0.475  0.390  0.390  0.391  0.387  0.381  0.000  0.000
 1991 325   101   128      6    140    311     2    74   125  0.388  0.448  0.463  0.387  0.388  0.390  0.386  0.380  0.000  0.000
 1991 326   102   122      6    140    311     2    74   125  0.378  0.433  0.451  0.385  0.386  0.388  0.384  0.379  0.000  0.000
 1991 327   103   146      6    140    311     3   104   125  0.510  0.560  0.489  0.383  0.384  0.387  0.383  0.378  0.000  0.000
 1991 328   104   144      6    140    311     3   104   125  0.516  0.529  0.497  0.383  0.384  0.386  0.383  0.377  0.000  0.000
 1991 329   105   216     15    140    393     3   104   125  0.565  0.560  0.568  0.471  0.460  0.447  0.434  0.396  0.000  0.000
 1991 330   106   221     15    163    424     3   104   125  0.537  0.565  0.565  0.469  0.459  0.446  0.439  0.431  0.000  0.000
 1991 331   107   215     15    167    427     3   104   125  0.522  0.561  0.559  0.463  0.457  0.440  0.438  0.431  0.000  0.000
 1991 332   108   198     15    179    427     3   104   125  0.484  0.540  0.547  0.451  0.445  0.430  0.425  0.416  0.000  0.000
 1991 333   109   199     15    181    434     3   104   125  0.545  0.549  0.544  0.447  0.442  0.427  0.424  0.414  0.000  0.000
 1991 334   110   187     15    186    434     3   104   125  0.468  0.540  0.538  0.441  0.435  0.422  0.416  0.406  0.000  0.000
 1991 335   111   180     15    188    434     3   104   125  0.468  0.516  0.529  0.438  0.431  0.420  0.411  0.401  0.000  0.000
 1991 336   112   172     15    188    434     3   104   125  0.433  0.502  0.520  0.433  0.428  0.417  0.408  0.397  0.000  0.000
 1991 337   113   169     15    188    434     3   104   125  0.425  0.491  0.514  0.431  0.426  0.416  0.407  0.397  0.000  0.000
 1991 338   114   163     15    188    434     3   104   125  0.418  0.478  0.503  0.426  0.423  0.413  0.405  0.396  0.000  0.000
 1991 339   115   175     15    188    450     3   104   125  0.546  0.549  0.504  0.424  0.421  0.412  0.404  0.395  0.000  0.000
 1991 340   116   168     15    188    450     3   104   125  0.465  0.532  0.506  0.420  0.419  0.410  0.403  0.395  0.000  0.000
 1991 341   117   164     15    188    450     3   104   125  0.469  0.508  0.503  0.418  0.417  0.409  0.402  0.394  0.000  0.000
 1991 342   118   157     15    188    450     3   104   125  0.423  0.493  0.496  0.415  0.414  0.407  0.400  0.393  0.000  0.000
 1991 343   119   171     15    188    466     3   104   125  0.564  0.556  0.504  0.414  0.413  0.406  0.400  0.393  0.000  0.000
 1991 344   120   183     15    188    484     3   104   125  0.504  0.555  0.568  0.450  0.420  0.405  0.399  0.392  0.000  0.000
 1991 345   121   179     15    188    484     3   104   125  0.483  0.531  0.553  0.443  0.430  0.407  0.398  0.391  0.000  0.000
 1991 346   122   177     15    188    484     3   104   125  0.492  0.521  0.543  0.440  0.430  0.410  0.398  0.391  0.000  0.000
 1991 347   123   179     15    188    494     3   104   125  0.507  0.557  0.538  0.439  0.430  0.408  0.396  0.390  0.000  0.000
 1991 348   124   191     15    188    508     3   104   125  0.562  0.556  0.567  0.459  0.438  0.410  0.396  0.390  0.000  0.000
 1991 349   125   191     15    188    509     3   104   125  0.545  0.556  0.560  0.458  0.443  0.414  0.396  0.389  0.000  0.000
 1991 350   126   194     15    188    517     3   104   125  0.515  0.564  0.564  0.466  0.448  0.419  0.395  0.389  0.000  0.000
 1991 351   127   193     15    188    523     3   104   125  0.511  0.554  0.562  0.462  0.450  0.421  0.399  0.388  0.000  0.000
 1991 352   128   185     15    190    523     3   104   125  0.469  0.531  0.548  0.450  0.440  0.419  0.407  0.394  0.000  0.000
 1991 353   129   206     15    190    549     3   104   125  0.525  0.560  0.560  0.468  0.459  0.434  0.417  0.398  0.000  0.000
 1991 354   130   201     15    191    553     3   104   125  0.502  0.550  0.553  0.460  0.455  0.432  0.422  0.403  0.000  0.000
 1991 355   131   189     15    198    553     3   104   125  0.471  0.528  0.542  0.449  0.443  0.425  0.415  0.399  0.000  0.000
 1991 356   132   183     15    201    553     3   104   125  0.471  0.517  0.535  0.443  0.438  0.422  0.412  0.397  0.000  0.000
 1991 357   133   214     15    202    592     3   104   125  0.517  0.560  0.560  0.467  0.459  0.446  0.438  0.409  0.000  0.000
 1991 358   134   196     15    214    592     3   104   125  0.465  0.536  0.547  0.453  0.445  0.433  0.425  0.403  0.000  0.000
 1991 359   135   185     15    219    592     3   104   125  0.450  0.518  0.537  0.445  0.438  0.426  0.417  0.399  0.000  0.000
 1991 360   136   184     15    220    597     3   104   125  0.523  0.507  0.528  0.440  0.435  0.423  0.416  0.401  0.000  0.000
 1991 361   137   176     15    222    597     3   104   125  0.448  0.509  0.521  0.436  0.431  0.419  0.411  0.398  0.000  0.000
 1991 362   138   170     15    222    597     3   104   125  0.436  0.494  0.513  0.432  0.428  0.417  0.408  0.397  0.000  0.000
 1991 363   139   165     15    222    597     3   104   125  0.426  0.482  0.504  0.427  0.425  0.415  0.407  0.396  0.000  0.000
 1991 364   140   161     15    222    597     3   104   125  0.419  0.473  0.497  0.424  0.422  0.413  0.405  0.395  0.000  0.000
 1991 365   141   157     15    222    597     3   104   125  0.412  0.465  0.491  0.420  0.420  0.411  0.404  0.394  0.000  0.000
 1992 001   142   155     15    222    597     3   104   125  0.406  0.460  0.488  0.418  0.419  0.410  0.403  0.394  0.000  0.000
 1992 002   143   171     15    222    617     3   104   125  0.524  0.562  0.494  0.416  0.417  0.409  0.402  0.394  0.000  0.000
 1992 003   144   164     15    222    617     3   104   125  0.466  0.533  0.501  0.414  0.415  0.407  0.401  0.393  0.000  0.000
 1992 004   145   157     15    222    617     3   104   125  0.428  0.505  0.496  0.411  0.412  0.405  0.400  0.392  0.000  0.000
 1992 005   146   152     15    222    617     3   104   125  0.421  0.486  0.489  0.408  0.409  0.403  0.398  0.391  0.000  0.000
 1992 006   147   148     15    222    617     3   104   125  0.413  0.474  0.484  0.405  0.407  0.402  0.397  0.390  0.000  0.000
 1992 007   148   144     15    222    617     3   104   125  0.405  0.463  0.477  0.402  0.404  0.400  0.396  0.389  0.000  0.000
 1992 008   149   139     15    222    617     3   104   125  0.397  0.451  0.469  0.399  0.401  0.398  0.394  0.388  0.000  0.000
 1992 009   150   135     15    222    617     3   104   125  0.389  0.442  0.462  0.396  0.399  0.397  0.393  0.387  0.000  0.000
 1992 010   151   131     15    222    617     3   104   125  0.382  0.435  0.455  0.393  0.397  0.396  0.391  0.386  0.000  0.000
 1992 011   152   153     15    222    617     4   134   125  0.488  0.562  0.493  0.391  0.395  0.394  0.390  0.385  0.000  0.000
 1992 012   153   147     15    222    617     4   134   125  0.462  0.519  0.496  0.390  0.393  0.393  0.389  0.384  0.000  0.000
 1992 013   154   141     15    222    617     4   134   125  0.429  0.496  0.488  0.389  0.391  0.392  0.388  0.383  0.000  0.000
 1992 014   155   136     15    222    617     4   134   125  0.417  0.479  0.481  0.388  0.390  0.391  0.387  0.382  0.000  0.000
 1992 015   156   139     15    222    626     4   134   125  0.508  0.482  0.474  0.387  0.389  0.390  0.386  0.381  0.000  0.000
 1992 016   157   134     15    222    626     4   134   125  0.440  0.479  0.469  0.386  0.387  0.389  0.385  0.381  0.000  0.000
 1992 017   158   129     15    222    626     4   134   125  0.407  0.467  0.463  0.385  0.386  0.388  0.385  0.380  0.000  0.000
 1992 018   159   126     15    222    626     4   134   125  0.391  0.456  0.457  0.384  0.385  0.387  0.384  0.379  0.000  0.000
 1992 019   160   123     15    222    626     4   134   125  0.380  0.448  0.453  0.383  0.385  0.387  0.383  0.378  0.000  0.000
 1992 020   161   121     15    222    626     4   134   125  0.370  0.439  0.449  0.382  0.384  0.386  0.383  0.378  0.000  0.000
 1992 021   162   144     15    222    626     5   164   125  0.458  0.563  0.497  0.381  0.384  0.386  0.383  0.378  0.000  0.000
 1992 022   163   140     15    222    626     5   164   125  0.429  0.520  0.504  0.382  0.384  0.385  0.382  0.377  0.000  0.000
 1992 023   164   137     15    222    626     5   164   125  0.435  0.500  0.500  0.384  0.383  0.385  0.382  0.377  0.000  0.000
 1992 024   165   136     15    222    626     5   164   125  0.434  0.490  0.497  0.385  0.383  0.385  0.382  0.377  0.000  0.000
 1992 025   166   135     15    222    626     5   164   125  0.431  0.483  0.494  0.386  0.383  0.385  0.382  0.377  0.000  0.000
 1992 026   167   150     15    222    648     5   164   125  0.461  0.562  0.533  0.386  0.383  0.385  0.382  0.376  0.000  0.000

*DSSAT Cropping System Model Ver. 4.0.2.000               Aug 15, 2016; 16:10:12

*RUN   3        : UYSB                    
 MODEL          : CRGRO040 - Soybean         
 EXPERIMENT     : UYSB0212 SB    late to create DSS                             
 TREATMENT  1   : UYSB                    

@YEAR DOY   DAS  SWXD   ROFC   DRNC   PREC  IR#C  IRRC  DTWT   SW1D   SW2D   SW3D   SW4D   SW5D   SW6D   SW7D   SW8D   SW9D   SW10
 1992 224     0   115      0      0      0     0     0   125  0.343  0.394  0.394  0.335  0.375  0.419  0.408  0.395  0.000  0.000
 1992 225     1   112      0      0      0     0     0   125  0.287  0.393  0.394  0.335  0.376  0.418  0.408  0.395  0.000  0.000
 1992 226     2   111      0      0      0     0     0   125  0.261  0.391  0.394  0.336  0.376  0.418  0.408  0.395  0.000  0.000
 1992 227     3   154      0      0      0     1    45   125  0.529  0.566  0.474  0.336  0.377  0.417  0.408  0.395  0.000  0.000
 1992 228     4   152      0      0      0     1    45   125  0.501  0.541  0.486  0.338  0.377  0.417  0.408  0.395  0.000  0.000
 1992 229     5   149      0      0      0     1    45   125  0.475  0.520  0.488  0.341  0.378  0.416  0.408  0.395  0.000  0.000
 1992 230     6   146      0      0      0     1    45   125  0.444  0.506  0.488  0.343  0.378  0.416  0.408  0.395  0.000  0.000
 1992 231     7   145      0      0      0     1    45   125  0.438  0.494  0.487  0.345  0.378  0.415  0.408  0.395  0.000  0.000
 1992 232     8   144      0      0      0     1    45   125  0.433  0.485  0.485  0.347  0.379  0.415  0.408  0.395  0.000  0.000
 1992 233     9   143      0      0      0     1    45   125  0.428  0.479  0.483  0.349  0.379  0.415  0.408  0.395  0.000  0.000
 1992 234    10   142      0      0      0     1    45   125  0.424  0.474  0.481  0.351  0.379  0.414  0.408  0.395  0.000  0.000
 1992 235    11   142      0      0      2     1    45   125  0.441  0.470  0.479  0.353  0.380  0.414  0.407  0.395  0.000  0.000
 1992 236    12   145      0      0      7     1    45   125  0.484  0.471  0.477  0.355  0.380  0.414  0.407  0.395  0.000  0.000
 1992 237    13   144      0      0      7     1    45   125  0.459  0.473  0.475  0.356  0.380  0.413  0.407  0.395  0.000  0.000
 1992 238    14   143      0      0      7     1    45   125  0.445  0.472  0.474  0.358  0.381  0.413  0.407  0.395  0.000  0.000
 1992 239    15   142      0      0      7     1    45   125  0.436  0.469  0.473  0.359  0.381  0.413  0.407  0.395  0.000  0.000
 1992 240    16   141      0      0      7     1    45   125  0.429  0.466  0.471  0.360  0.382  0.412  0.407  0.395  0.000  0.000
 1992 241    17   140      0      0      7     1    45   125  0.423  0.463  0.470  0.361  0.382  0.412  0.407  0.395  0.000  0.000
 1992 242    18   140      0      0      7     1    45   125  0.418  0.460  0.468  0.363  0.382  0.412  0.407  0.395  0.000  0.000
 1992 243    19   139      0      0      7     1    45   125  0.414  0.457  0.467  0.364  0.383  0.411  0.407  0.395  0.000  0.000
 1992 244    20   144      0      0     13     1    45   125  0.512  0.454  0.466  0.365  0.383  0.411  0.407  0.395  0.000  0.000
 1992 245    21   143      0      0     13     1    45   125  0.476  0.463  0.465  0.366  0.383  0.411  0.407  0.395  0.000  0.000
 1992 246    22   142      0      0     13     1    45   125  0.457  0.465  0.464  0.367  0.383  0.411  0.407  0.395  0.000  0.000
 1992 247    23   141      0      0     13     1    45   125  0.444  0.464  0.464  0.367  0.384  0.410  0.407  0.395  0.000  0.000
 1992 248    24   141      0      0     13     1    45   125  0.434  0.461  0.463  0.368  0.384  0.410  0.406  0.395  0.000  0.000
 1992 249    25   140      0      0     13     1    45   125  0.427  0.459  0.462  0.369  0.384  0.410  0.406  0.395  0.000  0.000
 1992 250    26   139      0      0     13     1    45   125  0.421  0.456  0.462  0.370  0.385  0.410  0.406  0.395  0.000  0.000
 1992 251    27   139      0      0     13     1    45   125  0.416  0.454  0.461  0.370  0.385  0.409  0.406  0.395  0.000  0.000
 1992 252    28   138      0      0     13     1    45   125  0.411  0.451  0.460  0.371  0.385  0.409  0.406  0.395  0.000  0.000
 1992 253    29   138      0      0     13     1    45   125  0.407  0.449  0.459  0.372  0.385  0.409  0.406  0.394  0.000  0.000
 1992 254    30   137      0      0     13     1    45   125  0.403  0.446  0.458  0.372  0.386  0.409  0.406  0.394  0.000  0.000
 1992 255    31   139      0      0     17     1    45   125  0.449  0.444  0.457  0.373  0.386  0.409  0.406  0.394  0.000  0.000
 1992 256    32   139      0      0     19     1    45   125  0.454  0.445  0.457  0.373  0.386  0.408  0.406  0.394  0.000  0.000
 1992 257    33   139      0      0     19     1    45   125  0.441  0.447  0.456  0.374  0.386  0.408  0.406  0.394  0.000  0.000
 1992 258    34   138      0      0     19     1    45   125  0.431  0.447  0.455  0.374  0.387  0.408  0.405  0.394  0.000  0.000
 1992 259    35   138      0      0     19     1    45   125  0.423  0.446  0.455  0.374  0.387  0.408  0.405  0.394  0.000  0.000
 1992 260    36   137      0      0     19     1    45   125  0.417  0.445  0.454  0.375  0.387  0.408  0.405  0.394  0.000  0.000
 1992 261    37   136      0      0     19     1    45   125  0.411  0.443  0.453  0.375  0.387  0.407  0.405  0.394  0.000  0.000
 1992 262    38   137      0      0     23     1    45   125  0.432  0.441  0.453  0.375  0.388  0.407  0.405  0.394  0.000  0.000
 1992 263    39   137      0      0     23     1    45   125  0.423  0.441  0.452  0.376  0.388  0.407  0.405  0.394  0.000  0.000
 1992 264    40   136      0      0     23     1    45   125  0.416  0.440  0.451  0.376  0.388  0.407  0.405  0.394  0.000  0.000
 1992 265    41   135      0      0     23     1    45   125  0.410  0.439  0.450  0.376  0.388  0.407  0.405  0.394  0.000  0.000
 1992 266    42   146      0      0     35     1    45   125  0.546  0.479  0.450  0.376  0.388  0.406  0.405  0.394  0.000  0.000
 1992 267    43   153      0      0     45     1    45   125  0.472  0.568  0.459  0.377  0.388  0.406  0.404  0.394  0.000  0.000
 1992 268    44   151      0      0     45     1    45   125  0.491  0.524  0.472  0.377  0.389  0.406  0.404  0.394  0.000  0.000
 1992 269    45   164      0      0     62     1    45   125  0.506  0.554  0.534  0.378  0.389  0.406  0.404  0.394  0.000  0.000
 1992 270    46   161      0      0     62     1    45   125  0.473  0.533  0.534  0.382  0.389  0.406  0.404  0.394  0.000  0.000
 1992 271    47   158      0      0     62     1    45   125  0.455  0.519  0.528  0.385  0.389  0.406  0.404  0.393  0.000  0.000
 1992 272    48   157      0      0     62     1    45   125  0.455  0.509  0.522  0.387  0.389  0.405  0.404  0.393  0.000  0.000
 1992 273    49   155      0      0     62     1    45   125  0.454  0.502  0.517  0.390  0.390  0.405  0.404  0.393  0.000  0.000
 1992 274    50   154      0      0     62     1    45   125  0.453  0.497  0.512  0.391  0.390  0.405  0.404  0.393  0.000  0.000
 1992 275    51   153      0      0     62     1    45   125  0.451  0.492  0.508  0.393  0.390  0.405  0.403  0.393  0.000  0.000
 1992 276    52   154      0      0     64     1    45   125  0.472  0.489  0.505  0.394  0.391  0.405  0.403  0.393  0.000  0.000
 1992 277    53   153      0      0     64     1    45   125  0.462  0.488  0.502  0.395  0.391  0.404  0.403  0.393  0.000  0.000
 1992 278    54   152      0      0     64     1    45   125  0.455  0.485  0.499  0.395  0.391  0.404  0.403  0.393  0.000  0.000
 1992 279    55   151      0      0     64     1    45   125  0.451  0.483  0.497  0.396  0.392  0.404  0.403  0.393  0.000  0.000
 1992 280    56   159      0      0     76     1    45   125  0.500  0.541  0.494  0.396  0.392  0.404  0.403  0.393  0.000  0.000
 1992 281    57   156      0      0     76     1    45   125  0.484  0.520  0.496  0.397  0.392  0.404  0.403  0.392  0.000  0.000
 1992 282    58   155      0      0     76     1    45   125  0.476  0.508  0.497  0.397  0.393  0.404  0.402  0.392  0.000  0.000
 1992 283    59   153      0      0     76     1    45   125  0.468  0.499  0.496  0.397  0.393  0.403  0.402  0.392  0.000  0.000
 1992 284    60   152      0      0     76     1    45   125  0.461  0.493  0.494  0.398  0.393  0.403  0.402  0.392  0.000  0.000
 1992 285    61   151      0      0     76     1    45   125  0.455  0.488  0.493  0.398  0.393  0.403  0.402  0.392  0.000  0.000
 1992 286    62   150      0      0     76     1    45   125  0.449  0.483  0.491  0.398  0.394  0.403  0.401  0.392  0.000  0.000
 1992 287    63   149      0      0     76     1    45   125  0.444  0.478  0.489  0.398  0.394  0.403  0.401  0.392  0.000  0.000
 1992 288    64   148      0      0     76     1    45   125  0.440  0.474  0.487  0.398  0.394  0.402  0.401  0.391  0.000  0.000
 1992 289    65   147      0      0     76     1    45   125  0.436  0.471  0.485  0.398  0.394  0.402  0.401  0.391  0.000  0.000
 1992 290    66   175      0      0    106     1    45   125  0.536  0.565  0.563  0.412  0.394  0.402  0.401  0.391  0.000  0.000
 1992 291    67   170      0      0    106     1    45   125  0.450  0.552  0.551  0.428  0.395  0.402  0.400  0.391  0.000  0.000
 1992 292    68   166      0      0    106     1    45   125  0.441  0.524  0.542  0.433  0.396  0.401  0.400  0.391  0.000  0.000
 1992 293    69   164      0      0    106     1    45   125  0.448  0.514  0.536  0.432  0.397  0.401  0.400  0.391  0.000  0.000
 1992 294    70   174      0      0    120     1    45   125  0.491  0.565  0.545  0.436  0.398  0.401  0.400  0.390  0.000  0.000
 1992 295    71   169      0      0    120     1    45   125  0.456  0.535  0.542  0.436  0.405  0.401  0.399  0.390  0.000  0.000
 1992 296    72   166      0      0    120     1    45   125  0.459  0.519  0.536  0.434  0.405  0.400  0.399  0.390  0.000  0.000
 1992 297    73   164      0      0    120     1    45   125  0.458  0.509  0.530  0.432  0.406  0.400  0.398  0.389  0.000  0.000
 1992 298    74   162      0      0    120     1    45   125  0.456  0.502  0.524  0.430  0.406  0.400  0.398  0.389  0.000  0.000
 1992 299    75   160      0      0    120     1    45   125  0.454  0.498  0.520  0.428  0.406  0.400  0.398  0.389  0.000  0.000
 1992 300    76   158      0      0    120     1    45   125  0.450  0.492  0.514  0.426  0.406  0.399  0.397  0.388  0.000  0.000
 1992 301    77   155      0      0    120     1    45   125  0.445  0.485  0.508  0.423  0.405  0.398  0.396  0.388  0.000  0.000
 1992 302    78   155      0      0    122     1    45   125  0.461  0.482  0.505  0.421  0.405  0.398  0.396  0.388  0.000  0.000
 1992 303    79   153      0      0    123     1    45   125  0.468  0.478  0.500  0.418  0.404  0.398  0.395  0.387  0.000  0.000
 1992 304    80   150      0      0    123     1    45   125  0.453  0.476  0.495  0.416  0.403  0.397  0.395  0.387  0.000  0.000
 1992 305    81   147      0      0    123     1    45   125  0.442  0.471  0.490  0.413  0.402  0.396  0.394  0.386  0.000  0.000
 1992 306    82   144      0      0    123     1    45   125  0.433  0.465  0.484  0.410  0.401  0.396  0.393  0.385  0.000  0.000
 1992 307    83   141      0      0    123     1    45   125  0.425  0.457  0.477  0.407  0.400  0.395  0.392  0.385  0.000  0.000
 1992 308    84   154      0      0    140     1    45   125  0.516  0.547  0.478  0.405  0.399  0.394  0.392  0.384  0.000  0.000
 1992 309    85   149      0      0    140     1    45   125  0.473  0.522  0.481  0.402  0.398  0.394  0.391  0.384  0.000  0.000
 1992 310    86   145      0      0    140     1    45   125  0.460  0.501  0.479  0.400  0.397  0.393  0.390  0.383  0.000  0.000
 1992 311    87   140      0      0    140     1    45   125  0.425  0.487  0.475  0.398  0.396  0.392  0.390  0.382  0.000  0.000
 1992 312    88   136      0      0    140     1    45   125  0.411  0.472  0.469  0.396  0.394  0.391  0.389  0.382  0.000  0.000
 1992 313    89   132      0      0    140     1    45   125  0.400  0.459  0.462  0.393  0.393  0.390  0.388  0.381  0.000  0.000
 1992 314    90   127      0      0    140     1    45   125  0.390  0.446  0.453  0.391  0.391  0.389  0.387  0.380  0.000  0.000
 1992 315    91   126      0      0    140     1    45   125  0.381  0.440  0.451  0.390  0.391  0.389  0.386  0.380  0.000  0.000
 1992 316    92   153      0      0    144     2    75   125  0.513  0.560  0.520  0.388  0.389  0.388  0.385  0.379  0.000  0.000
 1992 317    93   147      0      0    144     2    75   125  0.464  0.528  0.518  0.389  0.388  0.387  0.384  0.378  0.000  0.000
 1992 318    94   140      0      0    144     2    75   125  0.426  0.504  0.507  0.389  0.387  0.386  0.384  0.377  0.000  0.000
 1992 319    95   136      0      0    144     2    75   125  0.419  0.486  0.497  0.388  0.386  0.385  0.383  0.376  0.000  0.000
 1992 320    96   158      0      0    171     2    75   125  0.533  0.554  0.551  0.400  0.385  0.385  0.382  0.376  0.000  0.000
 1992 321    97   152      0      0    171     2    75   125  0.481  0.538  0.537  0.407  0.384  0.384  0.381  0.375  0.000  0.000
 1992 322    98   146      0      0    171     2    75   125  0.473  0.515  0.524  0.405  0.383  0.383  0.380  0.374  0.000  0.000
 1992 323    99   140      0      0    171     2    75   125  0.435  0.501  0.513  0.402  0.383  0.382  0.380  0.374  0.000  0.000
 1992 324   100   134      0      0    171     2    75   125  0.420  0.482  0.498  0.398  0.382  0.381  0.379  0.373  0.000  0.000
 1992 325   101   129      0      0    171     2    75   125  0.409  0.468  0.486  0.395  0.381  0.380  0.378  0.372  0.000  0.000
 1992 326   102   127      0      0    171     2    75   125  0.405  0.462  0.482  0.394  0.381  0.380  0.377  0.372  0.000  0.000
 1992 327   103   122      0      0    171     2    75   125  0.396  0.449  0.470  0.390  0.380  0.379  0.377  0.371  0.000  0.000
 1992 328   104   118      0      0    171     2    75   125  0.387  0.437  0.460  0.388  0.379  0.378  0.376  0.370  0.000  0.000
 1992 329   105   114      0      0    171     2    75   125  0.378  0.427  0.447  0.385  0.378  0.377  0.375  0.369  0.000  0.000
 1992 330   106   140      0      0    171     3   106   125  0.536  0.562  0.487  0.382  0.377  0.376  0.374  0.369  0.000  0.000
 1992 331   107   136      0      0    171     3   106   125  0.504  0.535  0.491  0.382  0.376  0.376  0.374  0.368  0.000  0.000
 1992 332   108   129      0      0    171     3   106   125  0.468  0.508  0.482  0.381  0.375  0.375  0.373  0.368  0.000  0.000
 1992 333   109   124      0      0    171     3   106   125  0.454  0.488  0.473  0.380  0.374  0.374  0.372  0.367  0.000  0.000
 1992 334   110   120      0      0    171     3   106   125  0.425  0.474  0.465  0.379  0.374  0.374  0.372  0.366  0.000  0.000
 1992 335   111   149      0      0    205     3   106   125  0.540  0.552  0.556  0.394  0.373  0.373  0.371  0.366  0.000  0.000
 1992 336   112   142      0      0    205     3   106   125  0.490  0.537  0.537  0.402  0.373  0.372  0.370  0.365  0.000  0.000
 1992 337   113   136      0      0    205     3   106   125  0.471  0.515  0.522  0.399  0.372  0.372  0.370  0.365  0.000  0.000
 1992 338   114   131      0      0    205     3   106   125  0.457  0.497  0.507  0.396  0.372  0.371  0.369  0.364  0.000  0.000
 1992 339   115   124      0      0    205     3   106   125  0.416  0.481  0.493  0.392  0.371  0.370  0.368  0.363  0.000  0.000
 1992 340   116   119      0      0    205     3   106   125  0.401  0.468  0.483  0.390  0.371  0.370  0.368  0.363  0.000  0.000
 1992 341   117   144      0      0    235     3   106   125  0.540  0.552  0.540  0.394  0.371  0.369  0.367  0.362  0.000  0.000
 1992 342   118   138      0      0    235     3   106   125  0.500  0.538  0.530  0.395  0.370  0.369  0.367  0.362  0.000  0.000
 1992 343   119   133      0      0    235     3   106   125  0.482  0.516  0.517  0.394  0.370  0.368  0.366  0.361  0.000  0.000
 1992 344   120   128      0      0    235     3   106   125  0.467  0.500  0.505  0.392  0.370  0.368  0.366  0.361  0.000  0.000
 1992 345   121   123      0      0    235     3   106   125  0.437  0.486  0.494  0.390  0.369  0.367  0.365  0.360  0.000  0.000
 1992 346   122   118      0      0    235     3   106   125  0.411  0.471  0.483  0.388  0.369  0.367  0.365  0.360  0.000  0.000
 1992 347   123   111      0      0    235     3   106   125  0.392  0.452  0.466  0.384  0.368  0.366  0.364  0.359  0.000  0.000
 1992 348   124   104      0      0    235     3   106   125  0.377  0.430  0.447  0.380  0.367  0.365  0.363  0.358  0.000  0.000
 1992 349   125   128      0      0    235     4   137   125  0.531  0.557  0.481  0.377  0.366  0.364  0.362  0.358  0.000  0.000
 1992 350   126   122      0      0    235     4   137   125  0.487  0.524  0.478  0.376  0.366  0.364  0.362  0.357  0.000  0.000
 1992 351   127   116      0      0    235     4   137   125  0.462  0.498  0.469  0.375  0.365  0.363  0.361  0.357  0.000  0.000
 1992 352   128   112      0      0    235     4   137   125  0.448  0.479  0.460  0.374  0.364  0.363  0.361  0.356  0.000  0.000
 1992 353   129   105      0      0    235     4   137   125  0.399  0.461  0.448  0.372  0.364  0.362  0.360  0.356  0.000  0.000
 1992 354   130   101      0      0    235     4   137   125  0.381  0.446  0.439  0.371  0.363  0.362  0.360  0.356  0.000  0.000
 1992 355   131   123      0      0    235     5   167   125  0.524  0.544  0.483  0.369  0.362  0.361  0.359  0.355  0.000  0.000
 1992 356   132   117      0      0    235     5   167   125  0.488  0.517  0.476  0.369  0.362  0.361  0.359  0.354  0.000  0.000
 1992 357   133   121      0      0    241     5   167   125  0.560  0.520  0.472  0.369  0.362  0.361  0.359  0.354  0.000  0.000
 1992 358   134   118      0      0    241     5   167   125  0.514  0.520  0.471  0.369  0.361  0.360  0.359  0.354  0.000  0.000
 1992 359   135   142      0      0    272     5   167   125  0.516  0.548  0.558  0.429  0.361  0.360  0.358  0.354  0.000  0.000
 1992 360   136   137      0      0    272     5   167   125  0.494  0.527  0.541  0.433  0.362  0.360  0.358  0.353  0.000  0.000
 1992 361   137   130      0      0    272     5   167   125  0.458  0.511  0.525  0.426  0.363  0.359  0.357  0.353  0.000  0.000
 1992 362   138   123      0      0    272     5   167   125  0.421  0.493  0.511  0.420  0.364  0.359  0.357  0.352  0.000  0.000
 1992 363   139   116      0      0    272     5   167   125  0.400  0.473  0.494  0.412  0.364  0.358  0.357  0.352  0.000  0.000
 1992 364   140   114      0      0    272     5   167   125  0.399  0.465  0.489  0.409  0.365  0.358  0.356  0.352  0.000  0.000
 1992 365   141   117      0      0    277     5   167   125  0.495  0.458  0.484  0.406  0.366  0.358  0.356  0.352  0.000  0.000
 1992 366   142   172      0      0    334     5   167   125  0.541  0.572  0.564  0.467  0.461  0.378  0.356  0.351  0.000  0.000
 1993 001   143   229     17     13    423     5   167   125  0.568  0.573  0.582  0.490  0.459  0.447  0.439  0.431  0.000  0.000
 1993 002   144   222     17     24    429     5   167   125  0.551  0.566  0.566  0.469  0.460  0.446  0.439  0.431  0.000  0.000
 1993 003   145   222     17     31    437     5   167   125  0.551  0.566  0.566  0.469  0.460  0.446  0.439  0.431  0.000  0.000
 1993 004   146   220     17     46    454     5   167   125  0.538  0.564  0.564  0.468  0.459  0.446  0.438  0.431  0.000  0.000
 1993 005   147   201     17     59    454     5   167   125  0.492  0.547  0.549  0.454  0.445  0.433  0.425  0.416  0.000  0.000
 1993 006   148   187     17     66    454     5   167   125  0.467  0.522  0.536  0.444  0.436  0.425  0.416  0.407  0.000  0.000
 1993 007   149   181     17     69    454     5   167   125  0.469  0.512  0.530  0.440  0.433  0.421  0.412  0.402  0.000  0.000
 1993 008   150   201     17     69    480     5   167   125  0.544  0.560  0.561  0.467  0.451  0.423  0.413  0.401  0.000  0.000
 1993 009   151   188     17     75    480     5   167   125  0.482  0.545  0.546  0.452  0.440  0.419  0.409  0.398  0.000  0.000
 1993 010   152   179     17     77    480     5   167   125  0.468  0.519  0.533  0.443  0.433  0.416  0.407  0.397  0.000  0.000
 1993 011   153   172     17     77    480     5   167   125  0.429  0.504  0.522  0.437  0.429  0.414  0.405  0.396  0.000  0.000
 1993 012   154   164     17     77    480     5   167   125  0.419  0.487  0.510  0.431  0.425  0.411  0.403  0.394  0.000  0.000
 1993 013   155   159     17     77    480     5   167   125  0.412  0.475  0.501  0.426  0.422  0.408  0.401  0.393  0.000  0.000
 1993 014   156   155     17     77    480     5   167   125  0.405  0.466  0.494  0.423  0.419  0.407  0.399  0.392  0.000  0.000
 1993 015   157   200     17     77    532     5   167   125  0.522  0.558  0.560  0.466  0.457  0.428  0.409  0.393  0.000  0.000
 1993 016   158   190     17     83    532     5   167   125  0.500  0.539  0.549  0.453  0.445  0.423  0.408  0.395  0.000  0.000
 1993 017   159   182     17     85    532     5   167   125  0.483  0.523  0.537  0.444  0.437  0.419  0.407  0.394  0.000  0.000
 1993 018   160   177     17     86    532     5   167   125  0.454  0.512  0.529  0.439  0.432  0.417  0.407  0.394  0.000  0.000
 1993 019   161   171     17     86    532     5   167   125  0.437  0.499  0.519  0.435  0.429  0.415  0.405  0.393  0.000  0.000
 1993 020   162   164     17     86    532     5   167   125  0.425  0.485  0.508  0.430  0.425  0.412  0.403  0.392  0.000  0.000
 1993 021   163   158     17     86    532     5   167   125  0.416  0.472  0.498  0.425  0.421  0.409  0.400  0.391  0.000  0.000
 1993 022   164   151     17     86    532     5   167   125  0.407  0.460  0.487  0.419  0.417  0.406  0.398  0.390  0.000  0.000
 1993 023   165   146     17     86    532     5   167   125  0.399  0.450  0.478  0.415  0.413  0.403  0.396  0.388  0.000  0.000
 1993 024   166   140     17     86    532     5   167   125  0.391  0.438  0.468  0.409  0.409  0.400  0.394  0.387  0.000  0.000
 1993 025   167   153     17     86    549     5   167   125  0.540  0.516  0.463  0.407  0.407  0.399  0.393  0.386  0.000  0.000
 1993 026   168   147     17     86    549     5   167   125  0.464  0.512  0.463  0.404  0.404  0.397  0.392  0.385  0.000  0.000
 1993 027   169   145     17     86    549     5   167   125  0.464  0.496  0.464  0.402  0.403  0.397  0.391  0.385  0.000  0.000
 1993 028   170   142     17     86    552     5   167   125  0.460  0.482  0.461  0.399  0.401  0.396  0.390  0.384  0.000  0.000
 1993 029   171   137     17     86    552     5   167   125  0.419  0.471  0.457  0.396  0.399  0.395  0.389  0.383  0.000  0.000
 1993 030   172   138     17     86    561     5   167   125  0.486  0.475  0.452  0.394  0.397  0.393  0.388  0.382  0.000  0.000
 1993 031   173   135     17     86    561     5   167   125  0.442  0.473  0.451  0.393  0.396  0.393  0.388  0.382  0.000  0.000
 1993 032   174   165     17     86    598     5   167   125  0.482  0.560  0.566  0.411  0.395  0.392  0.387  0.381  0.000  0.000
 1993 033   175   160     17     86    598     5   167   125  0.444  0.529  0.550  0.426  0.394  0.392  0.387  0.381  0.000  0.000
 1993 034   176   157     17     86    598     5   167   125  0.444  0.514  0.538  0.429  0.395  0.391  0.386  0.380  0.000  0.000
 1993 035   177   154     17     86    598     5   167   125  0.444  0.506  0.530  0.427  0.395  0.391  0.386  0.380  0.000  0.000
 1993 036   178   152     17     86    598     5   167   125  0.443  0.499  0.523  0.425  0.395  0.391  0.386  0.380  0.000  0.000
 1993 037   179   150     17     86    598     5   167   125  0.442  0.494  0.519  0.424  0.396  0.390  0.386  0.379  0.000  0.000
 1993 038   180   153     17     86    603     5   167   125  0.505  0.491  0.515  0.422  0.396  0.390  0.386  0.379  0.000  0.000
