*SOIL WATER DAILY OUTPUT FILE

*DSSAT Cropping System Model Ver. 4.0.2.000               Aug 03, 2016; 14:28:45

*RUN   1        : UYMZ                    
 MODEL          : MZCER040 - Maize           
 EXPERIMENT     : UYMZ0117 MZ    late to create DSS                             
 TREATMENT  1   : UYMZ                    

@YEAR DOY   DAS  SWXD   ROFC   DRNC   PREC  IR#C  IRRC  DTWT   SW1D   SW2D   SW3D   SW4D   SW5D   SW6D   SW7D   SW8D   SW9D   SW10
 1987 184     0   130      0      0     13     0     0   125  0.552  0.437  0.394  0.335  0.375  0.419  0.408  0.395  0.000  0.000
 1987 185     1   127      0      0     13     0     0   125  0.462  0.452  0.395  0.335  0.376  0.418  0.408  0.395  0.000  0.000
 1987 186     2   125      0      0     13     0     0   125  0.406  0.451  0.397  0.336  0.376  0.418  0.408  0.395  0.000  0.000
 1987 187     3   156      0      0     13     1    34   125  0.517  0.563  0.494  0.336  0.377  0.417  0.408  0.395  0.000  0.000
 1987 188     4   154      0      0     13     1    34   125  0.507  0.535  0.503  0.339  0.377  0.417  0.408  0.395  0.000  0.000
 1987 189     5   153      0      0     13     1    34   125  0.493  0.521  0.503  0.342  0.378  0.416  0.408  0.395  0.000  0.000
 1987 190     6   152      0      0     13     1    34   125  0.493  0.511  0.501  0.345  0.378  0.416  0.408  0.395  0.000  0.000
 1987 191     7   149      0      0     13     1    34   125  0.452  0.506  0.500  0.348  0.378  0.415  0.408  0.395  0.000  0.000
 1987 192     8   184      0      0     49     1    34   125  0.561  0.560  0.565  0.441  0.379  0.415  0.408  0.395  0.000  0.000
 1987 193     9   182      0      0     49     1    34   125  0.513  0.553  0.556  0.439  0.398  0.415  0.408  0.395  0.000  0.000
 1987 194    10   181      0      0     49     1    34   125  0.520  0.537  0.550  0.438  0.408  0.414  0.408  0.395  0.000  0.000
 1987 195    11   179      0      0     49     1    34   125  0.502  0.533  0.545  0.437  0.412  0.414  0.407  0.395  0.000  0.000
 1987 196    12   178      0      0     49     1    34   125  0.488  0.527  0.541  0.436  0.413  0.414  0.407  0.395  0.000  0.000
 1987 197    13   176      0      0     49     1    34   125  0.483  0.522  0.537  0.435  0.414  0.414  0.407  0.395  0.000  0.000
 1987 198    14   175      0      0     49     1    34   125  0.488  0.517  0.534  0.435  0.415  0.414  0.407  0.395  0.000  0.000
 1987 199    15   174      0      0     49     1    34   125  0.475  0.515  0.531  0.434  0.416  0.414  0.407  0.395  0.000  0.000
 1987 200    16   173      0      0     49     1    34   125  0.472  0.510  0.528  0.433  0.417  0.414  0.407  0.395  0.000  0.000
 1987 201    17   172      0      0     49     1    34   125  0.471  0.507  0.525  0.432  0.417  0.414  0.407  0.395  0.000  0.000
 1987 202    18   171      0      0     49     1    34   125  0.470  0.504  0.523  0.431  0.418  0.414  0.407  0.395  0.000  0.000
 1987 203    19   170      0      0     49     1    34   125  0.469  0.501  0.520  0.430  0.418  0.414  0.407  0.395  0.000  0.000
 1987 204    20   182      0      0     61     1    34   125  0.563  0.558  0.526  0.429  0.418  0.414  0.407  0.395  0.000  0.000
 1987 205    21   191      0      0     72     1    34   125  0.541  0.564  0.570  0.446  0.424  0.414  0.407  0.395  0.000  0.000
 1987 206    22   189      0      0     72     1    34   125  0.503  0.555  0.559  0.443  0.431  0.419  0.408  0.395  0.000  0.000
 1987 207    23   201      0      0     85     1    34   125  0.569  0.559  0.568  0.469  0.444  0.422  0.411  0.395  0.000  0.000
 1987 208    24   208      0      1     93     1    34   125  0.548  0.568  0.568  0.470  0.460  0.430  0.417  0.399  0.000  0.000
 1987 209    25   197      0      9     93     1    34   125  0.498  0.557  0.557  0.457  0.449  0.426  0.414  0.397  0.000  0.000
 1987 210    26   191      0     14     93     1    34   125  0.514  0.535  0.551  0.449  0.442  0.423  0.411  0.397  0.000  0.000
 1987 211    27   202      0     15    107     1    34   125  0.528  0.564  0.565  0.467  0.449  0.425  0.414  0.399  0.000  0.000
 1987 212    28   194      0     21    107     1    34   125  0.505  0.548  0.556  0.455  0.442  0.423  0.412  0.397  0.000  0.000
 1987 213    29   188      0     25    107     1    34   125  0.485  0.533  0.549  0.448  0.437  0.421  0.410  0.397  0.000  0.000
 1987 214    30   183      0     26    107     1    34   125  0.462  0.524  0.542  0.444  0.435  0.421  0.410  0.397  0.000  0.000
 1987 215    31   181      0     27    107     1    34   125  0.464  0.516  0.537  0.441  0.433  0.421  0.410  0.397  0.000  0.000
 1987 216    32   180      0     27    107     1    34   125  0.465  0.511  0.533  0.439  0.433  0.421  0.410  0.397  0.000  0.000
 1987 217    33   192      0     27    120     1    34   125  0.568  0.565  0.542  0.439  0.433  0.422  0.410  0.397  0.000  0.000
 1987 218    34   198      0     27    127     1    34   125  0.551  0.568  0.568  0.451  0.438  0.422  0.411  0.398  0.000  0.000
 1987 219    35   211      0     28    143     1    34   125  0.532  0.568  0.568  0.470  0.460  0.438  0.423  0.403  0.000  0.000
 1987 220    36   200      0     38    143     1    34   125  0.513  0.552  0.557  0.457  0.449  0.431  0.417  0.400  0.000  0.000
 1987 221    37   191      0     44    143     1    34   125  0.489  0.536  0.551  0.449  0.442  0.426  0.413  0.398  0.000  0.000
 1987 222    38   187      0     47    143     1    34   125  0.502  0.526  0.543  0.445  0.437  0.423  0.411  0.398  0.000  0.000
 1987 223    39   183      0     49    143     1    34   125  0.472  0.523  0.539  0.442  0.435  0.422  0.410  0.398  0.000  0.000
 1987 224    40   190      0     49    151     1    34   125  0.566  0.547  0.540  0.440  0.434  0.421  0.411  0.398  0.000  0.000
 1987 225    41   189      0     50    151     1    34   125  0.537  0.544  0.542  0.440  0.433  0.421  0.411  0.398  0.000  0.000
 1987 226    42   197      0     50    162     1    34   125  0.541  0.565  0.567  0.450  0.437  0.422  0.411  0.398  0.000  0.000
 1987 227    43   204      0     51    171     1    34   125  0.541  0.567  0.568  0.470  0.452  0.425  0.414  0.399  0.000  0.000
 1987 228    44   194      0     58    171     1    34   125  0.484  0.555  0.557  0.457  0.444  0.422  0.411  0.398  0.000  0.000
 1987 229    45   189      0     62    171     1    34   125  0.506  0.531  0.549  0.449  0.439  0.421  0.410  0.398  0.000  0.000
 1987 230    46   188      0     62    171     1    34   125  0.507  0.527  0.543  0.447  0.439  0.422  0.411  0.398  0.000  0.000
 1987 231    47   185      0     63    171     1    34   125  0.492  0.525  0.539  0.443  0.436  0.422  0.410  0.398  0.000  0.000
 1987 232    48   183      0     64    171     1    34   125  0.482  0.520  0.535  0.440  0.434  0.422  0.410  0.398  0.000  0.000
 1987 233    49   181      0     64    171     1    34   125  0.479  0.515  0.532  0.440  0.434  0.422  0.410  0.398  0.000  0.000
 1987 234    50   180      0     64    171     1    34   125  0.470  0.510  0.528  0.439  0.434  0.422  0.410  0.398  0.000  0.000
 1987 235    51   178      0     64    171     1    34   125  0.466  0.505  0.525  0.438  0.434  0.422  0.410  0.398  0.000  0.000
 1987 236    52   177      0     64    171     1    34   125  0.464  0.502  0.522  0.436  0.434  0.422  0.410  0.398  0.000  0.000
 1987 237    53   176      0     64    171     1    34   125  0.462  0.498  0.519  0.435  0.434  0.422  0.410  0.398  0.000  0.000
 1987 238    54   175      0     64    171     1    34   125  0.460  0.494  0.515  0.434  0.433  0.422  0.410  0.398  0.000  0.000
 1987 239    55   174      0     64    171     1    34   125  0.458  0.491  0.513  0.433  0.433  0.422  0.410  0.398  0.000  0.000
 1987 240    56   208      0     64    207     1    34   125  0.559  0.566  0.566  0.469  0.460  0.431  0.417  0.400  0.000  0.000
 1987 241    57   223      1     85    243     1    34   125  0.550  0.567  0.567  0.470  0.460  0.447  0.439  0.432  0.000  0.000
 1987 242    58   205      1     99    243     1    34   125  0.490  0.555  0.555  0.457  0.449  0.436  0.427  0.417  0.000  0.000
 1987 243    59   193      1    108    243     1    34   125  0.473  0.531  0.546  0.449  0.442  0.429  0.419  0.408  0.000  0.000
 1987 244    60   186      1    112    243     1    34   125  0.466  0.520  0.539  0.445  0.437  0.425  0.415  0.403  0.000  0.000
 1987 245    61   183      1    115    243     1    34   125  0.474  0.513  0.534  0.441  0.435  0.423  0.412  0.400  0.000  0.000
 1987 246    62   179      1    116    243     1    34   125  0.461  0.508  0.528  0.439  0.433  0.421  0.410  0.398  0.000  0.000
 1987 247    63   177      1    116    243     1    34   125  0.457  0.502  0.522  0.438  0.433  0.421  0.410  0.398  0.000  0.000
 1987 248    64   176      1    116    243     1    34   125  0.455  0.498  0.519  0.436  0.433  0.421  0.410  0.398  0.000  0.000
 1987 249    65   174      1    116    243     1    34   125  0.453  0.494  0.515  0.435  0.433  0.421  0.410  0.398  0.000  0.000
 1987 250    66   173      1    116    243     1    34   125  0.451  0.490  0.512  0.433  0.433  0.421  0.410  0.398  0.000  0.000
 1987 251    67   172      1    116    243     1    34   125  0.449  0.487  0.509  0.432  0.433  0.421  0.410  0.398  0.000  0.000
 1987 252    68   171      1    116    243     1    34   125  0.447  0.485  0.507  0.431  0.432  0.421  0.410  0.398  0.000  0.000
 1987 253    69   170      1    116    243     1    34   125  0.445  0.482  0.504  0.429  0.432  0.421  0.410  0.398  0.000  0.000
 1987 254    70   169      1    116    243     1    34   125  0.443  0.478  0.500  0.428  0.431  0.421  0.410  0.398  0.000  0.000
 1987 255    71   168      1    116    243     1    34   125  0.441  0.475  0.496  0.427  0.431  0.421  0.410  0.398  0.000  0.000
 1987 256    72   166      1    116    243     1    34   125  0.439  0.472  0.492  0.425  0.430  0.421  0.410  0.398  0.000  0.000
 1987 257    73   165      1    116    243     1    34   125  0.436  0.470  0.490  0.424  0.430  0.421  0.410  0.398  0.000  0.000
 1987 258    74   214      1    117    295     1    34   125  0.538  0.565  0.565  0.468  0.460  0.445  0.427  0.405  0.000  0.000
 1987 259    75   199      1    128    295     1    34   125  0.485  0.552  0.552  0.456  0.448  0.435  0.419  0.401  0.000  0.000
 1987 260    76   190      1    134    295     1    34   125  0.486  0.529  0.543  0.448  0.441  0.428  0.415  0.399  0.000  0.000
 1987 261    77   184      1    138    295     1    34   125  0.471  0.521  0.536  0.443  0.437  0.425  0.412  0.397  0.000  0.000
 1987 262    78   180      1    139    295     1    34   125  0.460  0.512  0.528  0.439  0.435  0.422  0.410  0.397  0.000  0.000
 1987 263    79   177      1    140    295     1    34   125  0.457  0.504  0.522  0.437  0.433  0.421  0.410  0.397  0.000  0.000
 1987 264    80   175      1    140    295     1    34   125  0.455  0.499  0.518  0.435  0.433  0.421  0.410  0.397  0.000  0.000
 1987 265    81   174      1    140    295     1    34   125  0.453  0.494  0.514  0.433  0.433  0.421  0.410  0.397  0.000  0.000
 1987 266    82   172      1    140    295     1    34   125  0.451  0.490  0.510  0.432  0.433  0.421  0.410  0.397  0.000  0.000
 1987 267    83   171      1    140    295     1    34   125  0.448  0.486  0.506  0.429  0.432  0.421  0.410  0.397  0.000  0.000
 1987 268    84   169      1    140    295     1    34   125  0.445  0.482  0.501  0.427  0.432  0.421  0.410  0.397  0.000  0.000
 1987 269    85   168      1    140    295     1    34   125  0.443  0.478  0.497  0.425  0.431  0.421  0.410  0.397  0.000  0.000
 1987 270    86   166      1    140    295     1    34   125  0.439  0.474  0.493  0.423  0.431  0.421  0.410  0.397  0.000  0.000
 1987 271    87   164      1    140    295     1    34   125  0.436  0.469  0.488  0.420  0.430  0.421  0.410  0.397  0.000  0.000
 1987 272    88   162      1    140    295     1    34   125  0.433  0.465  0.483  0.417  0.429  0.421  0.410  0.397  0.000  0.000
 1987 273    89   175      1    140    309     1    34   125  0.555  0.535  0.481  0.416  0.428  0.421  0.410  0.397  0.000  0.000
 1987 274    90   171      1    140    309     1    34   125  0.499  0.528  0.482  0.413  0.427  0.421  0.410  0.397  0.000  0.000
 1987 275    91   167      1    140    309     1    34   125  0.470  0.511  0.481  0.410  0.426  0.421  0.410  0.397  0.000  0.000
 1987 276    92   164      1    140    309     1    34   125  0.458  0.497  0.480  0.407  0.424  0.421  0.410  0.397  0.000  0.000
 1987 277    93   161      1    140    309     1    34   125  0.448  0.484  0.475  0.403  0.422  0.421  0.410  0.397  0.000  0.000
 1987 278    94   157      1    140    309     1    34   125  0.438  0.474  0.470  0.399  0.420  0.421  0.410  0.397  0.000  0.000
 1987 279    95   155      1    140    309     1    34   125  0.430  0.466  0.466  0.395  0.418  0.420  0.410  0.397  0.000  0.000
 1987 280    96   153      1    140    309     1    34   125  0.422  0.461  0.465  0.394  0.417  0.420  0.410  0.397  0.000  0.000
 1987 281    97   152      1    140    312     1    34   125  0.449  0.455  0.461  0.391  0.414  0.420  0.410  0.397  0.000  0.000
 1987 282    98   149      1    140    312     1    34   125  0.433  0.449  0.455  0.386  0.411  0.420  0.410  0.397  0.000  0.000
 1987 283    99   145      1    140    312     1    34   125  0.421  0.443  0.449  0.382  0.406  0.420  0.410  0.397  0.000  0.000
 1987 284   100   166      1    140    336     1    34   125  0.546  0.562  0.472  0.379  0.402  0.419  0.410  0.397  0.000  0.000
 1987 285   101   173      1    140    347     1    34   125  0.534  0.552  0.537  0.377  0.396  0.419  0.410  0.397  0.000  0.000
 1987 286   102   169      1    140    347     1    34   125  0.515  0.538  0.531  0.378  0.391  0.418  0.410  0.397  0.000  0.000
 1987 287   103   166      1    140    347     1    34   125  0.518  0.526  0.524  0.380  0.389  0.418  0.410  0.397  0.000  0.000
 1987 288   104   178      1    140    360     1    34   125  0.564  0.563  0.552  0.391  0.387  0.417  0.410  0.397  0.000  0.000
 1987 289   105   174      1    140    360     1    34   125  0.534  0.550  0.540  0.402  0.385  0.416  0.410  0.397  0.000  0.000
 1987 290   106   169      1    140    360     1    34   125  0.511  0.537  0.533  0.398  0.382  0.414  0.410  0.397  0.000  0.000
 1987 291   107   163      1    140    360     1    34   125  0.500  0.522  0.522  0.393  0.379  0.412  0.410  0.397  0.000  0.000
 1987 292   108   159      1    140    360     1    34   125  0.490  0.512  0.514  0.389  0.378  0.409  0.410  0.397  0.000  0.000
 1987 293   109   154      1    140    360     1    34   125  0.479  0.501  0.504  0.384  0.375  0.406  0.410  0.397  0.000  0.000
 1987 294   110   149      1    140    360     1    34   125  0.463  0.491  0.496  0.381  0.374  0.402  0.410  0.397  0.000  0.000
 1987 295   111   144      1    140    360     1    34   125  0.452  0.482  0.488  0.379  0.372  0.397  0.409  0.397  0.000  0.000
 1987 296   112   139      1    140    360     1    34   125  0.437  0.473  0.480  0.376  0.370  0.392  0.409  0.397  0.000  0.000
 1987 297   113   135      1    140    360     1    34   125  0.427  0.464  0.473  0.374  0.369  0.388  0.409  0.397  0.000  0.000
 1987 298   114   132      1    140    360     1    34   125  0.426  0.457  0.468  0.373  0.368  0.385  0.408  0.397  0.000  0.000
 1987 299   115   130      1    140    360     1    34   125  0.424  0.452  0.464  0.372  0.368  0.383  0.408  0.397  0.000  0.000
 1987 300   116   128      1    140    360     1    34   125  0.423  0.448  0.460  0.371  0.367  0.382  0.408  0.397  0.000  0.000
 1987 301   117   124      1    140    360     1    34   125  0.415  0.440  0.452  0.369  0.366  0.379  0.407  0.397  0.000  0.000
 1987 302   118   118      1    140    360     1    34   125  0.401  0.428  0.441  0.365  0.363  0.374  0.407  0.397  0.000  0.000
 1987 303   119   143      1    140    360     2    65   125  0.554  0.558  0.484  0.362  0.360  0.370  0.406  0.397  0.000  0.000
 1987 304   120   137      1    140    360     2    65   125  0.527  0.530  0.482  0.360  0.358  0.366  0.406  0.397  0.000  0.000
 1987 305   121   133      1    140    360     2    65   125  0.517  0.515  0.478  0.360  0.357  0.365  0.405  0.397  0.000  0.000
 1987 306   122   131      1    140    361     2    65   125  0.519  0.505  0.473  0.360  0.356  0.364  0.405  0.397  0.000  0.000
 1987 307   123   128      1    140    361     2    65   125  0.501  0.498  0.468  0.359  0.355  0.362  0.404  0.397  0.000  0.000
 1987 308   124   127      1    140    361     2    65   125  0.493  0.492  0.465  0.359  0.355  0.362  0.404  0.397  0.000  0.000
 1987 309   125   139      1    140    375     2    65   125  0.561  0.562  0.480  0.359  0.354  0.361  0.404  0.397  0.000  0.000
 1987 310   126   153      1    140    391     2    65   125  0.559  0.553  0.566  0.376  0.354  0.361  0.403  0.396  0.000  0.000
 1987 311   127   147      1    140    391     2    65   125  0.531  0.536  0.540  0.389  0.352  0.358  0.403  0.396  0.000  0.000
 1987 312   128   145      1    140    394     2    65   125  0.555  0.537  0.528  0.384  0.352  0.357  0.400  0.396  0.000  0.000
 1987 313   129   140      1    140    395     2    65   125  0.535  0.533  0.518  0.380  0.351  0.356  0.396  0.396  0.000  0.000
 1987 314   130   134      1    140    395     2    65   125  0.513  0.521  0.509  0.377  0.351  0.355  0.389  0.396  0.000  0.000
 1987 315   131   128      1    140    395     2    65   125  0.497  0.508  0.499  0.374  0.350  0.354  0.380  0.395  0.000  0.000
 1987 316   132   123      1    140    395     2    65   125  0.485  0.497  0.491  0.372  0.349  0.353  0.374  0.395  0.000  0.000
 1987 317   133   118      1    140    395     2    65   125  0.469  0.484  0.480  0.369  0.349  0.352  0.369  0.394  0.000  0.000
 1987 318   134   188     20    140    490     2    65   125  0.564  0.557  0.557  0.467  0.460  0.405  0.365  0.393  0.000  0.000
 1987 319   135   182     20    140    490     2    65   125  0.539  0.546  0.546  0.450  0.443  0.414  0.371  0.393  0.000  0.000
 1987 320   136   186     20    140    500     2    65   125  0.552  0.561  0.562  0.452  0.440  0.413  0.369  0.392  0.000  0.000
 1987 321   137   179     20    140    500     2    65   125  0.529  0.550  0.551  0.440  0.430  0.411  0.376  0.392  0.000  0.000
 1987 322   138   176     20    140    500     2    65   125  0.532  0.539  0.545  0.437  0.428  0.410  0.375  0.391  0.000  0.000
 1987 323   139   220     22    155    564     2    65   125  0.565  0.564  0.564  0.467  0.458  0.444  0.438  0.431  0.000  0.000
 1987 324   140   205     22    168    564     2    65   125  0.549  0.554  0.554  0.453  0.445  0.432  0.424  0.417  0.000  0.000
 1987 325   141   201     22    171    569     2    65   125  0.549  0.564  0.557  0.449  0.440  0.424  0.419  0.415  0.000  0.000
 1987 326   142   189     22    177    569     2    65   125  0.528  0.553  0.547  0.439  0.431  0.417  0.409  0.407  0.000  0.000
 1987 327   143   186     22    178    569     2    65   125  0.533  0.541  0.543  0.437  0.429  0.417  0.407  0.402  0.000  0.000
 1987 328   144   182     22    178    569     2    65   125  0.530  0.536  0.540  0.434  0.427  0.414  0.404  0.399  0.000  0.000
 1987 329   145   180     22    178    571     2    65   125  0.551  0.538  0.536  0.431  0.423  0.411  0.401  0.397  0.000  0.000
 1987 330   146   177     22    178    571     2    65   125  0.532  0.538  0.533  0.429  0.421  0.408  0.398  0.397  0.000  0.000
 1987 331   147   171     22    178    571     2    65   125  0.519  0.531  0.529  0.424  0.416  0.404  0.394  0.396  0.000  0.000
 1987 332   148   164     22    178    571     2    65   125  0.506  0.521  0.523  0.419  0.411  0.398  0.389  0.395  0.000  0.000
 1987 333   149   157     22    178    571     2    65   125  0.492  0.512  0.516  0.414  0.405  0.393  0.384  0.393  0.000  0.000
 1987 334   150   150     22    178    571     2    65   125  0.479  0.503  0.508  0.408  0.399  0.388  0.379  0.391  0.000  0.000
 1987 335   151   142     22    178    571     2    65   125  0.461  0.492  0.500  0.401  0.392  0.383  0.374  0.389  0.000  0.000
 1987 336   152   137     22    178    571     2    65   125  0.457  0.484  0.494  0.397  0.388  0.381  0.372  0.387  0.000  0.000
 1987 337   153   135     22    178    571     2    65   125  0.457  0.479  0.490  0.395  0.387  0.380  0.371  0.386  0.000  0.000
 1987 338   154   209     40    178    665     2    65   125  0.577  0.567  0.564  0.468  0.459  0.446  0.408  0.384  0.000  0.000
 1987 339   155   206     40    178    669     2    65   125  0.546  0.563  0.563  0.465  0.456  0.436  0.418  0.393  0.000  0.000
 1987 340   156   192     40    186    669     2    65   125  0.522  0.550  0.550  0.449  0.441  0.424  0.409  0.393  0.000  0.000
 1987 341   157   187     40    188    669     2    65   125  0.531  0.537  0.545  0.443  0.435  0.421  0.407  0.394  0.000  0.000
 1987 342   158   186     40    188    673     2    65   125  0.553  0.549  0.542  0.439  0.432  0.418  0.402  0.392  0.000  0.000
 1987 343   159   180     40    188    673     2    65   125  0.526  0.542  0.538  0.434  0.427  0.414  0.398  0.390  0.000  0.000
 1987 344   160   173     40    188    673     2    65   125  0.514  0.531  0.532  0.428  0.421  0.409  0.393  0.388  0.000  0.000
 1987 345   161   168     40    188    673     2    65   125  0.509  0.523  0.527  0.425  0.418  0.405  0.390  0.387  0.000  0.000
 1987 346   162   163     40    188    674     2    65   125  0.513  0.516  0.521  0.421  0.413  0.401  0.386  0.384  0.000  0.000
 1987 347   163   156     40    188    674     2    65   125  0.488  0.511  0.515  0.416  0.408  0.396  0.381  0.382  0.000  0.000
 1987 348   164   152     40    188    674     2    65   125  0.485  0.505  0.511  0.413  0.406  0.393  0.379  0.381  0.000  0.000
 1987 349   165   147     40    188    674     2    65   125  0.471  0.497  0.506  0.409  0.401  0.389  0.376  0.379  0.000  0.000
 1987 350   166   202     40    188    732     2    65   125  0.568  0.563  0.564  0.468  0.458  0.437  0.397  0.378  0.000  0.000
 1987 351   167   198     40    188    734     2    65   125  0.541  0.562  0.558  0.460  0.453  0.431  0.408  0.379  0.000  0.000
 1987 352   168   190     40    191    734     2    65   125  0.519  0.550  0.548  0.447  0.441  0.422  0.404  0.394  0.000  0.000
 1987 353   169   182     40    193    734     2    65   125  0.509  0.534  0.541  0.439  0.433  0.417  0.403  0.393  0.000  0.000
 1987 354   170   177     40    193    734     2    65   125  0.502  0.525  0.535  0.435  0.429  0.413  0.399  0.391  0.000  0.000
 1987 355   171   170     40    193    734     2    65   125  0.484  0.517  0.528  0.430  0.425  0.408  0.395  0.389  0.000  0.000
 1987 356   172   166     40    193    734     2    65   125  0.484  0.509  0.523  0.427  0.421  0.405  0.392  0.387  0.000  0.000
 1987 357   173   160     40    193    734     2    65   125  0.467  0.503  0.517  0.422  0.417  0.401  0.388  0.385  0.000  0.000
 1987 358   174   153     40    193    734     2    65   125  0.444  0.495  0.510  0.418  0.412  0.397  0.384  0.383  0.000  0.000
 1987 359   175   151     40    193    734     2    65   125  0.448  0.489  0.507  0.416  0.411  0.395  0.383  0.382  0.000  0.000
 1987 360   176   147     40    193    734     2    65   125  0.441  0.483  0.503  0.413  0.408  0.393  0.381  0.381  0.000  0.000
 1987 361   177   177     40    193    769     2    65   125  0.547  0.561  0.562  0.461  0.422  0.390  0.378  0.379  0.000  0.000
 1987 362   178   172     40    193    769     2    65   125  0.518  0.550  0.551  0.448  0.428  0.395  0.376  0.377  0.000  0.000
 1987 363   179   178     40    193    777     2    65   125  0.572  0.558  0.561  0.451  0.433  0.395  0.376  0.377  0.000  0.000
 1987 364   180   179     40    193    781     2    65   125  0.546  0.566  0.565  0.453  0.436  0.396  0.374  0.375  0.000  0.000
 1987 365   181   199     40    193    807     2    65   125  0.529  0.566  0.566  0.466  0.455  0.437  0.397  0.373  0.000  0.000
 1988 001   182   190     40    195    807     2    65   125  0.490  0.548  0.554  0.452  0.443  0.424  0.402  0.393  0.000  0.000
 1988 002   183   181     40    196    807     2    65   125  0.478  0.527  0.544  0.443  0.434  0.417  0.403  0.393  0.000  0.000
 1988 003   184   174     40    196    807     2    65   125  0.454  0.516  0.536  0.436  0.429  0.414  0.399  0.391  0.000  0.000
 1988 004   185   167     40    196    807     2    65   125  0.440  0.505  0.527  0.431  0.424  0.410  0.395  0.389  0.000  0.000
 1988 005   186   185     40    196    829     2    65   125  0.553  0.563  0.562  0.444  0.428  0.407  0.393  0.387  0.000  0.000
 1988 006   187   181     40    196    832     2    65   125  0.514  0.564  0.557  0.446  0.430  0.405  0.389  0.386  0.000  0.000
 1988 007   188   174     40    196    832     2    65   125  0.479  0.540  0.548  0.439  0.427  0.408  0.386  0.384  0.000  0.000
 1988 008   189   168     40    196    832     2    65   125  0.477  0.522  0.539  0.435  0.426  0.405  0.383  0.382  0.000  0.000
 1988 009   190   161     40    196    832     2    65   125  0.446  0.513  0.531  0.431  0.422  0.401  0.380  0.380  0.000  0.000
 1988 010   191   156     40    196    832     2    65   125  0.441  0.502  0.524  0.427  0.418  0.397  0.378  0.378  0.000  0.000
 1988 011   192   152     40    196    832     2    65   125  0.437  0.494  0.517  0.423  0.415  0.394  0.376  0.377  0.000  0.000

*DSSAT Cropping System Model Ver. 4.0.2.000               Aug 03, 2016; 14:28:45

*RUN   2        : UYMZ                    
 MODEL          : MZCER040 - Maize           
 EXPERIMENT     : UYMZ0117 MZ    late to create DSS                             
 TREATMENT  1   : UYMZ                    

@YEAR DOY   DAS  SWXD   ROFC   DRNC   PREC  IR#C  IRRC  DTWT   SW1D   SW2D   SW3D   SW4D   SW5D   SW6D   SW7D   SW8D   SW9D   SW10
 1988 184     0   117      0      0      0     0     0   125  0.371  0.394  0.394  0.335  0.375  0.419  0.408  0.395  0.000  0.000
 1988 185     1   124      0      0      8     0     0   125  0.517  0.393  0.394  0.335  0.376  0.418  0.408  0.395  0.000  0.000
 1988 186     2   187      0      0     72     0     0   125  0.536  0.577  0.568  0.449  0.383  0.418  0.408  0.395  0.000  0.000
 1988 187     3   205      0      0     92     0     0   125  0.539  0.565  0.568  0.468  0.463  0.427  0.413  0.397  0.000  0.000
 1988 188     4   197      0      8     92     0     0   125  0.527  0.554  0.557  0.456  0.450  0.424  0.411  0.397  0.000  0.000
 1988 189     5   190      0     12     92     0     0   125  0.497  0.543  0.551  0.449  0.442  0.422  0.410  0.397  0.000  0.000
 1988 190     6   187      0     14     92     0     0   125  0.490  0.530  0.545  0.445  0.438  0.422  0.410  0.397  0.000  0.000
 1988 191     7   184      0     15     92     0     0   125  0.471  0.523  0.541  0.442  0.435  0.422  0.410  0.397  0.000  0.000
 1988 192     8   181      0     15     92     0     0   125  0.465  0.517  0.536  0.440  0.433  0.422  0.410  0.397  0.000  0.000
 1988 193     9   180      0     15     92     0     0   125  0.466  0.512  0.533  0.439  0.433  0.422  0.410  0.397  0.000  0.000
 1988 194    10   179      0     15     92     0     0   125  0.466  0.508  0.529  0.438  0.433  0.422  0.410  0.397  0.000  0.000
 1988 195    11   178      0     15     92     0     0   125  0.467  0.505  0.527  0.437  0.433  0.422  0.410  0.397  0.000  0.000
 1988 196    12   178      0     15     92     0     0   125  0.467  0.503  0.524  0.436  0.433  0.422  0.410  0.397  0.000  0.000
 1988 197    13   177      0     15     92     0     0   125  0.467  0.501  0.522  0.435  0.433  0.422  0.410  0.397  0.000  0.000
 1988 198    14   176      0     15     92     0     0   125  0.467  0.499  0.520  0.434  0.433  0.422  0.410  0.397  0.000  0.000
 1988 199    15   176      0     15     92     0     0   125  0.467  0.497  0.518  0.433  0.433  0.422  0.410  0.397  0.000  0.000
 1988 200    16   175      0     15     92     0     0   125  0.466  0.496  0.517  0.432  0.432  0.422  0.410  0.397  0.000  0.000
 1988 201    17   175      0     15     92     0     0   125  0.466  0.495  0.515  0.431  0.432  0.422  0.410  0.397  0.000  0.000
 1988 202    18   174      0     15     92     0     0   125  0.466  0.493  0.514  0.430  0.432  0.422  0.410  0.397  0.000  0.000
 1988 203    19   173      0     15     92     0     0   125  0.466  0.492  0.512  0.430  0.431  0.422  0.410  0.397  0.000  0.000
 1988 204    20   175      0     15     95     0     0   125  0.510  0.491  0.511  0.429  0.431  0.422  0.410  0.397  0.000  0.000
 1988 205    21   177      0     15     98     0     0   125  0.527  0.505  0.510  0.428  0.431  0.422  0.410  0.397  0.000  0.000
 1988 206    22   177      0     15     98     0     0   125  0.501  0.511  0.512  0.428  0.430  0.422  0.410  0.397  0.000  0.000
 1988 207    23   176      0     15     98     0     0   125  0.494  0.509  0.512  0.427  0.430  0.422  0.410  0.397  0.000  0.000
 1988 208    24   175      0     15     98     0     0   125  0.489  0.506  0.512  0.427  0.429  0.422  0.410  0.397  0.000  0.000
 1988 209    25   175      0     15     98     0     0   125  0.486  0.504  0.512  0.427  0.429  0.422  0.410  0.397  0.000  0.000
 1988 210    26   174      0     15     98     0     0   125  0.483  0.502  0.511  0.426  0.429  0.422  0.410  0.397  0.000  0.000
 1988 211    27   174      0     15     98     0     0   125  0.481  0.500  0.511  0.426  0.428  0.422  0.410  0.397  0.000  0.000
 1988 212    28   173      0     15     98     0     0   125  0.479  0.498  0.510  0.425  0.428  0.422  0.410  0.397  0.000  0.000
 1988 213    29   173      0     15     98     0     0   125  0.477  0.497  0.509  0.425  0.428  0.422  0.410  0.397  0.000  0.000
 1988 214    30   197      0     16    123     0     0   125  0.558  0.566  0.567  0.448  0.433  0.421  0.410  0.397  0.000  0.000
 1988 215    31   225      4     55    196     0     0   125  0.551  0.568  0.568  0.484  0.460  0.447  0.439  0.432  0.000  0.000
 1988 216    32   223      5     72    212     0     0   125  0.552  0.568  0.568  0.470  0.460  0.447  0.439  0.432  0.000  0.000
 1988 217    33   220      5     77    215     0     0   125  0.547  0.568  0.566  0.467  0.460  0.442  0.439  0.432  0.000  0.000
 1988 218    34   204      5     90    215     0     0   125  0.497  0.557  0.557  0.455  0.448  0.433  0.427  0.417  0.000  0.000
 1988 219    35   194      5     99    215     0     0   125  0.482  0.535  0.550  0.448  0.441  0.427  0.419  0.408  0.000  0.000
 1988 220    36   188      5    103    215     0     0   125  0.495  0.524  0.543  0.444  0.437  0.424  0.415  0.403  0.000  0.000
 1988 221    37   184      5    105    215     0     0   125  0.483  0.522  0.539  0.441  0.435  0.422  0.412  0.400  0.000  0.000
 1988 222    38   182      5    106    215     0     0   125  0.484  0.517  0.535  0.440  0.433  0.422  0.410  0.398  0.000  0.000
 1988 223    39   181      5    106    215     0     0   125  0.471  0.514  0.532  0.439  0.433  0.422  0.410  0.398  0.000  0.000
 1988 224    40   180      5    106    215     0     0   125  0.468  0.510  0.529  0.438  0.433  0.422  0.410  0.398  0.000  0.000
 1988 225    41   179      5    106    215     0     0   125  0.467  0.506  0.527  0.437  0.433  0.422  0.410  0.398  0.000  0.000
 1988 226    42   178      5    106    215     0     0   125  0.466  0.503  0.524  0.436  0.433  0.422  0.410  0.398  0.000  0.000
 1988 227    43   177      5    106    215     0     0   125  0.466  0.501  0.522  0.435  0.433  0.422  0.410  0.398  0.000  0.000
 1988 228    44   176      5    106    215     0     0   125  0.465  0.499  0.520  0.434  0.433  0.422  0.410  0.398  0.000  0.000
 1988 229    45   176      5    106    215     0     0   125  0.464  0.496  0.518  0.433  0.432  0.422  0.410  0.398  0.000  0.000
 1988 230    46   175      5    106    215     0     0   125  0.463  0.494  0.516  0.432  0.432  0.422  0.410  0.398  0.000  0.000
 1988 231    47   174      5    106    215     0     0   125  0.462  0.492  0.514  0.431  0.432  0.422  0.410  0.398  0.000  0.000
 1988 232    48   173      5    106    215     0     0   125  0.461  0.491  0.513  0.430  0.432  0.422  0.410  0.398  0.000  0.000
 1988 233    49   190      5    106    234     0     0   125  0.526  0.566  0.546  0.434  0.431  0.422  0.410  0.398  0.000  0.000
 1988 234    50   186      5    107    234     0     0   125  0.471  0.548  0.544  0.439  0.431  0.422  0.410  0.398  0.000  0.000
 1988 235    51   183      5    107    234     0     0   125  0.473  0.526  0.540  0.439  0.431  0.422  0.410  0.398  0.000  0.000
 1988 236    52   180      5    107    234     0     0   125  0.461  0.517  0.535  0.438  0.431  0.422  0.410  0.398  0.000  0.000
 1988 237    53   179      5    107    234     0     0   125  0.459  0.509  0.530  0.437  0.431  0.422  0.410  0.398  0.000  0.000
 1988 238    54   177      5    107    234     0     0   125  0.458  0.503  0.526  0.436  0.431  0.422  0.410  0.398  0.000  0.000
 1988 239    55   176      5    107    234     0     0   125  0.457  0.499  0.522  0.435  0.431  0.422  0.410  0.398  0.000  0.000
 1988 240    56   175      5    107    234     0     0   125  0.455  0.496  0.519  0.434  0.431  0.422  0.410  0.398  0.000  0.000
 1988 241    57   174      5    107    234     0     0   125  0.454  0.493  0.517  0.433  0.430  0.422  0.410  0.398  0.000  0.000
 1988 242    58   174      5    107    234     0     0   125  0.454  0.491  0.515  0.432  0.430  0.422  0.410  0.398  0.000  0.000
 1988 243    59   173      5    107    234     0     0   125  0.453  0.489  0.513  0.431  0.430  0.422  0.410  0.398  0.000  0.000
 1988 244    60   172      5    107    234     0     0   125  0.452  0.487  0.510  0.430  0.430  0.422  0.410  0.398  0.000  0.000
 1988 245    61   171      5    107    234     0     0   125  0.451  0.485  0.508  0.429  0.429  0.422  0.410  0.398  0.000  0.000
 1988 246    62   170      5    107    234     0     0   125  0.450  0.483  0.506  0.428  0.429  0.422  0.410  0.398  0.000  0.000
 1988 247    63   170      5    107    234     0     0   125  0.449  0.481  0.505  0.427  0.429  0.422  0.410  0.398  0.000  0.000
 1988 248    64   169      5    107    234     0     0   125  0.448  0.480  0.503  0.427  0.428  0.422  0.410  0.398  0.000  0.000
 1988 249    65   169      5    107    234     0     0   125  0.447  0.479  0.502  0.426  0.428  0.422  0.410  0.398  0.000  0.000
 1988 250    66   168      5    107    234     0     0   125  0.446  0.478  0.501  0.425  0.428  0.422  0.410  0.398  0.000  0.000
 1988 251    67   179      5    107    246     0     0   125  0.545  0.536  0.500  0.424  0.427  0.422  0.410  0.398  0.000  0.000
 1988 252    68   177      5    107    246     0     0   125  0.508  0.531  0.505  0.424  0.427  0.422  0.410  0.398  0.000  0.000
 1988 253    69   185      5    107    255     0     0   125  0.552  0.556  0.526  0.423  0.427  0.422  0.410  0.398  0.000  0.000
 1988 254    70   192      5    107    264     0     0   125  0.546  0.564  0.560  0.435  0.426  0.422  0.410  0.398  0.000  0.000
 1988 255    71   188      5    108    264     0     0   125  0.494  0.554  0.552  0.438  0.431  0.421  0.410  0.398  0.000  0.000
 1988 256    72   184      5    109    264     0     0   125  0.465  0.532  0.545  0.438  0.431  0.421  0.410  0.398  0.000  0.000
 1988 257    73   180      5    109    264     0     0   125  0.445  0.518  0.537  0.438  0.431  0.421  0.410  0.398  0.000  0.000
 1988 258    74   178      5    109    264     0     0   125  0.446  0.508  0.531  0.437  0.431  0.421  0.410  0.398  0.000  0.000
 1988 259    75   176      5    109    264     0     0   125  0.446  0.501  0.525  0.436  0.431  0.421  0.410  0.398  0.000  0.000
 1988 260    76   175      5    109    264     0     0   125  0.446  0.496  0.521  0.435  0.431  0.421  0.410  0.398  0.000  0.000
 1988 261    77   174      5    109    264     0     0   125  0.445  0.492  0.518  0.434  0.431  0.421  0.410  0.398  0.000  0.000
 1988 262    78   173      5    109    264     0     0   125  0.445  0.489  0.515  0.433  0.431  0.421  0.410  0.398  0.000  0.000
 1988 263    79   172      5    109    264     0     0   125  0.444  0.486  0.512  0.431  0.430  0.421  0.410  0.398  0.000  0.000
 1988 264    80   171      5    109    264     0     0   125  0.442  0.484  0.509  0.430  0.430  0.421  0.410  0.398  0.000  0.000
 1988 265    81   178      5    109    273     0     0   125  0.555  0.509  0.507  0.429  0.430  0.421  0.410  0.398  0.000  0.000
 1988 266    82   222      5    116    325     0     0   125  0.520  0.576  0.569  0.469  0.460  0.447  0.439  0.432  0.000  0.000
 1988 267    83   221      5    133    344     0     0   125  0.544  0.558  0.566  0.470  0.460  0.447  0.439  0.432  0.000  0.000
 1988 268    84   205      5    147    344     0     0   125  0.506  0.550  0.554  0.457  0.449  0.436  0.427  0.417  0.000  0.000
 1988 269    85   195      5    155    344     0     0   125  0.513  0.533  0.547  0.449  0.442  0.429  0.419  0.408  0.000  0.000
 1988 270    86   220      5    158    373     0     0   125  0.563  0.564  0.564  0.470  0.460  0.447  0.439  0.419  0.000  0.000
 1988 271    87   221      5    162    380     0     0   125  0.539  0.565  0.566  0.470  0.460  0.447  0.439  0.430  0.000  0.000
 1988 272    88   203      5    176    380     0     0   125  0.482  0.549  0.554  0.456  0.448  0.436  0.427  0.416  0.000  0.000
 1988 273    89   191      5    184    380     0     0   125  0.466  0.526  0.542  0.447  0.441  0.429  0.419  0.408  0.000  0.000
 1988 274    90   183      5    188    380     0     0   125  0.443  0.514  0.531  0.441  0.436  0.425  0.415  0.403  0.000  0.000
 1988 275    91   177      5    190    380     0     0   125  0.441  0.503  0.523  0.437  0.433  0.423  0.412  0.400  0.000  0.000
 1988 276    92   174      5    191    380     0     0   125  0.440  0.496  0.517  0.434  0.432  0.421  0.410  0.398  0.000  0.000
 1988 277    93   190      5    191    400     0     0   125  0.548  0.561  0.545  0.437  0.431  0.421  0.410  0.398  0.000  0.000
 1988 278    94   185      5    192    400     0     0   125  0.492  0.550  0.537  0.435  0.429  0.421  0.410  0.398  0.000  0.000
 1988 279    95   180      5    192    400     0     0   125  0.484  0.526  0.531  0.431  0.426  0.421  0.410  0.398  0.000  0.000
 1988 280    96   175      5    192    400     0     0   125  0.458  0.514  0.521  0.427  0.423  0.421  0.410  0.398  0.000  0.000
 1988 281    97   171      5    192    400     0     0   125  0.449  0.502  0.512  0.422  0.419  0.421  0.410  0.398  0.000  0.000
 1988 282    98   167      5    192    400     0     0   125  0.444  0.493  0.505  0.417  0.414  0.421  0.410  0.398  0.000  0.000
 1988 283    99   164      5    192    400     0     0   125  0.439  0.486  0.500  0.414  0.412  0.421  0.410  0.398  0.000  0.000
 1988 284   100   161      5    192    400     0     0   125  0.435  0.479  0.493  0.409  0.407  0.420  0.410  0.398  0.000  0.000
 1988 285   101   158      5    192    402     0     0   125  0.453  0.473  0.487  0.403  0.402  0.420  0.410  0.398  0.000  0.000
 1988 286   102   154      5    192    402     0     0   125  0.441  0.469  0.480  0.397  0.396  0.419  0.410  0.398  0.000  0.000
 1988 287   103   151      5    192    402     0     0   125  0.432  0.465  0.474  0.392  0.391  0.418  0.410  0.398  0.000  0.000
 1988 288   104   147      5    192    402     0     0   125  0.425  0.460  0.468  0.387  0.388  0.417  0.410  0.398  0.000  0.000
 1988 289   105   144      5    192    402     0     0   125  0.418  0.455  0.463  0.383  0.385  0.415  0.410  0.398  0.000  0.000
 1988 290   106   140      5    192    402     0     0   125  0.412  0.449  0.455  0.379  0.381  0.412  0.410  0.398  0.000  0.000
 1988 291   107   137      5    192    402     0     0   125  0.406  0.443  0.450  0.376  0.379  0.410  0.410  0.398  0.000  0.000
 1988 292   108   133      5    192    402     0     0   125  0.400  0.437  0.442  0.373  0.376  0.406  0.410  0.398  0.000  0.000
 1988 293   109   160      5    192    402     1    30   125  0.557  0.564  0.496  0.371  0.375  0.404  0.410  0.398  0.000  0.000
 1988 294   110   155      5    192    402     1    30   125  0.517  0.543  0.500  0.370  0.373  0.399  0.410  0.398  0.000  0.000
 1988 295   111   150      5    192    402     1    30   125  0.509  0.523  0.496  0.370  0.371  0.394  0.409  0.398  0.000  0.000
 1988 296   112   146      5    192    402     1    30   125  0.499  0.512  0.492  0.370  0.370  0.390  0.409  0.398  0.000  0.000
 1988 297   113   141      5    192    402     1    30   125  0.475  0.501  0.484  0.368  0.368  0.385  0.409  0.398  0.000  0.000
 1988 298   114   136      5    192    402     1    30   125  0.468  0.489  0.475  0.367  0.366  0.380  0.408  0.398  0.000  0.000
 1988 299   115   137      5    192    406     1    30   125  0.546  0.484  0.470  0.366  0.365  0.378  0.408  0.398  0.000  0.000
 1988 300   116   132      5    192    406     1    30   125  0.495  0.490  0.462  0.364  0.363  0.374  0.407  0.398  0.000  0.000
 1988 301   117   127      5    192    406     1    30   125  0.470  0.480  0.452  0.362  0.361  0.371  0.407  0.398  0.000  0.000
 1988 302   118   121      5    192    406     1    30   125  0.447  0.467  0.441  0.359  0.358  0.367  0.406  0.398  0.000  0.000
 1988 303   119   115      5    192    406     1    30   125  0.430  0.452  0.430  0.357  0.356  0.365  0.406  0.398  0.000  0.000
 1988 304   120   113      5    192    406     1    30   125  0.426  0.444  0.427  0.356  0.356  0.364  0.405  0.397  0.000  0.000
 1988 305   121   168      5    192    436     2    60   125  0.553  0.553  0.560  0.464  0.373  0.361  0.405  0.397  0.000  0.000
 1988 306   122   163      5    192    436     2    60   125  0.527  0.540  0.544  0.443  0.393  0.360  0.404  0.397  0.000  0.000
 1988 307   123   157      5    192    436     2    60   125  0.516  0.529  0.535  0.432  0.390  0.359  0.404  0.397  0.000  0.000
 1988 308   124   151      5    192    436     2    60   125  0.501  0.518  0.525  0.422  0.384  0.358  0.404  0.397  0.000  0.000
 1988 309   125   145      5    192    436     2    60   125  0.486  0.507  0.514  0.413  0.380  0.357  0.403  0.397  0.000  0.000
 1988 310   126   139      5    192    436     2    60   125  0.469  0.494  0.503  0.402  0.375  0.356  0.403  0.397  0.000  0.000
 1988 311   127   132      5    192    436     2    60   125  0.450  0.481  0.491  0.392  0.372  0.354  0.402  0.397  0.000  0.000
 1988 312   128   125      5    192    436     2    60   125  0.433  0.467  0.478  0.381  0.368  0.353  0.402  0.397  0.000  0.000
 1988 313   129   120      5    192    436     2    60   125  0.421  0.455  0.468  0.376  0.366  0.352  0.401  0.396  0.000  0.000
 1988 314   130   114      5    192    436     2    60   125  0.406  0.441  0.454  0.370  0.363  0.351  0.398  0.396  0.000  0.000
 1988 315   131   109      5    192    436     2    60   125  0.398  0.431  0.445  0.367  0.361  0.350  0.394  0.396  0.000  0.000
 1988 316   132   150      5    192    450     3    91   125  0.560  0.561  0.559  0.389  0.359  0.350  0.389  0.396  0.000  0.000
 1988 317   133   164      5    192    470     3    91   125  0.548  0.560  0.557  0.466  0.396  0.349  0.384  0.395  0.000  0.000
 1988 318   134   158      5    192    470     3    91   125  0.521  0.545  0.543  0.446  0.412  0.349  0.378  0.395  0.000  0.000
 1988 319   135   151      5    192    470     3    91   125  0.516  0.530  0.536  0.434  0.408  0.348  0.373  0.394  0.000  0.000
 1988 320   136   145      5    192    470     3    91   125  0.504  0.520  0.527  0.426  0.401  0.348  0.370  0.394  0.000  0.000
 1988 321   137   139      5    192    470     3    91   125  0.490  0.510  0.517  0.417  0.393  0.348  0.366  0.393  0.000  0.000
 1988 322   138   132      5    192    470     3    91   125  0.473  0.498  0.507  0.408  0.385  0.347  0.363  0.392  0.000  0.000
 1988 323   139   129      5    192    470     3    91   125  0.473  0.492  0.502  0.404  0.383  0.347  0.363  0.392  0.000  0.000
 1988 324   140   139      5    192    486     3    91   125  0.549  0.558  0.516  0.396  0.379  0.346  0.360  0.391  0.000  0.000
 1988 325   141   134      5    192    486     3    91   125  0.526  0.538  0.516  0.390  0.375  0.346  0.359  0.390  0.000  0.000
 1988 326   142   145      5    192    498     3    91   125  0.571  0.556  0.554  0.399  0.374  0.346  0.359  0.390  0.000  0.000
 1988 327   143   151      5    192    510     3    91   125  0.544  0.563  0.556  0.444  0.380  0.345  0.357  0.389  0.000  0.000
 1988 328   144   145      5    192    510     3    91   125  0.517  0.550  0.541  0.430  0.390  0.344  0.355  0.388  0.000  0.000
 1988 329   145   139      5    192    510     3    91   125  0.510  0.530  0.533  0.421  0.383  0.344  0.353  0.386  0.000  0.000
 1988 330   146   132      5    192    510     3    91   125  0.495  0.516  0.521  0.412  0.379  0.343  0.352  0.384  0.000  0.000
 1988 331   147   128      5    192    510     3    91   125  0.489  0.507  0.514  0.407  0.377  0.343  0.351  0.381  0.000  0.000
 1988 332   148   122      5    192    510     3    91   125  0.471  0.496  0.504  0.398  0.374  0.342  0.350  0.378  0.000  0.000
 1988 333   149   116      5    192    510     3    91   125  0.454  0.485  0.494  0.391  0.371  0.342  0.349  0.373  0.000  0.000
 1988 334   150   109      5    192    510     3    91   125  0.443  0.474  0.484  0.383  0.369  0.341  0.348  0.367  0.000  0.000
 1988 335   151   103      5    192    510     3    91   125  0.421  0.462  0.473  0.377  0.366  0.341  0.347  0.361  0.000  0.000
 1988 336   152    97      5    192    510     3    91   125  0.408  0.450  0.463  0.373  0.364  0.340  0.346  0.357  0.000  0.000
 1988 337   153    91      5    192    510     3    91   125  0.392  0.437  0.451  0.369  0.361  0.340  0.344  0.352  0.000  0.000
 1988 338   154    84      5    192    510     3    91   125  0.373  0.422  0.436  0.364  0.358  0.339  0.343  0.347  0.000  0.000
 1988 339   155   110      5    192    510     4   124   125  0.547  0.558  0.478  0.359  0.355  0.338  0.341  0.342  0.000  0.000
 1988 340   156   101      5    192    510     4   124   125  0.498  0.525  0.471  0.357  0.352  0.337  0.339  0.338  0.000  0.000
 1988 341   157    95      5    192    510     4   124   125  0.482  0.499  0.461  0.356  0.351  0.336  0.338  0.336  0.000  0.000
 1988 342   158    91      5    192    510     4   124   125  0.469  0.485  0.455  0.355  0.350  0.336  0.337  0.334  0.000  0.000
 1988 343   159    90      5    192    514     4   124   125  0.524  0.472  0.446  0.354  0.349  0.335  0.336  0.333  0.000  0.000
 1988 344   160    84      5    192    514     4   124   125  0.468  0.467  0.434  0.352  0.347  0.334  0.335  0.331  0.000  0.000
 1988 345   161    78      5    192    514     4   124   125  0.428  0.451  0.423  0.350  0.346  0.334  0.334  0.329  0.000  0.000
 1988 346   162   100      5    192    514     5   154   125  0.529  0.544  0.489  0.347  0.344  0.333  0.332  0.327  0.000  0.000
 1988 347   163    98      5    192    514     5   154   125  0.528  0.526  0.489  0.349  0.343  0.333  0.332  0.326  0.000  0.000
 1988 348   164   125      5    192    547     5   154   125  0.527  0.550  0.557  0.444  0.346  0.332  0.331  0.325  0.000  0.000
 1988 349   165   118      5    192    547     5   154   125  0.498  0.529  0.540  0.429  0.358  0.331  0.330  0.324  0.000  0.000
 1988 350   166   110      5    192    547     5   154   125  0.474  0.513  0.525  0.416  0.357  0.331  0.329  0.323  0.000  0.000
 1988 351   167   103      5    192    547     5   154   125  0.450  0.497  0.511  0.405  0.357  0.331  0.329  0.322  0.000  0.000
 1988 352   168    98      5    192    547     5   154   125  0.436  0.485  0.501  0.398  0.356  0.330  0.328  0.321  0.000  0.000
 1988 353   169    91      5    192    547     5   154   125  0.403  0.470  0.488  0.387  0.355  0.330  0.327  0.320  0.000  0.000
 1988 354   170    86      5    192    547     5   154   125  0.387  0.457  0.477  0.380  0.354  0.330  0.327  0.320  0.000  0.000
 1988 355   171    83      5    192    551     5   154   125  0.440  0.442  0.463  0.373  0.352  0.329  0.326  0.319  0.000  0.000
 1988 356   172    76      5    192    551     5   154   125  0.389  0.431  0.449  0.368  0.351  0.329  0.326  0.318  0.000  0.000
 1988 357   173   101      5    192    551     6   184   125  0.543  0.559  0.488  0.365  0.350  0.328  0.325  0.317  0.000  0.000
 1988 358   174    95      5    192    551     6   184   125  0.490  0.531  0.485  0.363  0.348  0.328  0.324  0.316  0.000  0.000
 1988 359   175    87      5    192    551     6   184   125  0.454  0.500  0.473  0.360  0.347  0.327  0.324  0.315  0.000  0.000
 1988 360   176    80      5    192    551     6   184   125  0.423  0.475  0.458  0.358  0.345  0.327  0.323  0.315  0.000  0.000
 1988 361   177    73      5    192    551     6   184   125  0.382  0.455  0.445  0.356  0.344  0.326  0.322  0.314  0.000  0.000
 1988 362   178    69      5    192    551     6   184   125  0.365  0.442  0.437  0.355  0.344  0.326  0.322  0.313  0.000  0.000
 1988 363   179    95      5    192    551     7   215   125  0.534  0.552  0.486  0.353  0.343  0.326  0.321  0.313  0.000  0.000
 1988 364   180    88      5    192    551     7   215   125  0.477  0.523  0.481  0.353  0.342  0.325  0.321  0.312  0.000  0.000
 1988 365   181    81      5    192    551     7   215   125  0.445  0.495  0.470  0.352  0.341  0.325  0.320  0.312  0.000  0.000
 1988 366   182    74      5    192    551     7   215   125  0.395  0.472  0.457  0.351  0.340  0.325  0.320  0.311  0.000  0.000
 1989 001   183    68      5    192    551     7   215   125  0.378  0.449  0.441  0.349  0.339  0.324  0.319  0.310  0.000  0.000
 1989 002   184    89      5    192    551     8   245   125  0.500  0.548  0.484  0.348  0.338  0.324  0.319  0.309  0.000  0.000
 1989 003   185    82      5    192    551     8   245   125  0.458  0.510  0.476  0.348  0.337  0.323  0.318  0.309  0.000  0.000
 1989 004   186    74      5    192    551     8   245   125  0.411  0.483  0.462  0.347  0.336  0.323  0.318  0.308  0.000  0.000
 1989 005   187    68      5    192    551     8   245   125  0.394  0.459  0.447  0.346  0.335  0.322  0.317  0.308  0.000  0.000

*DSSAT Cropping System Model Ver. 4.0.2.000               Aug 03, 2016; 14:28:45

*RUN   3        : UYMZ                    
 MODEL          : MZCER040 - Maize           
 EXPERIMENT     : UYMZ0117 MZ    late to create DSS                             
 TREATMENT  1   : UYMZ                    

@YEAR DOY   DAS  SWXD   ROFC   DRNC   PREC  IR#C  IRRC  DTWT   SW1D   SW2D   SW3D   SW4D   SW5D   SW6D   SW7D   SW8D   SW9D   SW10
 1989 184     0   116      0      0      0     0     0   125  0.356  0.394  0.394  0.335  0.375  0.419  0.408  0.395  0.000  0.000
 1989 185     1   115      0      0      0     0     0   125  0.340  0.393  0.394  0.335  0.376  0.418  0.408  0.395  0.000  0.000
 1989 186     2   114      0      0      0     0     0   125  0.317  0.392  0.394  0.336  0.376  0.418  0.408  0.395  0.000  0.000
 1989 187     3   155      0      0      0     1    43   125  0.538  0.566  0.478  0.336  0.377  0.417  0.408  0.395  0.000  0.000
 1989 188     4   154      0      0      0     1    43   125  0.529  0.545  0.489  0.338  0.377  0.417  0.408  0.395  0.000  0.000
 1989 189     5   153      0      0      0     1    43   125  0.504  0.530  0.494  0.341  0.378  0.416  0.408  0.395  0.000  0.000
 1989 190     6   151      0      0      0     1    43   125  0.484  0.517  0.494  0.343  0.378  0.416  0.408  0.395  0.000  0.000
 1989 191     7   150      0      0      0     1    43   125  0.486  0.506  0.494  0.346  0.378  0.415  0.408  0.395  0.000  0.000
 1989 192     8   148      0      0      0     1    43   125  0.466  0.501  0.492  0.348  0.379  0.415  0.408  0.395  0.000  0.000
 1989 193     9   148      0      0      0     1    43   125  0.464  0.494  0.491  0.351  0.379  0.415  0.408  0.395  0.000  0.000
 1989 194    10   146      0      0      0     1    43   125  0.442  0.489  0.489  0.353  0.379  0.414  0.408  0.395  0.000  0.000
 1989 195    11   145      0      0      0     1    43   125  0.432  0.483  0.487  0.355  0.380  0.414  0.407  0.395  0.000  0.000
 1989 196    12   144      0      0      0     1    43   125  0.425  0.477  0.485  0.357  0.380  0.414  0.407  0.395  0.000  0.000
 1989 197    13   143      0      0      0     1    43   125  0.420  0.473  0.482  0.358  0.381  0.413  0.407  0.395  0.000  0.000
 1989 198    14   142      0      0      0     1    43   125  0.416  0.468  0.480  0.360  0.381  0.413  0.407  0.395  0.000  0.000
 1989 199    15   142      0      0      0     1    43   125  0.412  0.465  0.478  0.361  0.381  0.413  0.407  0.395  0.000  0.000
 1989 200    16   141      0      0      0     1    43   125  0.409  0.462  0.476  0.363  0.382  0.412  0.407  0.395  0.000  0.000
 1989 201    17   140      0      0      0     1    43   125  0.406  0.458  0.474  0.364  0.382  0.412  0.407  0.395  0.000  0.000
 1989 202    18   140      0      0      0     1    43   125  0.403  0.456  0.472  0.365  0.382  0.412  0.407  0.395  0.000  0.000
 1989 203    19   139      0      0      0     1    43   125  0.400  0.453  0.471  0.366  0.383  0.411  0.407  0.395  0.000  0.000
 1989 204    20   140      0      0      1     1    43   125  0.420  0.451  0.469  0.367  0.383  0.411  0.407  0.395  0.000  0.000
 1989 205    21   172      0      0     36     1    43   125  0.525  0.567  0.557  0.379  0.384  0.411  0.407  0.395  0.000  0.000
 1989 206    22   169      0      0     36     1    43   125  0.489  0.549  0.547  0.396  0.384  0.411  0.407  0.395  0.000  0.000
 1989 207    23   172      0      0     41     1    43   125  0.540  0.548  0.545  0.403  0.385  0.410  0.407  0.395  0.000  0.000
 1989 208    24   171      0      0     41     1    43   125  0.512  0.544  0.541  0.409  0.386  0.410  0.406  0.395  0.000  0.000
 1989 209    25   170      0      0     42     1    43   125  0.526  0.534  0.537  0.411  0.387  0.410  0.406  0.395  0.000  0.000
 1989 210    26   169      0      0     42     1    43   125  0.503  0.532  0.534  0.412  0.388  0.410  0.406  0.395  0.000  0.000
 1989 211    27   167      0      0     42     1    43   125  0.488  0.525  0.531  0.413  0.389  0.410  0.406  0.395  0.000  0.000
 1989 212    28   165      0      0     42     1    43   125  0.464  0.518  0.527  0.414  0.390  0.409  0.406  0.395  0.000  0.000
 1989 213    29   163      0      0     42     1    43   125  0.461  0.509  0.523  0.414  0.391  0.409  0.406  0.394  0.000  0.000
 1989 214    30   162      0      0     42     1    43   125  0.460  0.503  0.520  0.414  0.392  0.409  0.406  0.394  0.000  0.000
 1989 215    31   161      0      0     42     1    43   125  0.458  0.499  0.517  0.414  0.393  0.409  0.406  0.394  0.000  0.000
 1989 216    32   165      0      0     48     1    43   125  0.538  0.503  0.514  0.414  0.394  0.409  0.406  0.394  0.000  0.000
 1989 217    33   164      0      0     48     1    43   125  0.485  0.513  0.513  0.414  0.395  0.409  0.406  0.394  0.000  0.000
 1989 218    34   162      0      0     48     1    43   125  0.476  0.507  0.512  0.414  0.396  0.408  0.406  0.394  0.000  0.000
 1989 219    35   161      0      0     48     1    43   125  0.470  0.502  0.511  0.413  0.397  0.408  0.405  0.394  0.000  0.000
 1989 220    36   161      0      0     48     1    43   125  0.466  0.498  0.509  0.413  0.398  0.408  0.405  0.394  0.000  0.000
 1989 221    37   180      0      0     69     1    43   125  0.561  0.564  0.554  0.422  0.398  0.408  0.405  0.394  0.000  0.000
 1989 222    38   184      0      0     75     1    43   125  0.532  0.567  0.566  0.442  0.402  0.408  0.405  0.394  0.000  0.000
 1989 223    39   184      0      0     75     1    43   125  0.529  0.553  0.561  0.447  0.410  0.408  0.405  0.394  0.000  0.000
 1989 224    40   180      0      0     75     1    43   125  0.477  0.542  0.553  0.442  0.425  0.408  0.405  0.394  0.000  0.000
 1989 225    41   178      0      0     75     1    43   125  0.475  0.525  0.545  0.440  0.431  0.408  0.405  0.394  0.000  0.000
 1989 226    42   176      0      0     75     1    43   125  0.456  0.518  0.540  0.440  0.431  0.408  0.405  0.394  0.000  0.000
 1989 227    43   174      0      0     75     1    43   125  0.455  0.510  0.535  0.440  0.431  0.409  0.405  0.394  0.000  0.000
 1989 228    44   173      0      0     75     1    43   125  0.455  0.505  0.530  0.439  0.430  0.409  0.405  0.394  0.000  0.000
 1989 229    45   171      0      0     75     1    43   125  0.454  0.500  0.526  0.438  0.430  0.409  0.405  0.394  0.000  0.000
 1989 230    46   170      0      0     75     1    43   125  0.453  0.496  0.522  0.436  0.430  0.409  0.405  0.394  0.000  0.000
 1989 231    47   169      0      0     75     1    43   125  0.452  0.494  0.519  0.435  0.430  0.409  0.405  0.394  0.000  0.000
 1989 232    48   187      0      0     94     1    43   125  0.562  0.565  0.549  0.439  0.431  0.409  0.404  0.394  0.000  0.000
 1989 233    49   188      0      0     96     1    43   125  0.549  0.566  0.552  0.443  0.433  0.410  0.404  0.394  0.000  0.000
 1989 234    50   222      1      7    140     1    43   125  0.548  0.567  0.567  0.470  0.460  0.447  0.439  0.432  0.000  0.000
 1989 235    51   205      1     22    140     1    43   125  0.502  0.555  0.556  0.457  0.449  0.436  0.427  0.417  0.000  0.000
 1989 236    52   195      1     30    140     1    43   125  0.504  0.534  0.549  0.449  0.442  0.429  0.419  0.408  0.000  0.000
 1989 237    53   188      1     35    140     1    43   125  0.477  0.525  0.541  0.445  0.437  0.425  0.415  0.403  0.000  0.000
 1989 238    54   183      1     37    140     1    43   125  0.467  0.517  0.535  0.442  0.435  0.423  0.412  0.400  0.000  0.000
 1989 239    55   179      1     39    140     1    43   125  0.453  0.509  0.530  0.439  0.433  0.421  0.410  0.398  0.000  0.000
 1989 240    56   177      1     39    140     1    43   125  0.450  0.502  0.524  0.438  0.433  0.421  0.410  0.398  0.000  0.000
 1989 241    57   175      1     39    140     1    43   125  0.447  0.496  0.520  0.436  0.433  0.421  0.410  0.398  0.000  0.000
 1989 242    58   174      1     39    140     1    43   125  0.445  0.492  0.516  0.435  0.433  0.421  0.410  0.398  0.000  0.000
 1989 243    59   196      1     39    164     1    43   125  0.558  0.565  0.565  0.445  0.435  0.421  0.411  0.398  0.000  0.000
 1989 244    60   189      1     43    164     1    43   125  0.486  0.554  0.554  0.442  0.434  0.421  0.411  0.398  0.000  0.000
 1989 245    61   185      1     44    164     1    43   125  0.474  0.530  0.546  0.440  0.434  0.421  0.411  0.398  0.000  0.000
 1989 246    62   181      1     44    164     1    43   125  0.452  0.519  0.538  0.440  0.434  0.421  0.411  0.398  0.000  0.000
 1989 247    63   179      1     44    164     1    43   125  0.452  0.509  0.531  0.439  0.434  0.421  0.411  0.398  0.000  0.000
 1989 248    64   178      1     44    164     1    43   125  0.452  0.504  0.527  0.438  0.434  0.421  0.411  0.398  0.000  0.000
 1989 249    65   186      1     44    176     1    43   125  0.528  0.551  0.528  0.436  0.434  0.421  0.411  0.398  0.000  0.000
 1989 250    66   182      1     44    176     1    43   125  0.478  0.535  0.530  0.435  0.433  0.421  0.411  0.398  0.000  0.000
 1989 251    67   179      1     44    176     1    43   125  0.464  0.518  0.527  0.434  0.433  0.421  0.411  0.398  0.000  0.000
 1989 252    68   177      1     44    176     1    43   125  0.452  0.508  0.522  0.433  0.433  0.421  0.411  0.398  0.000  0.000
 1989 253    69   175      1     44    176     1    43   125  0.448  0.500  0.519  0.432  0.433  0.421  0.411  0.398  0.000  0.000
 1989 254    70   180      1     44    182     1    43   125  0.559  0.500  0.515  0.431  0.433  0.421  0.411  0.398  0.000  0.000
 1989 255    71   179      1     44    182     1    43   125  0.507  0.515  0.515  0.430  0.432  0.421  0.411  0.398  0.000  0.000
 1989 256    72   178      1     44    183     1    43   125  0.509  0.512  0.514  0.429  0.432  0.421  0.411  0.398  0.000  0.000
 1989 257    73   176      1     44    183     1    43   125  0.485  0.510  0.513  0.428  0.431  0.421  0.411  0.398  0.000  0.000
 1989 258    74   175      1     44    186     1    43   125  0.506  0.502  0.508  0.427  0.431  0.421  0.411  0.398  0.000  0.000
 1989 259    75   173      1     44    186     1    43   125  0.466  0.501  0.505  0.426  0.430  0.421  0.411  0.398  0.000  0.000
 1989 260    76   170      1     44    186     1    43   125  0.452  0.492  0.500  0.424  0.430  0.421  0.411  0.398  0.000  0.000
 1989 261    77   167      1     44    186     1    43   125  0.442  0.483  0.494  0.422  0.429  0.421  0.411  0.398  0.000  0.000
 1989 262    78   164      1     44    186     1    43   125  0.433  0.474  0.488  0.419  0.428  0.421  0.411  0.398  0.000  0.000
 1989 263    79   162      1     44    186     1    43   125  0.425  0.466  0.481  0.416  0.427  0.421  0.411  0.398  0.000  0.000
 1989 264    80   159      1     44    186     1    43   125  0.418  0.458  0.476  0.413  0.426  0.421  0.411  0.398  0.000  0.000
 1989 265    81   183      1     44    212     1    43   125  0.559  0.564  0.523  0.412  0.425  0.421  0.411  0.398  0.000  0.000
 1989 266    82   209      1     45    240     1    43   125  0.552  0.561  0.567  0.471  0.460  0.433  0.419  0.401  0.000  0.000
 1989 267    83   198      1     54    240     1    43   125  0.529  0.551  0.555  0.456  0.448  0.427  0.415  0.399  0.000  0.000
 1989 268    84   191      1     59    240     1    43   125  0.516  0.539  0.546  0.447  0.441  0.424  0.412  0.397  0.000  0.000
 1989 269    85   185      1     61    240     1    43   125  0.503  0.528  0.538  0.441  0.436  0.422  0.410  0.397  0.000  0.000
 1989 270    86   181      1     62    240     1    43   125  0.481  0.518  0.529  0.436  0.433  0.422  0.410  0.397  0.000  0.000
 1989 271    87   178      1     62    240     1    43   125  0.471  0.509  0.524  0.433  0.432  0.422  0.410  0.397  0.000  0.000
 1989 272    88   173      1     62    240     1    43   125  0.441  0.499  0.516  0.429  0.431  0.422  0.410  0.397  0.000  0.000
 1989 273    89   170      1     62    240     1    43   125  0.430  0.488  0.509  0.425  0.429  0.422  0.410  0.397  0.000  0.000
 1989 274    90   167      1     62    240     1    43   125  0.423  0.479  0.502  0.421  0.427  0.422  0.410  0.397  0.000  0.000
 1989 275    91   165      1     62    240     1    43   125  0.417  0.473  0.498  0.419  0.425  0.422  0.410  0.397  0.000  0.000
 1989 276    92   161      1     62    240     1    43   125  0.412  0.464  0.490  0.414  0.423  0.422  0.410  0.397  0.000  0.000
 1989 277    93   157      1     62    240     1    43   125  0.406  0.456  0.482  0.408  0.419  0.422  0.410  0.397  0.000  0.000
 1989 278    94   153      1     62    240     1    43   125  0.400  0.448  0.475  0.402  0.415  0.421  0.410  0.397  0.000  0.000
 1989 279    95   150      1     62    240     1    43   125  0.394  0.441  0.468  0.396  0.411  0.421  0.410  0.397  0.000  0.000
 1989 280    96   150      1     62    244     1    43   125  0.454  0.435  0.463  0.392  0.408  0.421  0.410  0.397  0.000  0.000
 1989 281    97   147      1     62    244     1    43   125  0.433  0.434  0.457  0.387  0.404  0.420  0.410  0.397  0.000  0.000
 1989 282    98   143      1     62    244     1    43   125  0.417  0.430  0.450  0.382  0.398  0.420  0.410  0.397  0.000  0.000
 1989 283    99   140      1     62    244     1    43   125  0.405  0.427  0.444  0.379  0.393  0.419  0.410  0.397  0.000  0.000
 1989 284   100   167      1     62    244     2    73   125  0.555  0.565  0.494  0.377  0.390  0.418  0.410  0.397  0.000  0.000
 1989 285   101   167      1     62    245     2    73   125  0.553  0.549  0.504  0.377  0.388  0.418  0.410  0.397  0.000  0.000
 1989 286   102   164      1     62    245     2    73   125  0.532  0.534  0.506  0.377  0.385  0.417  0.410  0.397  0.000  0.000
 1989 287   103   159      1     62    245     2    73   125  0.506  0.521  0.500  0.376  0.381  0.415  0.410  0.397  0.000  0.000
 1989 288   104   154      1     62    245     2    73   125  0.487  0.506  0.493  0.374  0.378  0.413  0.410  0.397  0.000  0.000
 1989 289   105   149      1     62    245     2    73   125  0.466  0.492  0.484  0.372  0.375  0.411  0.410  0.397  0.000  0.000
 1989 290   106   146      1     62    245     2    73   125  0.458  0.482  0.478  0.371  0.374  0.409  0.410  0.397  0.000  0.000
 1989 291   107   142      1     62    245     2    73   125  0.451  0.472  0.471  0.369  0.372  0.407  0.410  0.397  0.000  0.000
 1989 292   108   137      1     62    245     2    73   125  0.429  0.461  0.461  0.367  0.370  0.403  0.410  0.397  0.000  0.000
 1989 293   109   131      1     62    245     2    73   125  0.411  0.449  0.452  0.365  0.367  0.399  0.409  0.397  0.000  0.000
 1989 294   110   127      1     62    245     2    73   125  0.403  0.440  0.445  0.364  0.366  0.396  0.409  0.397  0.000  0.000
 1989 295   111   151      1     62    245     3   103   125  0.552  0.556  0.490  0.361  0.364  0.391  0.409  0.397  0.000  0.000
 1989 296   112   145      1     62    245     3   103   125  0.526  0.530  0.488  0.360  0.362  0.387  0.408  0.397  0.000  0.000
 1989 297   113   143      1     62    245     3   103   125  0.524  0.519  0.487  0.361  0.362  0.386  0.408  0.397  0.000  0.000
 1989 298   114   188      2     62    292     3   103   125  0.558  0.561  0.566  0.470  0.434  0.386  0.407  0.397  0.000  0.000
 1989 299   115   215      2     63    325     3   103   125  0.556  0.563  0.563  0.465  0.455  0.446  0.436  0.409  0.000  0.000
 1989 300   116   198      2     75    325     3   103   125  0.535  0.548  0.548  0.448  0.439  0.431  0.425  0.403  0.000  0.000
 1989 301   117   188      2     80    325     3   103   125  0.524  0.537  0.540  0.438  0.430  0.421  0.418  0.400  0.000  0.000
 1989 302   118   181      2     81    325     3   103   125  0.517  0.527  0.533  0.431  0.423  0.416  0.414  0.398  0.000  0.000
 1989 303   119   178      2     81    325     3   103   125  0.517  0.523  0.529  0.428  0.421  0.414  0.412  0.398  0.000  0.000
 1989 304   120   173      2     82    325     3   103   125  0.506  0.517  0.522  0.423  0.415  0.410  0.410  0.398  0.000  0.000
 1989 305   121   167      2     82    325     3   103   125  0.496  0.510  0.515  0.417  0.410  0.405  0.410  0.398  0.000  0.000
 1989 306   122   165      2     82    325     3   103   125  0.498  0.506  0.512  0.415  0.408  0.404  0.410  0.398  0.000  0.000
 1989 307   123   204      2     82    367     3   103   125  0.564  0.564  0.564  0.467  0.458  0.423  0.413  0.399  0.000  0.000
 1989 308   124   191      2     89    367     3   103   125  0.537  0.549  0.549  0.449  0.441  0.416  0.411  0.397  0.000  0.000
 1989 309   125   184      2     91    367     3   103   125  0.524  0.538  0.540  0.439  0.431  0.414  0.409  0.397  0.000  0.000
 1989 310   126   178      2     91    367     3   103   125  0.518  0.529  0.534  0.433  0.425  0.408  0.408  0.397  0.000  0.000
 1989 311   127   175      2     91    367     3   103   125  0.517  0.524  0.530  0.430  0.422  0.405  0.407  0.397  0.000  0.000
 1989 312   128   169      2     91    367     3   103   125  0.506  0.518  0.523  0.424  0.417  0.400  0.405  0.397  0.000  0.000
 1989 313   129   163      2     91    367     3   103   125  0.495  0.510  0.516  0.418  0.411  0.394  0.402  0.397  0.000  0.000
 1989 314   130   157      2     91    367     3   103   125  0.487  0.503  0.510  0.413  0.405  0.390  0.398  0.397  0.000  0.000
 1989 315   131   155      2     91    367     3   103   125  0.489  0.499  0.507  0.411  0.403  0.389  0.397  0.397  0.000  0.000
 1989 316   132   190      2     91    404     3   103   125  0.568  0.565  0.565  0.468  0.445  0.393  0.396  0.397  0.000  0.000
 1989 317   133   203      2     91    422     3   103   125  0.555  0.563  0.563  0.465  0.456  0.429  0.408  0.396  0.000  0.000
 1989 318   134   191      2     97    422     3   103   125  0.533  0.550  0.550  0.449  0.440  0.419  0.404  0.396  0.000  0.000
 1989 319   135   183      2     98    422     3   103   125  0.523  0.538  0.542  0.439  0.432  0.413  0.403  0.396  0.000  0.000
 1989 320   136   177      2     98    422     3   103   125  0.518  0.529  0.536  0.434  0.426  0.408  0.398  0.396  0.000  0.000
 1989 321   137   171      2     98    422     3   103   125  0.509  0.523  0.529  0.429  0.421  0.403  0.394  0.396  0.000  0.000
 1989 322   138   164      2     98    422     3   103   125  0.499  0.515  0.522  0.423  0.416  0.398  0.389  0.396  0.000  0.000
 1989 323   139   159      2     98    422     3   103   125  0.492  0.508  0.516  0.419  0.411  0.393  0.385  0.395  0.000  0.000
 1989 324   140   154      2     98    422     3   103   125  0.486  0.502  0.511  0.415  0.407  0.390  0.382  0.395  0.000  0.000
 1989 325   141   149      2     98    422     3   103   125  0.476  0.495  0.504  0.409  0.402  0.386  0.378  0.394  0.000  0.000
 1989 326   142   142      2     98    422     3   103   125  0.463  0.487  0.497  0.403  0.395  0.382  0.374  0.394  0.000  0.000
 1989 327   143   153      2     98    438     3   103   125  0.557  0.560  0.510  0.397  0.389  0.379  0.372  0.393  0.000  0.000
 1989 328   144   154      2     98    445     3   103   125  0.546  0.554  0.543  0.395  0.384  0.376  0.369  0.392  0.000  0.000
 1989 329   145   149      2     98    445     3   103   125  0.526  0.543  0.534  0.396  0.381  0.374  0.367  0.390  0.000  0.000
 1989 330   146   144      2     98    445     3   103   125  0.522  0.530  0.526  0.392  0.378  0.372  0.365  0.388  0.000  0.000
 1989 331   147   138      2     98    445     3   103   125  0.509  0.520  0.517  0.387  0.375  0.370  0.363  0.386  0.000  0.000
 1989 332   148   132      2     98    445     3   103   125  0.493  0.509  0.507  0.382  0.372  0.367  0.361  0.383  0.000  0.000
 1989 333   149   127      2     98    445     3   103   125  0.482  0.498  0.498  0.380  0.370  0.366  0.359  0.380  0.000  0.000
 1989 334   150   121      2     98    445     3   103   125  0.464  0.486  0.487  0.376  0.367  0.364  0.357  0.377  0.000  0.000
 1989 335   151   114      2     98    445     3   103   125  0.445  0.473  0.477  0.372  0.365  0.362  0.355  0.373  0.000  0.000
 1989 336   152   110      2     98    445     3   103   125  0.434  0.463  0.468  0.370  0.363  0.360  0.354  0.370  0.000  0.000
 1989 337   153   129      2     98    468     3   103   125  0.558  0.559  0.500  0.368  0.362  0.359  0.353  0.367  0.000  0.000
 1989 338   154   127      2     98    473     3   103   125  0.539  0.549  0.513  0.367  0.360  0.357  0.351  0.364  0.000  0.000
 1989 339   155   121      2     98    473     3   103   125  0.515  0.528  0.506  0.366  0.358  0.356  0.349  0.361  0.000  0.000
 1989 340   156   116      2     98    473     3   103   125  0.500  0.511  0.497  0.365  0.356  0.354  0.348  0.359  0.000  0.000
 1989 341   157   110      2     98    473     3   103   125  0.477  0.496  0.485  0.364  0.355  0.353  0.346  0.357  0.000  0.000
 1989 342   158   103      2     98    473     3   103   125  0.451  0.479  0.472  0.362  0.353  0.351  0.345  0.354  0.000  0.000
 1989 343   159    99      2     98    473     3   103   125  0.437  0.466  0.463  0.361  0.352  0.350  0.344  0.353  0.000  0.000
 1989 344   160    92      2     98    473     3   103   125  0.409  0.449  0.449  0.358  0.350  0.349  0.342  0.350  0.000  0.000
 1989 345   161    85      2     98    473     3   103   125  0.388  0.431  0.433  0.355  0.349  0.347  0.341  0.348  0.000  0.000
 1989 346   162   109      2     98    473     4   135   125  0.544  0.551  0.480  0.352  0.346  0.345  0.339  0.346  0.000  0.000
 1989 347   163   102      2     98    473     4   135   125  0.503  0.523  0.473  0.351  0.345  0.344  0.337  0.344  0.000  0.000
 1989 348   164    95      2     98    473     4   135   125  0.473  0.497  0.460  0.350  0.344  0.342  0.336  0.343  0.000  0.000
 1989 349   165    87      2     98    473     4   135   125  0.437  0.474  0.446  0.349  0.342  0.341  0.335  0.341  0.000  0.000
 1989 350   166    81      2     98    473     4   135   125  0.413  0.455  0.433  0.348  0.341  0.340  0.334  0.340  0.000  0.000
 1989 351   167   142      2     98    538     4   135   125  0.555  0.554  0.561  0.469  0.390  0.340  0.333  0.339  0.000  0.000
 1989 352   168   136      2     98    538     4   135   125  0.512  0.541  0.545  0.447  0.409  0.339  0.333  0.338  0.000  0.000
 1989 353   169   129      2     98    538     4   135   125  0.494  0.524  0.533  0.434  0.406  0.339  0.332  0.337  0.000  0.000
 1989 354   170   122      2     98    538     4   135   125  0.469  0.511  0.523  0.425  0.398  0.339  0.332  0.337  0.000  0.000
 1989 355   171   116      2     98    538     4   135   125  0.456  0.497  0.512  0.416  0.390  0.338  0.331  0.336  0.000  0.000
 1989 356   172   109      2     98    538     4   135   125  0.423  0.485  0.502  0.407  0.384  0.338  0.331  0.335  0.000  0.000
 1989 357   173   102      2     98    538     4   135   125  0.401  0.471  0.490  0.397  0.379  0.337  0.330  0.335  0.000  0.000
 1989 358   174    96      2     98    538     4   135   125  0.388  0.457  0.479  0.387  0.374  0.337  0.330  0.334  0.000  0.000
 1989 359   175    93      2     98    538     4   135   125  0.383  0.451  0.474  0.385  0.373  0.337  0.329  0.334  0.000  0.000
 1989 360   176    89      2     98    538     4   135   125  0.374  0.441  0.465  0.379  0.370  0.337  0.329  0.333  0.000  0.000
 1989 361   177    85      2     98    538     4   135   125  0.365  0.433  0.457  0.376  0.368  0.336  0.329  0.333  0.000  0.000
 1989 362   178   110      2     98    538     5   165   125  0.535  0.559  0.489  0.372  0.365  0.336  0.328  0.332  0.000  0.000
 1989 363   179   106      2     98    538     5   165   125  0.503  0.533  0.492  0.370  0.364  0.336  0.328  0.332  0.000  0.000
 1989 364   180   101      2     98    538     5   165   125  0.479  0.511  0.486  0.369  0.362  0.335  0.328  0.331  0.000  0.000
 1989 365   181    95      2     98    538     5   165   125  0.452  0.492  0.477  0.367  0.360  0.335  0.327  0.331  0.000  0.000
 1990 001   182    89      2     98    538     5   165   125  0.404  0.475  0.468  0.365  0.358  0.334  0.327  0.330  0.000  0.000
 1990 002   183    83      2     98    538     5   165   125  0.388  0.457  0.456  0.363  0.356  0.334  0.326  0.330  0.000  0.000
 1990 003   184    78      2     98    538     5   165   125  0.375  0.440  0.443  0.360  0.354  0.333  0.326  0.329  0.000  0.000
 1990 004   185   101      2     98    538     6   195   125  0.507  0.551  0.485  0.357  0.352  0.333  0.325  0.328  0.000  0.000

*DSSAT Cropping System Model Ver. 4.0.2.000               Aug 03, 2016; 14:28:45

*RUN   4        : UYMZ                    
 MODEL          : MZCER040 - Maize           
 EXPERIMENT     : UYMZ0117 MZ    late to create DSS                             
 TREATMENT  1   : UYMZ                    

@YEAR DOY   DAS  SWXD   ROFC   DRNC   PREC  IR#C  IRRC  DTWT   SW1D   SW2D   SW3D   SW4D   SW5D   SW6D   SW7D   SW8D   SW9D   SW10
 1990 184     0   117      0      0      0     0     0   125  0.378  0.394  0.394  0.335  0.375  0.419  0.408  0.395  0.000  0.000
 1990 185     1   116      0      0      0     0     0   125  0.359  0.393  0.394  0.335  0.376  0.418  0.408  0.395  0.000  0.000
 1990 186     2   115      0      0      0     0     0   125  0.345  0.393  0.394  0.336  0.376  0.418  0.408  0.395  0.000  0.000
 1990 187     3   156      0      0      0     1    42   125  0.546  0.567  0.480  0.336  0.377  0.417  0.408  0.395  0.000  0.000
 1990 188     4   155      0      0      0     1    42   125  0.528  0.547  0.492  0.338  0.377  0.417  0.408  0.395  0.000  0.000
 1990 189     5   154      0      0      0     1    42   125  0.521  0.530  0.497  0.341  0.378  0.416  0.408  0.395  0.000  0.000
 1990 190     6   156      0      0      3     1    42   125  0.546  0.529  0.498  0.344  0.378  0.416  0.408  0.395  0.000  0.000
 1990 191     7   154      0      0      3     1    42   125  0.503  0.529  0.500  0.347  0.378  0.415  0.408  0.395  0.000  0.000
 1990 192     8   151      0      0      3     1    42   125  0.464  0.517  0.500  0.349  0.379  0.415  0.408  0.395  0.000  0.000
 1990 193     9   149      0      0      3     1    42   125  0.453  0.504  0.498  0.352  0.379  0.415  0.408  0.395  0.000  0.000
 1990 194    10   147      0      0      3     1    42   125  0.426  0.495  0.496  0.354  0.380  0.414  0.408  0.395  0.000  0.000
 1990 195    11   146      0      0      3     1    42   125  0.418  0.486  0.493  0.356  0.380  0.414  0.407  0.395  0.000  0.000
 1990 196    12   145      0      0      3     1    42   125  0.414  0.480  0.490  0.358  0.380  0.414  0.407  0.395  0.000  0.000
 1990 197    13   151      0      0     11     1    42   125  0.550  0.480  0.488  0.360  0.381  0.413  0.407  0.395  0.000  0.000
 1990 198    14   150      0      0     11     1    42   125  0.493  0.495  0.487  0.362  0.381  0.413  0.407  0.395  0.000  0.000
 1990 199    15   155      0      0     18     1    42   125  0.526  0.526  0.486  0.364  0.382  0.413  0.407  0.395  0.000  0.000
 1990 200    16   153      0      0     18     1    42   125  0.485  0.520  0.488  0.365  0.382  0.412  0.407  0.395  0.000  0.000
 1990 201    17   151      0      0     18     1    42   125  0.466  0.508  0.489  0.367  0.382  0.412  0.407  0.395  0.000  0.000
 1990 202    18   149      0      0     18     1    42   125  0.452  0.498  0.489  0.369  0.383  0.412  0.407  0.395  0.000  0.000
 1990 203    19   147      0      0     18     1    42   125  0.428  0.490  0.487  0.370  0.383  0.412  0.407  0.395  0.000  0.000
 1990 204    20   146      0      0     18     1    42   125  0.417  0.482  0.486  0.372  0.384  0.411  0.407  0.395  0.000  0.000
 1990 205    21   145      0      0     18     1    42   125  0.410  0.476  0.484  0.373  0.384  0.411  0.407  0.395  0.000  0.000
 1990 206    22   144      0      0     18     1    42   125  0.405  0.470  0.482  0.374  0.384  0.411  0.407  0.395  0.000  0.000
 1990 207    23   143      0      0     18     1    42   125  0.401  0.466  0.480  0.375  0.385  0.410  0.407  0.395  0.000  0.000
 1990 208    24   142      0      0     18     1    42   125  0.397  0.462  0.478  0.376  0.385  0.410  0.406  0.395  0.000  0.000
 1990 209    25   142      0      0     18     1    42   125  0.394  0.458  0.477  0.377  0.385  0.410  0.406  0.395  0.000  0.000
 1990 210    26   141      0      0     18     1    42   125  0.391  0.455  0.475  0.378  0.386  0.410  0.406  0.395  0.000  0.000
 1990 211    27   140      0      0     18     1    42   125  0.388  0.452  0.473  0.378  0.386  0.410  0.406  0.395  0.000  0.000
 1990 212    28   140      0      0     18     1    42   125  0.386  0.450  0.472  0.379  0.387  0.409  0.406  0.395  0.000  0.000
 1990 213    29   139      0      0     18     1    42   125  0.384  0.447  0.470  0.380  0.387  0.409  0.406  0.394  0.000  0.000
[...]
 1994 215    31   202     36    110    231     1    43   125  0.499  0.545  0.557  0.457  0.449  0.434  0.425  0.410  0.000  0.000
 1994 216    32   193     36    117    231     1    43   125  0.489  0.532  0.549  0.449  0.442  0.428  0.418  0.404  0.000  0.000
 1994 217    33   186     36    121    231     1    43   125  0.464  0.524  0.542  0.445  0.437  0.424  0.414  0.400  0.000  0.000
 1994 218    34   182     36    124    231     1    43   125  0.465  0.516  0.537  0.442  0.435  0.422  0.412  0.398  0.000  0.000
 1994 219    35   180     36    125    231     1    43   125  0.467  0.511  0.533  0.440  0.433  0.421  0.410  0.397  0.000  0.000
 1994 220    36   179     36    125    231     1    43   125  0.467  0.508  0.530  0.439  0.433  0.421  0.410  0.397  0.000  0.000
 1994 221    37   185     36    125    238     1    43   125  0.567  0.525  0.527  0.437  0.433  0.421  0.410  0.397  0.000  0.000
 1994 222    38   182     36    125    238     1    43   125  0.489  0.535  0.528  0.437  0.433  0.421  0.410  0.397  0.000  0.000
 1994 223    39   181     36    125    238     1    43   125  0.491  0.521  0.527  0.436  0.433  0.421  0.410  0.397  0.000  0.000
 1994 224    40   179     36    125    238     1    43   125  0.485  0.515  0.525  0.435  0.433  0.421  0.410  0.397  0.000  0.000
 1994 225    41   178     36    125    238     1    43   125  0.481  0.510  0.523  0.434  0.433  0.421  0.410  0.397  0.000  0.000
 1994 226    42   177     36    125    238     1    43   125  0.478  0.506  0.521  0.433  0.433  0.421  0.410  0.397  0.000  0.000
 1994 227    43   176     36    125    238     1    43   125  0.475  0.503  0.519  0.433  0.432  0.421  0.410  0.397  0.000  0.000
 1994 228    44   175     36    125    238     1    43   125  0.473  0.500  0.517  0.432  0.432  0.421  0.410  0.397  0.000  0.000
 1994 229    45   175     36    125    238     1    43   125  0.471  0.498  0.515  0.431  0.432  0.421  0.410  0.397  0.000  0.000
 1994 230    46   174     36    125    238     1    43   125  0.469  0.496  0.513  0.430  0.431  0.421  0.410  0.397  0.000  0.000
 1994 231    47   173     36    125    238     1    43   125  0.468  0.494  0.512  0.430  0.431  0.421  0.410  0.397  0.000  0.000
 1994 232    48   173     36    125    238     1    43   125  0.466  0.492  0.510  0.429  0.430  0.421  0.410  0.397  0.000  0.000
 1994 233    49   172     36    125    238     1    43   125  0.465  0.491  0.509  0.428  0.430  0.421  0.410  0.397  0.000  0.000
 1994 234    50   171     36    125    238     1    43   125  0.463  0.489  0.508  0.427  0.430  0.421  0.410  0.397  0.000  0.000
 1994 235    51   171     36    125    238     1    43   125  0.462  0.487  0.505  0.427  0.429  0.421  0.410  0.397  0.000  0.000
 1994 236    52   170     36    125    238     1    43   125  0.461  0.485  0.504  0.426  0.429  0.421  0.410  0.397  0.000  0.000
 1994 237    53   169     36    125    238     1    43   125  0.459  0.484  0.502  0.425  0.429  0.421  0.410  0.397  0.000  0.000
 1994 238    54   169     36    125    238     1    43   125  0.458  0.482  0.501  0.425  0.428  0.421  0.410  0.397  0.000  0.000
 1994 239    55   168     36    125    238     1    43   125  0.456  0.481  0.499  0.424  0.428  0.421  0.410  0.397  0.000  0.000
 1994 240    56   180     36    125    251     1    43   125  0.546  0.548  0.502  0.423  0.427  0.421  0.410  0.397  0.000  0.000
 1994 241    57   178     36    125    251     1    43   125  0.514  0.538  0.509  0.423  0.427  0.421  0.410  0.397  0.000  0.000
 1994 242    58   177     36    125    251     1    43   125  0.512  0.524  0.511  0.423  0.427  0.421  0.410  0.397  0.000  0.000
 1994 243    59   179     36    125    254     1    43   125  0.548  0.524  0.512  0.423  0.426  0.421  0.410  0.397  0.000  0.000
 1994 244    60   222     37    134    309     1    43   125  0.534  0.571  0.570  0.470  0.460  0.447  0.439  0.432  0.000  0.000
 1994 245    61   220     37    138    313     1    43   125  0.546  0.563  0.567  0.469  0.460  0.442  0.439  0.432  0.000  0.000
 1994 246    62   203     37    152    313     1    43   125  0.480  0.553  0.554  0.456  0.449  0.433  0.427  0.417  0.000  0.000
 1994 247    63   192     37    160    313     1    43   125  0.470  0.528  0.545  0.449  0.442  0.427  0.419  0.408  0.000  0.000
 1994 248    64   185     37    164    313     1    43   125  0.454  0.518  0.538  0.444  0.437  0.424  0.415  0.403  0.000  0.000
 1994 249    65   180     37    166    313     1    43   125  0.453  0.510  0.531  0.441  0.435  0.422  0.412  0.400  0.000  0.000
 1994 250    66   178     37    167    313     1    43   125  0.453  0.503  0.525  0.439  0.433  0.422  0.410  0.398  0.000  0.000
 1994 251    67   176     37    167    313     1    43   125  0.452  0.498  0.520  0.437  0.433  0.422  0.410  0.398  0.000  0.000
 1994 252    68   175     37    167    313     1    43   125  0.451  0.494  0.516  0.436  0.433  0.422  0.410  0.398  0.000  0.000
 1994 253    69   174     37    167    313     1    43   125  0.450  0.490  0.513  0.434  0.433  0.422  0.410  0.398  0.000  0.000
 1994 254    70   173     37    167    313     1    43   125  0.448  0.487  0.510  0.432  0.433  0.422  0.410  0.398  0.000  0.000
 1994 255    71   180     37    167    322     1    43   125  0.556  0.515  0.508  0.431  0.432  0.422  0.410  0.398  0.000  0.000
 1994 256    72   177     37    167    322     1    43   125  0.484  0.523  0.509  0.430  0.432  0.422  0.410  0.398  0.000  0.000
 1994 257    73   184     37    167    330     1    43   125  0.565  0.543  0.515  0.429  0.432  0.422  0.410  0.398  0.000  0.000
 1994 258    74   181     37    167    330     1    43   125  0.504  0.536  0.519  0.428  0.431  0.422  0.410  0.398  0.000  0.000
 1994 259    75   178     37    167    330     1    43   125  0.484  0.521  0.516  0.427  0.431  0.422  0.410  0.398  0.000  0.000
 1994 260    76   174     37    167    330     1    43   125  0.457  0.510  0.512  0.425  0.430  0.422  0.410  0.398  0.000  0.000
 1994 261    77   171     37    167    330     1    43   125  0.450  0.498  0.506  0.423  0.430  0.422  0.410  0.398  0.000  0.000
 1994 262    78   169     37    167    330     1    43   125  0.444  0.489  0.499  0.421  0.429  0.422  0.410  0.398  0.000  0.000
 1994 263    79   166     37    167    330     1    43   125  0.438  0.480  0.491  0.418  0.428  0.422  0.410  0.398  0.000  0.000
 1994 264    80   163     37    167    330     1    43   125  0.432  0.474  0.486  0.416  0.427  0.422  0.410  0.398  0.000  0.000
 1994 265    81   161     37    167    330     1    43   125  0.427  0.468  0.480  0.413  0.426  0.422  0.410  0.398  0.000  0.000
 1994 266    82   157     37    167    330     1    43   125  0.421  0.459  0.469  0.408  0.424  0.422  0.410  0.398  0.000  0.000
 1994 267    83   179     37    167    353     1    43   125  0.562  0.564  0.502  0.407  0.423  0.422  0.410  0.398  0.000  0.000
 1994 268    84   178     37    167    353     1    43   125  0.541  0.546  0.512  0.406  0.422  0.422  0.410  0.398  0.000  0.000
 1994 269    85   173     37    167    353     1    43   125  0.507  0.533  0.507  0.404  0.419  0.421  0.410  0.398  0.000  0.000
 1994 270    86   169     37    167    353     1    43   125  0.495  0.517  0.501  0.400  0.415  0.421  0.410  0.398  0.000  0.000
 1994 271    87   169     37    167    357     1    43   125  0.543  0.513  0.496  0.397  0.411  0.421  0.410  0.398  0.000  0.000
 1994 272    88   169     37    167    359     1    43   125  0.535  0.526  0.496  0.397  0.409  0.420  0.410  0.398  0.000  0.000
 1994 273    89   166     37    167    359     1    43   125  0.502  0.521  0.494  0.394  0.405  0.420  0.410  0.398  0.000  0.000
 1994 274    90   163     37    167    359     1    43   125  0.494  0.510  0.492  0.391  0.401  0.419  0.410  0.398  0.000  0.000
 1994 275    91   163     37    167    364     1    43   125  0.550  0.514  0.487  0.387  0.396  0.418  0.410  0.398  0.000  0.000
 1994 276    92   160     37    167    364     1    43   125  0.505  0.518  0.486  0.384  0.390  0.416  0.410  0.398  0.000  0.000
 1994 277    93   158     37    167    364     1    43   125  0.505  0.509  0.486  0.384  0.389  0.416  0.410  0.398  0.000  0.000
 1994 278    94   155     37    167    364     1    43   125  0.489  0.503  0.482  0.381  0.386  0.414  0.410  0.398  0.000  0.000
 1994 279    95   150     37    167    364     1    43   125  0.472  0.494  0.476  0.377  0.381  0.412  0.410  0.398  0.000  0.000
 1994 280    96   146     37    167    364     1    43   125  0.459  0.485  0.470  0.374  0.378  0.409  0.410  0.398  0.000  0.000
 1994 281    97   143     37    167    364     1    43   125  0.457  0.478  0.466  0.373  0.377  0.406  0.410  0.398  0.000  0.000
 1994 282    98   162     37    167    384     1    43   125  0.567  0.563  0.500  0.372  0.376  0.405  0.410  0.398  0.000  0.000
 1994 283    99   160     37    167    384     1    43   125  0.551  0.545  0.510  0.373  0.375  0.403  0.409  0.398  0.000  0.000
 1994 284   100   179     37    167    406     1    43   125  0.555  0.558  0.565  0.440  0.375  0.401  0.409  0.398  0.000  0.000
 1994 285   101   220     38    170    453     1    43   125  0.562  0.567  0.566  0.466  0.462  0.446  0.439  0.422  0.000  0.000
 1994 286   102   202     38    184    453     1    43   125  0.537  0.556  0.550  0.448  0.443  0.431  0.427  0.411  0.000  0.000
 1994 287   103   190     38    190    453     1    43   125  0.523  0.545  0.542  0.437  0.431  0.422  0.419  0.405  0.000  0.000
 1994 288   104   183     38    191    453     1    43   125  0.521  0.534  0.536  0.431  0.424  0.417  0.415  0.401  0.000  0.000
 1994 289   105   219     39    197    500     1    43   125  0.565  0.561  0.562  0.465  0.456  0.443  0.439  0.432  0.000  0.000
 1994 290   106   205     39    211    500     1    43   125  0.551  0.552  0.553  0.452  0.444  0.433  0.427  0.417  0.000  0.000
 1994 291   107   194     39    218    500     1    43   125  0.538  0.545  0.546  0.442  0.434  0.425  0.419  0.408  0.000  0.000
 1994 292   108   194     39    219    503     1    43   125  0.568  0.550  0.545  0.441  0.433  0.422  0.417  0.407  0.000  0.000
 1994 293   109   187     39    222    503     1    43   125  0.546  0.543  0.539  0.434  0.427  0.417  0.414  0.402  0.000  0.000
 1994 294   110   181     39    223    503     1    43   125  0.532  0.539  0.534  0.429  0.422  0.413  0.411  0.399  0.000  0.000
 1994 295   111   177     39    223    503     1    43   125  0.528  0.532  0.530  0.425  0.418  0.409  0.410  0.398  0.000  0.000
 1994 296   112   184     39    223    512     1    43   125  0.567  0.564  0.546  0.428  0.416  0.408  0.410  0.398  0.000  0.000
 1994 297   113   182     39    223    512     1    43   125  0.552  0.554  0.541  0.437  0.416  0.406  0.410  0.398  0.000  0.000
 1994 298   114   178     39    223    512     1    43   125  0.536  0.544  0.537  0.432  0.414  0.402  0.409  0.398  0.000  0.000
 1994 299   115   172     39    223    512     1    43   125  0.528  0.535  0.532  0.426  0.409  0.397  0.409  0.398  0.000  0.000
 1994 300   116   167     39    223    512     1    43   125  0.519  0.526  0.526  0.421  0.404  0.393  0.407  0.398  0.000  0.000
 1994 301   117   163     39    223    512     1    43   125  0.512  0.520  0.520  0.416  0.400  0.390  0.405  0.398  0.000  0.000
 1994 302   118   158     39    223    512     1    43   125  0.504  0.513  0.515  0.412  0.395  0.387  0.402  0.397  0.000  0.000
 1994 303   119   187     39    223    543     1    43   125  0.568  0.564  0.565  0.468  0.432  0.386  0.401  0.397  0.000  0.000
 1994 304   120   199     39    223    556     1    43   125  0.562  0.566  0.566  0.468  0.458  0.412  0.400  0.397  0.000  0.000
 1994 305   121   191     39    226    556     1    43   125  0.538  0.552  0.552  0.452  0.443  0.415  0.405  0.397  0.000  0.000
 1994 306   122   184     39    227    556     1    43   125  0.520  0.542  0.544  0.441  0.433  0.413  0.403  0.397  0.000  0.000
 1994 307   123   178     39    227    556     1    43   125  0.518  0.531  0.538  0.435  0.428  0.409  0.399  0.397  0.000  0.000
 1994 308   124   184     39    227    566     1    43   125  0.565  0.563  0.550  0.438  0.427  0.406  0.396  0.397  0.000  0.000
 1994 309   125   179     39    227    566     1    43   125  0.540  0.551  0.544  0.434  0.427  0.406  0.392  0.396  0.000  0.000
 1994 310   126   174     39    227    566     1    43   125  0.524  0.541  0.540  0.432  0.422  0.401  0.388  0.396  0.000  0.000
 1994 311   127   168     39    227    566     1    43   125  0.520  0.531  0.534  0.427  0.417  0.396  0.383  0.396  0.000  0.000
 1994 312   128   164     39    227    566     1    43   125  0.516  0.525  0.529  0.424  0.414  0.393  0.381  0.395  0.000  0.000
 1994 313   129   158     39    227    566     1    43   125  0.502  0.518  0.522  0.419  0.408  0.389  0.377  0.395  0.000  0.000
 1994 314   130   155     39    227    566     1    43   125  0.500  0.512  0.517  0.416  0.405  0.387  0.376  0.394  0.000  0.000
 1994 315   131   150     39    227    566     1    43   125  0.489  0.505  0.511  0.411  0.400  0.384  0.373  0.393  0.000  0.000
 1994 316   132   145     39    227    566     1    43   125  0.482  0.499  0.506  0.407  0.396  0.381  0.372  0.393  0.000  0.000
 1994 317   133   140     39    227    566     1    43   125  0.469  0.491  0.499  0.402  0.391  0.379  0.369  0.392  0.000  0.000
 1994 318   134   153     39    227    584     1    43   125  0.556  0.560  0.528  0.396  0.386  0.376  0.367  0.391  0.000  0.000
 1994 319   135   149     39    227    584     1    43   125  0.536  0.545  0.530  0.394  0.384  0.375  0.366  0.390  0.000  0.000
 1994 320   136   145     39    227    584     1    43   125  0.524  0.534  0.524  0.391  0.381  0.373  0.365  0.389  0.000  0.000
 1994 321   137   142     39    227    584     1    43   125  0.519  0.525  0.519  0.390  0.379  0.372  0.364  0.388  0.000  0.000
 1994 322   138   136     39    227    584     1    43   125  0.499  0.515  0.510  0.385  0.376  0.369  0.362  0.386  0.000  0.000
 1994 323   139   130     39    227    584     1    43   125  0.483  0.503  0.501  0.381  0.373  0.367  0.360  0.383  0.000  0.000
 1994 324   140   124     39    227    584     1    43   125  0.466  0.491  0.492  0.378  0.370  0.365  0.358  0.379  0.000  0.000
 1994 325   141   118     39    227    584     1    43   125  0.448  0.479  0.482  0.374  0.368  0.363  0.357  0.373  0.000  0.000
 1994 326   142   112     39    227    584     1    43   125  0.435  0.467  0.472  0.372  0.366  0.362  0.355  0.367  0.000  0.000
 1994 327   143   106     39    227    584     1    43   125  0.416  0.456  0.463  0.369  0.363  0.360  0.353  0.361  0.000  0.000
 1994 328   144    99     39    227    584     1    43   125  0.398  0.442  0.451  0.366  0.361  0.358  0.351  0.354  0.000  0.000
 1994 329   145    92     39    227    584     1    43   125  0.381  0.428  0.439  0.362  0.359  0.356  0.349  0.349  0.000  0.000
 1994 330   146   122     39    227    584     2    75   125  0.565  0.563  0.491  0.361  0.358  0.355  0.349  0.348  0.000  0.000
 1994 331   147   115     39    227    584     2    75   125  0.524  0.535  0.493  0.361  0.356  0.354  0.347  0.344  0.000  0.000
 1994 332   148   124     39    227    595     2    75   125  0.567  0.554  0.523  0.362  0.356  0.353  0.346  0.343  0.000  0.000
 1994 333   149   118     39    227    595     2    75   125  0.526  0.534  0.519  0.362  0.354  0.352  0.345  0.341  0.000  0.000
 1994 334   150   111     39    227    595     2    75   125  0.495  0.515  0.505  0.362  0.352  0.350  0.343  0.338  0.000  0.000
 1994 335   151   103     39    227    595     2    75   125  0.467  0.495  0.489  0.361  0.351  0.349  0.342  0.335  0.000  0.000
 1994 336   152   118     39    227    613     2    75   125  0.559  0.556  0.520  0.360  0.350  0.348  0.341  0.334  0.000  0.000
 1994 337   153   131     39    227    628     2    75   125  0.557  0.559  0.565  0.403  0.350  0.348  0.340  0.334  0.000  0.000
 1994 338   154   126     39    227    628     2    75   125  0.526  0.545  0.545  0.414  0.350  0.347  0.340  0.332  0.000  0.000
 1994 339   155   120     39    227    628     2    75   125  0.507  0.531  0.531  0.406  0.350  0.346  0.339  0.331  0.000  0.000
 1994 340   156   113     39    227    628     2    75   125  0.487  0.514  0.518  0.397  0.350  0.345  0.338  0.330  0.000  0.000
 1994 341   157   106     39    227    628     2    75   125  0.462  0.498  0.504  0.387  0.349  0.344  0.337  0.328  0.000  0.000
 1994 342   158    99     39    227    628     2    75   125  0.440  0.482  0.491  0.379  0.348  0.343  0.336  0.327  0.000  0.000
 1994 343   159    92     39    227    628     2    75   125  0.407  0.465  0.476  0.372  0.347  0.342  0.334  0.326  0.000  0.000
 1994 344   160    84     39    227    628     2    75   125  0.380  0.446  0.459  0.367  0.346  0.341  0.333  0.324  0.000  0.000
 1994 345   161    78     39    227    628     2    75   125  0.361  0.430  0.445  0.363  0.345  0.340  0.332  0.323  0.000  0.000
 1994 346   162   106     39    227    630     3   107   125  0.547  0.556  0.495  0.359  0.344  0.339  0.331  0.322  0.000  0.000
 1994 347   163   114     39    227    641     3   107   125  0.548  0.554  0.547  0.365  0.344  0.339  0.331  0.321  0.000  0.000
 1994 348   164   111     39    227    641     3   107   125  0.525  0.543  0.535  0.373  0.343  0.338  0.330  0.321  0.000  0.000
 1994 349   165   104     39    227    641     3   107   125  0.491  0.525  0.518  0.371  0.343  0.337  0.330  0.320  0.000  0.000
 1994 350   166   105     39    227    645     3   107   125  0.560  0.516  0.510  0.371  0.343  0.337  0.329  0.319  0.000  0.000
 1994 351   167    98     39    227    645     3   107   125  0.483  0.514  0.497  0.368  0.342  0.336  0.328  0.319  0.000  0.000
 1994 352   168    91     39    227    645     3   107   125  0.447  0.493  0.484  0.366  0.341  0.336  0.328  0.318  0.000  0.000
 1994 353   169    86     39    227    645     3   107   125  0.421  0.475  0.473  0.364  0.341  0.335  0.327  0.317  0.000  0.000
 1994 354   170    79     39    227    645     3   107   125  0.388  0.457  0.459  0.361  0.340  0.334  0.326  0.316  0.000  0.000
 1994 355   171    73     39    227    645     3   107   125  0.359  0.440  0.446  0.358  0.339  0.334  0.326  0.316  0.000  0.000
 1994 356   172    98     39    227    645     4   138   125  0.538  0.552  0.485  0.356  0.339  0.333  0.325  0.315  0.000  0.000
 1994 357   173    91     39    227    645     4   138   125  0.478  0.524  0.479  0.355  0.338  0.332  0.324  0.314  0.000  0.000
 1994 358   174    84     39    227    645     4   138   125  0.451  0.496  0.469  0.354  0.337  0.332  0.324  0.313  0.000  0.000
 1994 359   175    77     39    227    645     4   138   125  0.395  0.473  0.456  0.353  0.336  0.331  0.323  0.313  0.000  0.000
 1994 360   176    71     39    227    645     4   138   125  0.377  0.451  0.442  0.351  0.336  0.331  0.323  0.312  0.000  0.000
 1994 361   177    94     39    227    645     5   167   125  0.528  0.551  0.487  0.350  0.335  0.330  0.322  0.311  0.000  0.000
 1994 362   178    90     39    227    645     5   167   125  0.496  0.524  0.486  0.350  0.335  0.330  0.322  0.311  0.000  0.000
 1994 363   179    83     39    227    645     5   167   125  0.452  0.500  0.476  0.350  0.334  0.329  0.321  0.311  0.000  0.000
 1994 364   180    77     39    227    645     5   167   125  0.402  0.479  0.465  0.350  0.334  0.329  0.321  0.310  0.000  0.000
 1994 365   181    71     39    227    645     5   167   125  0.387  0.458  0.451  0.349  0.333  0.328  0.320  0.310  0.000  0.000
 1995 001   182    65     39    227    645     5   167   125  0.374  0.437  0.435  0.347  0.333  0.328  0.320  0.309  0.000  0.000
