*PLANT N OUTPUT FILE

*DSSAT Cropping System Model Ver. 4.0.2.000               Aug 23, 2016; 17:58:30

*RUN   1        : UYSB                    
 MODEL          : CRGRO040 - Soybean         
 EXPERIMENT     : UYSB0277 SB    late to create DSS                             
 TREATMENT  1   : UYSB                    

@YEAR DOY   DAS   DAP    CNAD    GNAD    VNAD    GN%D    VN%D     NFXC    NUPC    LNAD    SNAD    LN%D    SN%D    SHND   RN%D   NFXD   SNN0C   SNN1C
 1999 235     3     0     0.0     0.0     0.0    0.00    0.00      0.0     0.0     0.0     0.0    0.00    0.00     0.0    0.0    0.0    0.00    0.00
 1999 236     4     1     0.0     0.0     0.0    0.00    0.00      0.0     0.0     0.0     0.0    0.00    0.00     0.0    0.0    0.0    0.00    0.00
 1999 237     5     2     0.0     0.0     0.0    0.00    0.00      0.0     0.0     0.0     0.0    0.00    0.00     0.0    0.0    0.0    0.00    0.00
 1999 238     6     3     0.0     0.0     0.0    0.00    0.00      0.0     0.0     0.0     0.0    0.00    0.00     0.0    0.0    0.0    0.00    0.00
 1999 239     7     4     0.0     0.0     0.0    0.00    0.00      0.0     0.0     0.0     0.0    0.00    0.00     0.0    0.0    0.0    0.00    0.00
 1999 240     8     5     0.0     0.0     0.0    0.00    0.00      0.0     0.0     0.0     0.0    0.00    0.00     0.0    0.0    0.0    0.00    0.00
 1999 241     9     6     0.0     0.0     0.0    0.00    0.00      0.0     0.0     0.0     0.0    0.00    0.00     0.0    0.0    0.0    0.00    0.00
 1999 242    10     7     0.0     0.0     0.0    0.00    0.00      0.0     0.0     0.0     0.0    0.00    0.00     0.0    0.0    0.0    0.00    0.00
 1999 243    11     8     0.0     0.0     0.0    0.00    0.00      0.0     0.0     0.0     0.0    0.00    0.00     0.0    0.0    0.0    0.00    0.00
 1999 244    12     9     0.0     0.0     0.0    0.00    0.00      0.0     0.0     0.0     0.0    0.00    0.00     0.0    0.0    0.0    0.00    0.00
 1999 245    13    10     0.0     0.0     0.0    0.00    0.00      0.0     0.0     0.0     0.0    0.00    0.00     0.0    0.0    0.0    0.00    0.00
 1999 246    14    11     0.2     0.0     0.2    0.00    5.15      0.0     0.0     0.2     0.0    5.70    2.64     0.0    1.5    0.0    0.00    0.00
 1999 247    15    12     0.2     0.0     0.2    0.00    5.16      0.0     0.0     0.2     0.0    5.70    2.64     0.0    1.5    0.0    0.00    0.01
 1999 248    16    13     0.2     0.0     0.2    0.00    5.17      0.0     0.0     0.2     0.0    5.70    2.65     0.0    1.5    0.0    0.00    0.01
 1999 249    17    14     0.2     0.0     0.2    0.00    5.14      0.0     0.0     0.2     0.0    5.70    2.65     0.0    1.5    0.0    0.00    0.01
 1999 250    18    15     0.2     0.0     0.2    0.00    5.14      0.0     0.1     0.2     0.0    5.71    2.65     0.0    1.5    0.0    0.00    0.01
 1999 251    19    16     0.2     0.0     0.2    0.00    5.12      0.0     0.1     0.2     0.0    5.71    2.65     0.0    1.5    0.0    0.00    0.01
 1999 252    20    17     0.3     0.0     0.3    0.00    5.10      0.1     0.1     0.2     0.0    5.71    2.65     0.0    1.5    0.0    0.00    0.02
 1999 253    21    18     0.3     0.0     0.3    0.00    5.08      0.1     0.1     0.2     0.0    5.71    2.65     0.0    1.5    0.0    0.00    0.02
 1999 254    22    19     0.3     0.0     0.3    0.00    5.06      0.1     0.1     0.3     0.0    5.71    2.65     0.0    1.5    0.0    0.00    0.02
 1999 255    23    20     0.3     0.0     0.3    0.00    5.03      0.1     0.2     0.3     0.0    5.71    2.65     0.0    1.5    0.0    0.00    0.02
 1999 256    24    21     0.3     0.0     0.3    0.00    5.00      0.1     0.2     0.3     0.0    5.71    2.65     0.0    1.5    0.0    0.00    0.02
 1999 257    25    22     0.3     0.0     0.3    0.00    4.99      0.1     0.2     0.3     0.0    5.71    2.65     0.0    1.5    0.0    0.00    0.02
 1999 258    26    23     0.3     0.0     0.3    0.00    4.95      0.1     0.2     0.3     0.0    5.71    2.65     0.0    1.5    0.0    0.00    0.02
 1999 259    27    24     0.4     0.0     0.4    0.00    4.91      0.1     0.3     0.3     0.1    5.71    2.65     0.0    1.5    0.0    0.00    0.02
 1999 260    28    25     0.4     0.0     0.4    0.00    4.87      0.1     0.3     0.3     0.1    5.72    2.65     0.0    1.5    0.0    0.00    0.02
 1999 261    29    26     0.4     0.0     0.4    0.00    4.82      0.1     0.4     0.4     0.1    5.72    2.65     0.0    1.5    0.0    0.00    0.02
 1999 262    30    27     0.5     0.0     0.5    0.00    4.87      0.1     0.4     0.4     0.1    5.72    2.66     0.0    1.5    0.0    0.00    0.02
 1999 263    31    28     0.5     0.0     0.5    0.00    4.89      0.1     0.5     0.5     0.1    5.72    2.66     0.0    1.5    0.0    0.00    0.03
 1999 264    32    29     0.6     0.0     0.6    0.00    4.91      0.1     0.6     0.5     0.1    5.72    2.66     0.0    1.5    0.0    0.00    0.03
 1999 265    33    30     0.6     0.0     0.6    0.00    4.92      0.1     0.6     0.6     0.1    5.72    2.66     0.0    1.5    0.0    0.00    0.03
 1999 266    34    31     0.7     0.0     0.7    0.00    4.91      0.1     0.7     0.6     0.1    5.72    2.66     0.0    1.5    0.0    0.00    0.03
 1999 267    35    32     0.8     0.0     0.8    0.00    4.90      0.1     0.8     0.7     0.1    5.72    2.66     0.0    1.5    0.0    0.00    0.03
 1999 268    36    33     0.8     0.0     0.8    0.00    4.90      0.1     0.8     0.7     0.1    5.72    2.66     0.0    1.5    0.0    0.00    0.03
 1999 269    37    34     0.8     0.0     0.8    0.00    4.90      0.1     0.9     0.7     0.1    5.72    2.66     0.0    1.5    0.0    0.00    0.04
 1999 270    38    35     0.9     0.0     0.9    0.00    4.91      0.1     1.0     0.8     0.1    5.72    2.66     0.0    1.5    0.0    0.00    0.04
 1999 271    39    36     1.0     0.0     1.0    0.00    4.91      0.1     1.1     0.8     0.1    5.72    2.66     0.0    1.5    0.0    0.00    0.04
 1999 272    40    37     1.1     0.0     1.1    0.00    4.91      0.1     1.2     0.9     0.2    5.72    2.66     0.0    1.5    0.0    0.00    0.04
 1999 273    41    38     1.1     0.0     1.1    0.00    4.88      0.1     1.3     1.0     0.2    5.72    2.66     0.0    1.5    0.0    0.00    0.04
 1999 274    42    39     1.2     0.0     1.2    0.00    4.89      0.1     1.3     1.0     0.2    5.72    2.66     0.0    1.5    0.0    0.00    0.05
 1999 275    43    40     1.3     0.0     1.3    0.00    4.88      0.1     1.4     1.1     0.2    5.72    2.66     0.0    1.5    0.0    0.00    0.05
 1999 276    44    41     1.3     0.0     1.3    0.00    4.86      0.1     1.5     1.1     0.2    5.72    2.66     0.0    1.5    0.0    0.00    0.05
 1999 277    45    42     1.4     0.0     1.4    0.00    4.85      0.1     1.5     1.1     0.2    5.72    2.66     0.0    1.5    0.0    0.00    0.05
 1999 278    46    43     1.4     0.0     1.4    0.00    4.85      0.1     1.6     1.2     0.2    5.72    2.66     0.0    1.5    0.0    0.00    0.05
 1999 279    47    44     1.5     0.0     1.5    0.00    4.82      0.1     1.7     1.2     0.2    5.72    2.66     0.0    1.5    0.0    0.00    0.05
 1999 280    48    45     1.5     0.0     1.5    0.00    4.82      0.1     1.8     1.3     0.2    5.72    2.66     0.0    1.5    0.0    0.00    0.06
 1999 281    49    46     1.6     0.0     1.6    0.00    4.81      0.1     1.9     1.4     0.3    5.72    2.66     0.0    1.5    0.0    0.00    0.06
 1999 282    50    47     1.8     0.0     1.8    0.00    4.81      0.1     2.0     1.5     0.3    5.72    2.66     0.0    1.5    0.0    0.00    0.06
 1999 283    51    48     1.9     0.0     1.9    0.00    4.79      0.1     2.3     1.6     0.3    5.72    2.66     0.0    1.5    0.0    0.00    0.06
 1999 284    52    49     2.1     0.0     2.1    0.00    4.74      0.1     2.5     1.8     0.4    5.72    2.66     0.0    1.5    0.0    0.00    0.06
 1999 285    53    50     2.2     0.0     2.2    0.00    4.74      0.1     2.6     1.8     0.4    5.72    2.66     0.0    1.5    0.0    0.00    0.07
 1999 286    54    51     2.3     0.0     2.3    0.00    4.73      0.1     2.7     1.9     0.4    5.72    2.66     0.0    1.5    0.0    0.00    0.07
 1999 287    55    52     2.4     0.0     2.4    0.00    4.74      0.1     2.9     2.0     0.4    5.72    2.66     0.0    1.5    0.0    0.00    0.08
 1999 288    56    53     2.6     0.0     2.6    0.00    4.69      0.1     3.1     2.1     0.5    5.72    2.66     0.0    1.5    0.0    0.00    0.08
 1999 289    57    54     2.8     0.0     2.8    0.00    4.64      0.1     3.4     2.3     0.6    5.72    2.66     0.0    1.5    0.0    0.00    0.08
 1999 290    58    55     3.2     0.0     3.2    0.00    4.57      0.1     3.8     2.5     0.7    5.72    2.66     0.0    1.5    0.0    0.00    0.09
 1999 291    59    56     3.5     0.0     3.5    0.00    4.49      0.2     4.3     2.7     0.8    5.72    2.66     0.0    1.5    0.0    0.00    0.09
 1999 292    60    57     3.9     0.0     3.9    0.00    4.42      0.2     4.8     2.9     1.0    5.72    2.66     0.0    1.5    0.0    0.00    0.10
 1999 293    61    58     4.3     0.0     4.3    0.00    4.34      0.2     5.3     3.1     1.2    5.73    2.66     0.0    1.5    0.0    0.00    0.10
 1999 294    62    59     4.9     0.0     4.9    0.00    4.35      0.2     6.0     3.6     1.3    5.73    2.66     0.0    1.5    0.0    0.00    0.11
 1999 295    63    60     5.4     0.0     5.4    0.00    4.36      0.2     6.6     4.0     1.5    5.72    2.66     0.0    1.5    0.0    0.00    0.12
 1999 296    64    61     6.0     0.0     6.0    0.00    4.37      0.2     7.2     4.4     1.6    5.72    2.66     0.0    1.5    0.0    0.00    0.12
 1999 297    65    62     6.5     0.0     6.5    0.00    4.37      0.2     7.9     4.8     1.8    5.72    2.66     0.0    1.5    0.0    0.00    0.13
 1999 298    66    63     7.2     0.0     7.2    0.00    4.37      0.3     8.6     5.3     1.9    5.72    2.66     0.0    1.5    0.0    0.00    0.14
 1999 299    67    64     8.3     0.0     8.3    0.00    4.37      0.3     9.8     6.0     2.2    5.72    2.66     0.0    1.5    0.0    0.00    0.14
 1999 300    68    65     9.4     0.0     9.4    0.00    4.37      0.3    11.2     6.9     2.6    5.72    2.66     0.0    1.5    0.0    0.00    0.16
 1999 301    69    66    10.7     0.0    10.7    0.00    4.36      0.3    12.6     7.8     2.9    5.72    2.66     0.0    1.5    0.0    0.00    0.17
 1999 302    70    67    12.2     0.0    12.2    0.00    4.35      0.4    14.4     8.9     3.3    5.72    2.66     0.0    1.5    0.0    0.00    0.18
 1999 303    71    68    13.5     0.0    13.5    0.00    4.35      0.4    15.9     9.8     3.7    5.72    2.66     0.0    1.5    0.0    0.00    0.20
 1999 304    72    69    15.3     0.0    15.3    0.00    4.33      0.4    17.9    11.0     4.3    5.72    2.66     0.0    1.5    0.0    0.00    0.21
 1999 305    73    70    16.5     0.0    16.5    0.00    4.33      0.5    19.4    11.9     4.6    5.72    2.66     0.0    1.5    0.0    0.00    0.23
 1999 306    74    71    18.9     0.0    18.9    0.00    4.31      0.5    22.1    13.5     5.4    5.72    2.66     0.0    1.5    0.0    0.00    0.24
 1999 307    75    72    21.4     0.0    21.4    0.00    4.29      0.6    25.0    15.2     6.2    5.72    2.66     0.0    1.5    0.0    0.00    0.26
 1999 308    76    73    22.3     0.0    22.3    0.00    4.29      0.6    26.0    15.8     6.5    5.72    2.65     0.0    1.5    0.0    0.00    0.28
 1999 309    77    74    24.9     0.0    24.9    0.00    4.26      0.6    29.1    17.6     7.3    5.71    2.65     0.0    1.5    0.0    0.00    0.30
 1999 310    78    75    28.2     0.0    28.2    0.00    4.23      0.7    32.9    19.8     8.4    5.70    2.63     0.0    1.5    0.0    0.01    0.32
 1999 311    79    76    30.3     0.0    30.3    0.00    4.22      0.7    35.3    21.2     9.1    5.70    2.63     0.0    1.5    0.0    0.01    0.34
 1999 312    80    77    32.6     0.0    32.6    0.00    4.21      0.8    38.1    22.7     9.9    5.70    2.62     0.0    1.5    0.0    0.03    0.35
 1999 313    81    78    34.8     0.0    34.8    0.00    4.20      0.8    40.8    24.2    10.6    5.71    2.62     0.0    1.5    0.0    0.04    0.36
 1999 314    82    79    37.4     0.0    37.4    0.00    4.19      0.9    43.9    25.9    11.5    5.71    2.62     0.0    1.5    0.0    0.06    0.37
 1999 315    83    80    41.1     0.0    41.1    0.00    4.18      0.9    48.2    28.3    12.7    5.72    2.61     0.0    1.5    0.0    0.09    0.40
 1999 316    84    81    45.2     0.0    45.2    0.00    4.16      1.0    53.2    31.0    14.2    5.72    2.61     0.0    1.5    0.0    0.13    0.43
 1999 317    85    82    49.4     0.0    49.4    0.00    4.15      1.1    58.1    33.7    15.7    5.73    2.60     0.0    1.5    0.0    0.19    0.47
 1999 318    86    83    53.3     0.0    53.3    0.00    4.10      1.2    62.6    36.2    17.1    5.71    2.57     0.0    1.5    0.0    0.27    0.51
 1999 319    87    84    57.6     0.0    57.6    0.00    4.06      2.4    66.5    38.9    18.7    5.68    2.54     0.0    1.5    1.1    0.32    0.56
 1999 320    88    85    61.7     0.0    61.7    0.00    3.98      3.8    70.0    41.5    20.2    5.61    2.49     0.0    1.5    1.2    0.37    0.62
 1999 321    89    86    65.5     0.0    65.5    0.00    3.90      5.5    72.9    43.9    21.6    5.53    2.43     0.0    1.4    1.4    0.43    0.67
 1999 322    90    87    68.9     0.0    68.8    0.00    3.80      7.5    75.3    45.9    22.9    5.43    2.37     4.0    1.4    1.7    0.49    0.73
 1999 323    91    88    72.4     0.0    72.0    0.00    3.72      9.8    77.3    47.9    24.1    5.36    2.32     4.0    1.4    1.9    0.55    0.80
 1999 324    92    89    76.0     0.0    75.2    0.00    3.66     12.4    79.2    49.8    25.4    5.30    2.28     4.0    1.4    2.3    0.62    0.87
 1999 325    93    90    79.7     0.0    78.4    0.00    3.56     15.5    80.7    51.9    26.5    5.21    2.20     4.0    1.4    2.6    0.68    0.95
 1999 326    94    91    83.5     0.0    81.5    0.00    3.47     19.1    81.9    53.9    27.6    5.13    2.12     4.0    1.3    3.1    0.74    1.02
 1999 327    95    92    86.8     0.0    84.0    0.00    3.45     21.4    83.3    55.4    28.6    5.12    2.12     3.9    1.3    2.3    0.80    1.09
 1999 328    96    93    90.8     0.0    87.3    0.00    3.41     25.5    84.4    57.3    30.0    5.08    2.09     3.9    1.3    3.6    0.87    1.19
 1999 329    97    94    95.5     0.0    91.0    0.00    3.39     26.9    88.3    59.5    31.6    5.08    2.09     3.9    1.3    1.4    0.94    1.27
 1999 330    98    95    97.7     0.0    92.0    0.00    3.36     27.5    90.1    60.0    32.0    5.05    2.07     3.9    1.3    0.5    1.00    1.34
 1999 331    99    96   102.3     0.0    95.3    0.00    3.34     31.6    91.2    61.9    33.5    5.03    2.06     3.9    1.3    4.0    1.08    1.43
 1999 332   100    97   106.9     0.0    98.5    0.00    3.30     36.4    92.3    63.7    34.9    4.99    2.03     3.9    1.3    4.2    1.15    1.52
 1999 333   101    98   111.7     0.0   101.7    0.00    3.27     41.4    92.8    65.4    36.3    4.97    2.02     3.9    1.3    4.8    1.23    1.63
 1999 334   102    99   115.2     0.0   103.3    0.00    3.23     45.5    93.3    66.3    37.1    4.93    1.99     3.9    1.3    4.0    1.32    1.84
 1999 335   103   100   118.5     0.0   104.4    0.00    3.19     48.8    93.7    66.8    37.6    4.90    1.97     3.9    1.3    3.2    1.41    1.99
 1999 336   104   101   120.1     0.0   103.5    0.00    3.15     49.5    94.7    66.3    37.3    4.86    1.94     3.8    1.3    0.8    1.48    2.09
 1999 337   105   102   124.3     0.0   105.1    0.00    3.13     53.1    95.6    67.0    38.0    4.84    1.93     3.8    1.3    3.5    1.55    2.20
 1999 338   106   103   129.4     0.0   107.4    0.00    3.10     58.0    96.2    68.2    39.1    4.82    1.91     3.8    1.3    4.9    1.63    2.32
 1999 339   107   104   132.0     0.0   107.1    0.00    3.08     60.3    96.7    68.1    39.1    4.80    1.89     3.8    1.3    2.3    1.69    2.41
 1999 340   108   105   136.6     0.0   109.2    0.00    3.06     64.8    97.2    69.1    40.1    4.79    1.89     3.8    1.3    4.4    1.74    2.49
 1999 341   109   106   140.4     0.0   110.4    0.00    3.04     68.6    97.5    69.8    40.7    4.77    1.88     3.8    1.3    3.7    1.79    2.58
 1999 342   110   107   143.5     0.0   110.8    0.00    3.00     72.1    97.9    69.9    40.9    4.73    1.85     3.8    1.3    3.4    1.86    2.83
 1999 343   111   108   144.8     0.0   110.0    0.00    2.94     74.5    98.1    69.4    40.6    4.68    1.80     3.8    1.3    2.3    2.65    3.13
 1999 344   112   109   144.3     0.1   108.1    6.23    2.88     75.2    98.5    68.3    39.8    4.61    1.75     3.8    1.3    0.6    4.24    3.53
 1999 345   113   110   144.6     0.3   106.2    6.27    2.82     76.3    98.6    67.1    39.1    4.56    1.70     3.7    1.2    1.0    5.26    3.93
 1999 346   114   111   145.5     0.7   104.8    6.25    2.79     78.6    99.1    66.1    38.7    4.53    1.69     3.7    1.2    2.2    6.98    4.19
 1999 347   115   112   146.1     1.2   103.0    6.22    2.75     81.5    99.4    64.8    38.2    4.49    1.66     3.7    1.2    2.8    9.47    4.35
 1999 348   116   113   147.0     1.8   100.9    6.21    2.68     86.0    99.6    63.0    37.9    4.43    1.61     3.7    1.2    3.7   12.46    4.50
 1999 349   117   114   145.7     2.5    97.2    6.25    2.60     87.1    99.9    60.4    36.8    4.37    1.57     3.6    1.2    1.0   15.05    4.92
 1999 350   118   115   145.3     3.3    95.2    6.26    2.55     87.8   100.0    59.1    36.0    4.31    1.53     3.6    1.2    0.7   16.33    5.37
 1999 351   119   116   144.4     4.2    93.2    6.28    2.52     87.8   100.2    57.9    35.2    4.27    1.51     3.6    1.2    0.0   17.63    5.86
 1999 352   120   117   143.2     5.2    91.2    6.33    2.50     87.8   100.3    56.7    34.4    4.23    1.49     3.5    1.2    0.0   19.06    6.45
 1999 353   121   118   139.8     6.5    87.5    6.35    2.46     87.8   100.4    54.1    33.4    4.19    1.47     3.5    1.2    0.0   22.65    7.01
 1999 354   122   119   136.3     7.9    83.6    6.32    2.42     87.8   100.6    51.3    32.3    4.15    1.45     3.4    1.2    0.0   26.36    7.52
 1999 355   123   120   131.9     9.5    79.2    6.32    2.37     87.8   100.7    48.1    31.1    4.11    1.43     3.4    1.2    0.0   30.88    8.03
 1999 356   124   121   127.5    11.4    75.2    6.31    2.32     87.8   100.8    45.2    30.0    4.07    1.41     3.3    1.2    0.0   35.50    8.51
 1999 357   125   122   123.2    13.4    71.3    6.29    2.27     87.8   100.9    42.3    28.9    4.03    1.39     3.3    1.1    0.0   39.89    8.95
 1999 358   126   123   120.2    15.7    67.5    6.30    2.23     87.8   101.0    39.6    27.9    3.99    1.37     3.2    1.1    0.0   43.10    9.39
 1999 359   127   124   116.8    17.1    64.8    6.34    2.20     87.8   101.0    37.6    27.2    3.97    1.36     3.2    1.1    0.0   46.50    9.82
 1999 360   128   125   112.6    18.2    62.0    6.39    2.18     87.8   101.0    35.5    26.6    3.96    1.36     3.2    1.1    0.0   50.80   10.23
 1999 361   129   126   109.9    19.2    59.5    6.43    2.15     87.8   101.0    33.5    26.0    3.95    1.36     3.1    1.1    0.0   53.49   10.64
 1999 362   130   127   107.2    22.6    55.5    6.39    2.08     87.9   101.1    30.8    24.7    3.87    1.32     3.0    1.1    0.0   56.41   10.92
 1999 363   131   128   104.8    25.7    51.8    6.37    2.01     87.9   101.1    28.3    23.5    3.80    1.29     2.9    1.1    0.0   58.94   11.27
 1999 364   132   129   102.6    28.8    48.4    6.35    1.94     87.9   101.2    25.9    22.4    3.73    1.25     2.8    1.1    0.0   61.34   11.62
 1999 365   133   130   100.7    30.2    46.0    6.35    1.91     87.9   101.2    24.3    21.7    3.69    1.24     2.8    1.1    0.0   63.28   11.95
 2000 001   134   131   100.3    31.4    45.2    6.34    1.89     87.9   101.2    23.8    21.4    3.67    1.23     2.7    1.1    0.0   63.72   12.26
 2000 002   135   132   100.1    32.6    44.4    6.34    1.87     87.9   101.2    23.4    21.0    3.64    1.22     2.7    1.1    0.0   63.98   12.56
 2000 003   136   133   100.0    33.6    43.8    6.33    1.86     87.9   101.2    23.1    20.7    3.62    1.21     2.7    1.1    0.0   64.14   12.85
 2000 004   137   134   100.0    34.7    43.2    6.33    1.85     87.9   101.2    22.8    20.4    3.60    1.20     2.6    1.1    0.0   64.17   13.13
 2000 005   138   135   100.0    35.3    42.8    6.33    1.84     87.9   101.2    22.6    20.2    3.59    1.19     2.6    1.1    0.0   64.20   13.40
 2000 006   139   136   100.0    35.8    42.5    6.33    1.84     87.9   101.2    22.4    20.1    3.58    1.19     2.6    1.1    0.0   64.21   13.67
 2000 007   140   137   100.0    35.9    42.4    6.34    1.85     87.9   101.2    22.4    20.0    3.59    1.20     2.6    1.1    0.0   64.21   13.93
 2000 008   141   138   100.0    35.9    42.4    6.34    1.86     87.9   101.2    22.4    20.0    3.60    1.21     2.6    1.1    0.0   64.21   14.17
 2000 009   142   139   100.0    35.9    42.4    6.34    1.87     87.9   101.2    22.4    20.0    3.61    1.21     2.6    1.1    0.0   64.21   14.42
 2000 010   143   140   100.0    36.1    42.3    6.34    1.87     87.9   101.2    22.3    20.0    3.62    1.22     2.6    1.1    0.0   64.22   14.65
 2000 011   144   141   100.0    36.1    42.3    6.34    1.88     87.9   101.2    22.3    20.0    3.63    1.22     2.6    1.1    0.0   64.22   14.88
 2000 012   145   142   100.0    36.1    42.3    6.34    1.89     87.9   101.2    22.3    20.0    3.64    1.23     2.6    1.1    0.0   64.22   15.10
 2000 013   146   143    94.6    36.1    36.9    6.34    1.82     87.9   101.2    17.9    19.1    3.65    1.24     2.6    1.1    0.0   69.56   15.30
 2000 014   147   144    90.4    38.1    31.5    6.33    1.69     87.9   101.2    13.8    17.8    3.56    1.21     2.5    1.1    0.0   73.83   15.48
 2000 015   148   145    88.7    41.7    27.1    6.35    1.57     87.9   102.7    10.5    16.6    3.45    1.17     2.4    1.1    0.0   77.13   15.65
 2000 016   149   146    87.2    44.6    23.6    6.37    1.46     87.9   103.6     8.1    15.5    3.34    1.13     2.3    1.0    0.0   79.65   15.82
 2000 017   150   147    85.3    45.9    21.1    6.37    1.38     87.9   103.6     6.3    14.8    3.27    1.11     2.2    1.0    0.0   81.58   15.98
 2000 018   151   148    84.3    47.8    18.9    6.35    1.29     87.9   104.1     4.8    14.0    3.18    1.07     2.2    1.0    0.0   83.08   16.08
 2000 019   152   149    83.5    49.4    17.1    6.35    1.22     87.9   104.4     3.7    13.4    3.09    1.04     2.1    1.0    0.0   84.23   16.22
 2000 020   153   150    82.6    50.6    15.7    6.35    1.16     87.9   104.4     2.9    12.9    3.02    1.02     2.0    1.0    0.0   85.12   16.36
 2000 021   154   151    82.0    51.0    14.9    6.36    1.13     87.9   104.4     2.3    12.6    3.00    1.01     2.0    1.0    0.0   85.81   16.50
 2000 022   155   152    81.4    51.0    14.3    6.36    1.11     87.9   104.4     1.8    12.5    3.01    1.01     2.0    1.0    0.0   86.35   16.63
 2000 023   156   153    81.0    51.2    13.8    6.36    1.09     87.9   104.4     1.4    12.4    2.99    1.01     2.0    1.0    0.0   86.79   16.76
 2000 024   157   154    80.6    51.2    13.5    6.36    1.07     87.9   104.4     1.2    12.3    3.00    1.01     2.0    1.0    0.0   87.14   16.88

*DSSAT Cropping System Model Ver. 4.0.2.000               Aug 23, 2016; 17:58:30

*RUN   2        : UYSB                    
 MODEL          : CRGRO040 - Soybean         
 EXPERIMENT     : UYSB0277 SB    late to create DSS                             
 TREATMENT  1   : UYSB                    

@YEAR DOY   DAS   DAP    CNAD    GNAD    VNAD    GN%D    VN%D     NFXC    NUPC    LNAD    SNAD    LN%D    SN%D    SHND   RN%D   NFXD   SNN0C   SNN1C
 2000 235     3     0     0.0     0.0     0.0    0.00    0.00      0.0     0.0     0.0     0.0    0.00    0.00     0.0    0.0    0.0    0.00    0.00
 2000 236     4     1     0.0     0.0     0.0    0.00    0.00      0.0     0.0     0.0     0.0    0.00    0.00     0.0    0.0    0.0    0.00    0.00
 2000 237     5     2     0.0     0.0     0.0    0.00    0.00      0.0     0.0     0.0     0.0    0.00    0.00     0.0    0.0    0.0    0.00    0.00
 2000 238     6     3     0.0     0.0     0.0    0.00    0.00      0.0     0.0     0.0     0.0    0.00    0.00     0.0    0.0    0.0    0.00    0.00
 2000 239     7     4     0.0     0.0     0.0    0.00    0.00      0.0     0.0     0.0     0.0    0.00    0.00     0.0    0.0    0.0    0.00    0.00
 2000 240     8     5     0.0     0.0     0.0    0.00    0.00      0.0     0.0     0.0     0.0    0.00    0.00     0.0    0.0    0.0    0.00    0.00
 2000 241     9     6     0.0     0.0     0.0    0.00    0.00      0.0     0.0     0.0     0.0    0.00    0.00     0.0    0.0    0.0    0.00    0.00
 2000 242    10     7     0.0     0.0     0.0    0.00    0.00      0.0     0.0     0.0     0.0    0.00    0.00     0.0    0.0    0.0    0.00    0.00
 2000 243    11     8     0.0     0.0     0.0    0.00    0.00      0.0     0.0     0.0     0.0    0.00    0.00     0.0    0.0    0.0    0.00    0.00
 2000 244    12     9     0.0     0.0     0.0    0.00    0.00      0.0     0.0     0.0     0.0    0.00    0.00     0.0    0.0    0.0    0.00    0.00
 2000 245    13    10     0.2     0.0     0.2    0.00    5.15      0.0     0.0     0.2     0.0    5.70    2.64     0.0    1.5    0.0    0.00    0.00
 2000 246    14    11     0.2     0.0     0.2    0.00    5.15      0.0     0.0     0.2     0.0    5.70    2.64     0.0    1.5    0.0    0.00    0.01
 2000 247    15    12     0.2     0.0     0.2    0.00    5.14      0.0     0.0     0.2     0.0    5.70    2.64     0.0    1.5    0.0    0.00    0.01
 2000 248    16    13     0.2     0.0     0.2    0.00    5.13      0.0     0.0     0.2     0.0    5.70    2.64     0.0    1.5    0.0    0.00    0.01
 2000 249    17    14     0.2     0.0     0.2    0.00    5.12      0.0     0.1     0.2     0.0    5.70    2.64     0.0    1.5    0.0    0.00    0.01
 2000 250    18    15     0.2     0.0     0.2    0.00    5.11      0.0     0.1     0.2     0.0    5.70    2.64     0.0    1.5    0.0    0.00    0.01
 2000 251    19    16     0.3     0.0     0.3    0.00    5.09      0.1     0.1     0.2     0.0    5.70    2.65     0.0    1.5    0.0    0.00    0.01
 2000 252    20    17     0.3     0.0     0.3    0.00    5.06      0.1     0.1     0.3     0.0    5.71    2.65     0.0    1.5    0.0    0.00    0.01
 2000 253    21    18     0.3     0.0     0.3    0.00    5.05      0.1     0.2     0.3     0.0    5.71    2.65     0.0    1.5    0.0    0.00    0.02
 2000 254    22    19     0.3     0.0     0.3    0.00    5.03      0.1     0.2     0.3     0.0    5.71    2.65     0.0    1.5    0.0    0.00    0.02
 2000 255    23    20     0.3     0.0     0.3    0.00    5.01      0.1     0.2     0.3     0.0    5.71    2.65     0.0    1.5    0.0    0.00    0.02
 2000 256    24    21     0.3     0.0     0.3    0.00    5.00      0.1     0.2     0.3     0.0    5.71    2.65     0.0    1.5    0.0    0.00    0.02
 2000 257    25    22     0.3     0.0     0.3    0.00    5.00      0.1     0.2     0.3     0.0    5.71    2.65     0.0    1.5    0.0    0.00    0.02
 2000 258    26    23     0.3     0.0     0.3    0.00    5.00      0.1     0.2     0.3     0.0    5.71    2.65     0.0    1.5    0.0    0.00    0.03
 2000 259    27    24     0.4     0.0     0.4    0.00    5.00      0.1     0.2     0.3     0.0    5.71    2.65     0.0    1.5    0.0    0.00    0.03
 2000 260    28    25     0.4     0.0     0.4    0.00    4.98      0.1     0.3     0.3     0.0    5.72    2.66     0.0    1.5    0.0    0.00    0.03
 2000 261    29    26     0.4     0.0     0.4    0.00    4.96      0.1     0.3     0.3     0.1    5.72    2.66     0.0    1.5    0.0    0.00    0.03
 2000 262    30    27     0.4     0.0     0.4    0.00    4.95      0.1     0.3     0.3     0.1    5.72    2.66     0.0    1.5    0.0    0.00    0.03
 2000 263    31    28     0.4     0.0     0.4    0.00    4.91      0.1     0.3     0.4     0.1    5.72    2.66     0.0    1.5    0.0    0.00    0.03
 2000 264    32    29     0.4     0.0     0.4    0.00    4.94      0.1     0.4     0.4     0.1    5.72    2.66     0.0    1.5    0.0    0.00    0.03
 2000 265    33    30     0.5     0.0     0.5    0.00    4.97      0.1     0.4     0.4     0.1    5.72    2.66     0.0    1.5    0.0    0.00    0.04
 2000 266    34    31     0.5     0.0     0.5    0.00    4.99      0.1     0.5     0.5     0.1    5.72    2.66     0.0    1.5    0.0    0.00    0.04
 2000 267    35    32     0.6     0.0     0.6    0.00    4.99      0.1     0.5     0.5     0.1    5.72    2.66     0.0    1.5    0.0    0.00    0.04
 2000 268    36    33     0.6     0.0     0.6    0.00    4.99      0.1     0.6     0.5     0.1    5.72    2.66     0.0    1.5    0.0    0.00    0.04
 2000 269    37    34     0.6     0.0     0.6    0.00    4.99      0.1     0.6     0.6     0.1    5.72    2.66     0.0    1.5    0.0    0.00    0.04
 2000 270    38    35     0.7     0.0     0.7    0.00    4.99      0.1     0.7     0.6     0.1    5.72    2.66     0.0    1.5    0.0    0.00    0.04
 2000 271    39    36     0.7     0.0     0.7    0.00    4.96      0.1     0.7     0.6     0.1    5.72    2.66     0.0    1.5    0.0    0.00    0.04
 2000 272    40    37     0.8     0.0     0.8    0.00    4.92      0.1     0.8     0.7     0.1    5.72    2.66     0.0    1.5    0.0    0.00    0.04
 2000 273    41    38     0.9     0.0     0.9    0.00    4.89      0.1     1.0     0.8     0.1    5.72    2.66     0.0    1.5    0.0    0.00    0.04
 2000 274    42    39     1.0     0.0     1.0    0.00    4.87      0.1     1.1     0.8     0.2    5.72    2.66     0.0    1.5    0.0    0.00    0.04
 2000 275    43    40     1.1     0.0     1.1    0.00    4.84      0.1     1.2     0.9     0.2    5.72    2.66     0.0    1.5    0.0    0.00    0.05
 2000 276    44    41     1.1     0.0     1.1    0.00    4.84      0.1     1.3     1.0     0.2    5.72    2.66     0.0    1.5    0.0    0.00    0.05
 2000 277    45    42     1.2     0.0     1.2    0.00    4.82      0.1     1.4     1.0     0.2    5.72    2.66     0.0    1.5    0.0    0.00    0.05
 2000 278    46    43     1.3     0.0     1.3    0.00    4.80      0.1     1.5     1.1     0.2    5.72    2.66     0.0    1.5    0.0    0.00    0.05
 2000 279    47    44     1.4     0.0     1.4    0.00    4.76      0.1     1.7     1.2     0.3    5.72    2.66     0.0    1.5    0.0    0.00    0.06
 2000 280    48    45     1.5     0.0     1.5    0.00    4.73      0.1     1.8     1.3     0.3    5.72    2.66     0.0    1.5    0.0    0.00    0.06
 2000 281    49    46     1.7     0.0     1.7    0.00    4.72      0.1     2.0     1.4     0.3    5.72    2.66     0.0    1.5    0.0    0.00    0.06
 2000 282    50    47     1.9     0.0     1.9    0.00    4.70      0.1     2.2     1.5     0.4    5.72    2.66     0.0    1.5    0.0    0.00    0.06
 2000 283    51    48     2.0     0.0     2.0    0.00    4.71      0.1     2.3     1.6     0.4    5.72    2.66     0.0    1.5    0.0    0.00    0.07
 2000 284    52    49     2.2     0.0     2.2    0.00    4.69      0.1     2.5     1.7     0.4    5.72    2.66     0.0    1.5    0.0    0.00    0.07
 2000 285    53    50     2.3     0.0     2.3    0.00    4.65      0.1     2.8     1.9     0.5    5.72    2.66     0.0    1.5    0.0    0.00    0.07
 2000 286    54    51     2.6     0.0     2.6    0.00    4.59      0.1     3.1     2.0     0.6    5.72    2.66     0.0    1.5    0.0    0.00    0.07
 2000 287    55    52     2.8     0.0     2.8    0.00    4.54      0.1     3.4     2.2     0.6    5.72    2.66     0.0    1.5    0.0    0.00    0.08
 2000 288    56    53     2.9     0.0     2.9    0.00    4.54      0.1     3.6     2.3     0.7    5.72    2.66     0.0    1.5    0.0    0.00    0.08
 2000 289    57    54     3.1     0.0     3.1    0.00    4.53      0.1     3.7     2.4     0.7    5.72    2.66     0.0    1.5    0.0    0.00    0.09
 2000 290    58    55     3.3     0.0     3.3    0.00    4.50      0.2     4.0     2.5     0.8    5.73    2.66     0.0    1.5    0.0    0.00    0.09
 2000 291    59    56     3.5     0.0     3.5    0.00    4.46      0.2     4.3     2.6     0.9    5.73    2.66     0.0    1.5    0.0    0.00    0.10
 2000 292    60    57     3.7     0.0     3.7    0.00    4.43      0.2     4.5     2.7     0.9    5.73    2.66     0.0    1.5    0.0    0.00    0.10
 2000 293    61    58     3.9     0.0     3.9    0.00    4.38      0.2     4.8     2.9     1.0    5.73    2.66     0.0    1.5    0.0    0.00    0.11
 2000 294    62    59     4.2     0.0     4.2    0.00    4.39      0.2     5.1     3.1     1.1    5.73    2.66     0.0    1.5    0.0    0.00    0.11
 2000 295    63    60     4.8     0.0     4.8    0.00    4.39      0.2     5.8     3.5     1.3    5.73    2.66     0.0    1.5    0.0    0.00    0.12
 2000 296    64    61     5.1     0.0     5.1    0.00    4.39      0.2     6.2     3.8     1.4    5.73    2.66     0.0    1.5    0.0    0.00    0.13
 2000 297    65    62     5.4     0.0     5.4    0.00    4.39      0.2     6.5     4.0     1.4    5.73    2.66     0.0    1.5    0.0    0.00    0.13
 2000 298    66    63     5.8     0.0     5.8    0.00    4.39      0.2     6.9     4.2     1.5    5.73    2.67     0.0    1.5    0.0    0.00    0.14
 2000 299    67    64     6.4     0.0     6.4    0.00    4.39      0.2     7.7     4.7     1.7    5.73    2.67     0.0    1.5    0.0    0.00    0.15
 2000 300    68    65     7.0     0.0     7.0    0.00    4.35      0.2     8.4     5.2     1.9    5.70    2.64     0.0    1.5    0.0    0.00    0.16
 2000 301    69    66     8.3     0.0     8.3    0.00    4.34      0.3     9.9     6.0     2.2    5.70    2.65     0.0    1.5    0.0    0.00    0.17
 2000 302    70    67     9.3     0.0     9.3    0.00    4.34      0.3    11.1     6.8     2.5    5.70    2.65     0.0    1.5    0.0    0.00    0.18
 2000 303    71    68    10.3     0.0    10.3    0.00    4.33      0.3    12.2     7.5     2.8    5.70    2.65     0.0    1.5    0.0    0.00    0.18
 2000 304    72    69    12.0     0.0    12.0    0.00    4.32      0.3    14.1     8.7     3.3    5.70    2.65     0.0    1.5    0.0    0.00    0.19
 2000 305    73    70    13.8     0.0    13.8    0.00    4.31      0.4    16.2     9.9     3.9    5.71    2.65     0.0    1.5    0.0    0.00    0.20
 2000 306    74    71    14.7     0.0    14.7    0.00    4.31      0.4    17.2    10.5     4.1    5.71    2.65     0.0    1.5    0.0    0.00    0.22
 2000 307    75    72    16.3     0.0    16.3    0.00    4.29      0.4    19.1    11.7     4.7    5.71    2.65     0.0    1.5    0.0    0.00    0.23
 2000 308    76    73    18.4     0.0    18.4    0.00    4.27      0.5    21.5    13.1     5.3    5.70    2.64     0.0    1.5    0.0    0.00    0.24
 2000 309    77    74    20.1     0.0    20.1    0.00    4.26      0.5    23.5    14.2     5.9    5.70    2.64     0.0    1.5    0.0    0.00    0.25
 2000 310    78    75    22.5     0.0    22.5    0.00    4.24      0.5    26.3    15.8     6.7    5.69    2.63     0.0    1.5    0.0    0.00    0.27
 2000 311    79    76    25.1     0.0    25.1    0.00    4.21      0.6    29.4    17.6     7.5    5.69    2.62     0.0    1.5    0.0    0.00    0.29
 2000 312    80    77    26.9     0.0    26.9    0.00    4.21      0.6    31.5    18.7     8.1    5.70    2.62     0.0    1.5    0.0    0.02    0.31
 2000 313    81    78    29.2     0.0    29.2    0.00    4.20      0.7    34.3    20.3     8.9    5.71    2.62     0.0    1.5    0.0    0.04    0.33
 2000 314    82    79    30.5     0.0    30.5    0.00    4.20      0.7    36.0    21.2     9.4    5.72    2.62     0.0    1.5    0.0    0.07    0.36
 2000 315    83    80    33.6     0.0    33.6    0.00    4.18      0.8    39.7    23.1    10.4    5.72    2.61     0.0    1.5    0.0    0.09    0.38
 2000 316    84    81    36.9     0.0    36.9    0.00    4.15      0.8    43.6    25.2    11.6    5.72    2.59     0.0    1.5    0.0    0.13    0.41
 2000 317    85    82    40.3     0.0    40.3    0.00    4.12      0.9    47.6    27.4    12.9    5.72    2.58     0.0    1.5    0.0    0.17    0.45
 2000 318    86    83    43.3     0.0    43.3    0.00    4.11      1.0    51.1    29.3    14.0    5.73    2.58     0.0    1.5    0.0    0.20    0.47
 2000 319    87    84    45.7     0.0    45.7    0.00    4.11      1.0    53.9    30.8    14.8    5.75    2.58     0.0    1.5    0.0    0.24    0.49
 2000 320    88    85    47.9     0.0    47.9    0.00    4.12      1.0    56.5    32.2    15.7    5.77    2.59     0.0    1.5    0.0    0.28    0.50
 2000 321    89    86    51.5     0.0    51.5    0.00    4.10      1.0    60.6    34.5    17.0    5.77    2.58     0.0    1.5    0.0    0.33    0.59
 2000 322    90    87    55.5     0.0    55.5    0.00    4.06      1.7    64.7    37.0    18.5    5.75    2.56     0.0    1.5    0.6    0.42    0.63
 2000 323    91    88    59.6     0.0    59.5    0.00    3.98      2.7    68.5    39.5    20.1    5.69    2.50     4.0    1.5    0.8    0.46    0.67
 2000 324    92    89    63.3     0.0    63.2    0.00    3.89      3.8    71.8    41.7    21.5    5.60    2.44     4.0    1.5    1.0    0.51    0.72
 2000 325    93    90    66.5     0.0    66.2    0.00    3.81      5.2    74.3    43.5    22.7    5.52    2.39     4.0    1.5    1.2    0.55    0.76
 2000 326    94    91    69.7     0.0    69.2    0.00    3.70      6.8    76.6    45.5    23.7    5.42    2.30     4.0    1.4    1.4    0.60    0.80
 2000 327    95    92    73.2     0.0    72.3    0.00    3.63      8.7    78.9    47.4    24.9    5.35    2.25     4.0    1.4    1.6    0.66    0.86
 2000 328    96    93    76.7     0.0    75.5    0.00    3.57     10.9    81.1    49.2    26.2    5.30    2.22     3.9    1.4    1.9    0.73    0.93
 2000 329    97    94    79.4     0.0    77.6    0.00    3.55     13.0    82.0    50.5    27.1    5.28    2.21     3.9    1.4    2.1    0.77    0.98
 2000 330    98    95    82.3     0.0    79.9    0.00    3.47     15.6    83.1    51.9    28.0    5.21    2.14     3.9    1.4    2.2    0.82    1.02
 2000 331    99    96    85.2     0.0    82.1    0.00    3.36     18.5    84.0    53.3    28.8    5.11    2.06     3.9    1.3    2.5    0.88    1.09
 2000 332   100    97    87.7     0.0    83.8    0.00    3.34     20.8    84.6    54.3    29.5    5.09    2.04     3.9    1.3    2.3    0.95    1.16
 2000 333   101    98    89.2     0.0    84.4    0.00    3.31     21.1    86.1    54.6    29.8    5.07    2.03     3.9    1.3    0.3    1.01    1.22
 2000 334   102    99    91.8     0.0    85.9    0.00    3.29     23.7    86.4    55.4    30.5    5.05    2.02     3.9    1.3    2.5    1.05    1.27
 2000 335   103   100    94.6     0.0    87.6    0.00    3.22     27.1    86.7    56.4    31.2    4.99    1.96     3.9    1.3    2.9    1.10    1.33
 2000 336   104   101    98.3     0.0    90.3    0.00    3.20     30.7    87.5    57.9    32.3    4.96    1.95     3.9    1.3    3.3    1.15    1.38
 2000 337   105   102   102.0     0.0    92.7    0.00    3.13     34.9    88.0    59.4    33.3    4.90    1.90     3.9    1.3    3.6    1.21    1.46
 2000 338   106   103   105.9     0.0    95.2    0.00    3.11     38.1    89.1    60.8    34.5    4.89    1.90     3.8    1.3    3.1    1.28    1.54
 2000 339   107   104   108.1     0.0    96.0    0.00    3.09     39.9    89.8    61.1    34.8    4.86    1.88     3.8    1.3    1.8    1.34    1.60
 2000 340   108   105   112.5     0.0    98.8    0.00    3.07     44.3    90.3    62.6    36.2    4.86    1.88     3.8    1.3    4.3    1.39    1.66
 2000 341   109   106   116.8     0.0   101.4    0.00    3.05     49.3    90.6    64.0    37.4    4.83    1.87     3.8    1.3    4.5    1.46    1.76
 2000 342   110   107   121.1     0.0   103.8    0.00    3.03     53.7    91.0    65.2    38.6    4.82    1.86     3.8    1.3    4.4    1.54    1.87
 2000 343   111   108   124.5     0.0   105.1    0.00    3.00     56.9    91.5    65.8    39.3    4.80    1.85     3.8    1.3    3.2    1.63    2.00
 2000 344   112   109   129.2     0.0   107.6    0.00    2.99     61.7    91.8    67.0    40.6    4.79    1.84     3.8    1.3    4.9    1.72    2.12
 2000 345   113   110   133.1     0.0   109.3    0.00    2.97     66.1    92.1    67.8    41.5    4.77    1.84     3.8    1.3    4.3    2.11    2.25
 2000 346   114   111   135.5     0.0   109.7    6.42    2.95     68.8    92.7    67.9    41.8    4.75    1.82     3.8    1.3    2.8    2.95    2.39
 2000 347   115   112   138.4     0.1   111.1    6.41    2.93     73.1    93.0    68.5    42.6    4.74    1.82     3.7    1.3    4.2    4.29    2.53
 2000 348   116   113   141.7     0.3   111.9    6.56    2.91     75.5    94.8    68.7    43.1    4.71    1.80     3.7    1.3    2.4    4.87    2.66
 2000 349   117   114   144.6     0.6   112.7    6.51    2.89     79.5    95.2    69.0    43.7    4.70    1.80     3.7    1.3    4.0    6.17    2.78
 2000 350   118   115   147.8     1.0   113.5    6.41    2.88     83.6    95.8    69.3    44.2    4.69    1.80     3.7    1.3    4.1    7.38    2.89
 2000 351   119   116   150.5     1.5   113.8    6.41    2.86     88.1    96.2    69.3    44.5    4.67    1.78     3.7    1.3    4.5    8.26    2.95
 2000 352   120   117   154.7     2.0   115.0    6.36    2.84     91.3    97.8    69.8    45.2    4.65    1.77     3.7    1.3    3.2    8.75    3.02
 2000 353   121   118   158.7     2.6   116.1    6.32    2.82     96.7    97.9    70.1    45.9    4.63    1.76     3.7    1.3    4.9    9.62    3.12
 2000 354   122   119   163.2     3.3   117.0    6.30    2.80    100.5    99.0    70.4    46.6    4.61    1.75     3.7    1.3    3.7    9.71    3.20
 2000 355   123   120   167.0     4.0   118.5    6.28    2.79    105.9    99.2    71.0    47.5    4.61    1.76     3.6    1.3    5.4   11.16    3.30
 2000 356   124   121   166.3     5.0   116.8    6.26    2.76    105.9   100.6    70.0    46.8    4.58    1.74     3.6    1.3    0.0   13.39    3.75
 2000 357   125   122   170.8     6.1   117.2    6.26    2.76    111.7   100.7    70.0    47.2    4.57    1.73     3.6    1.3    5.1   13.99    3.87
 2000 358   126   123   172.8     7.4   115.5    6.26    2.74    113.2   101.4    69.0    46.4    4.54    1.72     3.6    1.3    1.5   14.32    3.94
 2000 359   127   124   175.9     8.6   115.2    6.25    2.71    119.2   101.6    68.7    46.4    4.52    1.71     3.6    1.3    5.8   15.17    4.02
 2000 360   128   125   178.8    10.0   114.7    6.28    2.69    123.8   102.0    68.3    46.4    4.50    1.69     3.6    1.3    4.5   16.44    4.16
 2000 361   129   126   180.2    11.5   114.1    6.34    2.67    127.8   103.2    67.8    46.3    4.47    1.68     3.6    1.3    4.0   18.91    4.29
 2000 362   130   127   180.6    13.4   112.1    6.33    2.65    128.9   103.5    66.7    45.4    4.44    1.66     3.5    1.2    1.1   20.17    4.40
 2000 363   131   128   181.7    15.4   110.1    6.31    2.62    132.6   104.1    65.6    44.6    4.41    1.65     3.5    1.2    3.7   22.01    4.49
 2000 364   132   129   184.8    17.8   108.2    6.29    2.60    135.4   105.0    64.5    43.8    4.38    1.63     3.5    1.2    2.7   22.12    4.58
 2000 365   133   130   187.2    20.0   107.4    6.28    2.58    140.4   106.1    63.9    43.6    4.35    1.61     3.5    1.2    5.0   24.08    4.67
 2000 366   134   131   189.1    22.6   106.5    6.28    2.55    145.7   106.6    63.2    43.3    4.32    1.60     3.4    1.2    5.3   26.53    4.77
 2001 001   135   132   191.7    25.6   105.3    6.28    2.53    151.0   107.2    62.5    42.8    4.29    1.58     3.4    1.2    5.4   28.35    4.88
 2001 002   136   133   194.2    28.8   104.0    6.28    2.50    156.7   107.4    61.7    42.3    4.26    1.57     3.4    1.2    5.7   30.28    4.98
 2001 003   137   134   196.7    32.3   102.6    6.30    2.48    161.1   108.6    60.8    41.8    4.22    1.55     3.4    1.2    4.4   32.09    5.09
 2001 004   138   135   198.0    36.0   100.3    6.33    2.45    164.1   109.4    59.5    40.8    4.19    1.53     3.3    1.2    3.0   33.91    5.21
 2001 005   139   136   200.1    40.2    98.4    6.36    2.42    169.6   109.6    58.3    40.0    4.15    1.51     3.3    1.2    5.4   35.95    5.33
 2001 006   140   137   201.8    44.5    96.4    6.39    2.39    173.9   110.4    57.2    39.2    4.11    1.49     3.3    1.2    4.4   38.30    5.44
 2001 007   141   138   203.0    49.5    94.1    6.39    2.36    175.0   111.5    55.8    38.2    4.06    1.46     3.2    1.2    1.1   39.20    5.55
 2001 008   142   139   204.8    54.6    91.8    6.39    2.33    179.1   111.9    54.5    37.3    4.02    1.44     3.2    1.2    4.1   40.79    5.65
 2001 009   143   140   208.0    59.9    89.5    6.38    2.29    183.2   112.8    53.2    36.3    3.97    1.42     3.1    1.2    4.1   41.80    5.75
 2001 010   144   141   209.0    65.1    87.4    6.37    2.26    183.9   113.7    52.0    35.4    3.93    1.39     3.1    1.1    0.6   42.43    5.82
 2001 011   145   142   212.2    70.5    85.3    6.36    2.23    188.7   114.5    50.8    34.5    3.88    1.37     3.0    1.1    4.9   43.53    5.88
 2001 012   146   143   215.9    75.7    83.5    6.36    2.19    193.3   115.2    49.7    33.8    3.84    1.35     3.0    1.1    4.5   44.15    5.94
 2001 013   147   144   219.4    81.6    81.4    6.34    2.16    196.8   116.3    48.5    32.9    3.79    1.32     2.9    1.1    3.5   44.84    6.01
 2001 014   148   145   221.2    88.3    79.0    6.35    2.12    199.2   117.0    47.1    31.9    3.73    1.29     2.9    1.1    2.3   45.91    6.11
 2001 015   149   146   224.2    95.4    76.6    6.36    2.08    203.2   117.5    45.7    30.9    3.67    1.27     2.8    1.1    4.0   46.92    6.20
 2001 016   150   147   227.5   102.8    74.3    6.37    2.04    206.6   118.2    44.4    29.9    3.61    1.24     2.7    1.1    3.4   47.48    6.30
 2001 017   151   148   228.9   109.4    72.0    6.37    1.99    208.3   119.0    43.0    29.0    3.55    1.21     2.7    1.1    1.7   48.68    6.38
 2001 018   152   149   230.1   115.3    69.7    6.37    1.95    209.4   119.7    41.7    28.0    3.49    1.18     2.6    1.1    1.1   49.39    6.46
 2001 019   153   150   232.0   121.7    67.5    6.38    1.91    211.2   120.4    40.4    27.1    3.43    1.15     2.5    1.1    1.8   50.05    6.54
 2001 020   154   151   236.5   129.8    65.5    6.37    1.87    215.6   121.3    39.2    26.3    3.37    1.12     2.4    1.1    4.5   50.56    6.61
 2001 021   155   152   241.3   137.9    63.5    6.36    1.83    220.4   121.8    38.1    25.5    3.31    1.10     2.4    1.0    4.8   50.94    6.67
 2001 022   156   153   243.3   143.6    61.5    6.36    1.79    221.9   122.6    36.9    24.7    3.25    1.07     2.3    1.0    1.5   51.26    6.74
 2001 023   157   154   247.8   151.8    59.5    6.38    1.75    225.5   123.7    35.7    23.8    3.19    1.04     2.2    1.0    3.6   51.52    6.82
 2001 024   158   155   252.1   159.6    57.6    6.39    1.70    229.7   124.0    34.6    23.0    3.12    1.01     2.1    1.0    4.2   51.81    6.89
 2001 025   159   156   256.0   167.0    55.7    6.41    1.66    233.4   124.4    33.4    22.3    3.06    0.98     2.0    1.0    3.7   52.07    6.98
 2001 026   160   157   259.0   173.4    53.8    6.43    1.62    235.0   125.9    32.3    21.5    2.99    0.96     2.0    1.0    1.6   52.22    7.06
 2001 027   161   158   259.3   176.9    52.0    6.41    1.58    235.0   126.4    31.2    20.8    2.93    0.93     1.9    1.0    0.0   52.36    7.28
 2001 028   162   159   252.0   179.6    43.2    6.39    1.47    235.0   126.6    24.1    19.0    2.86    0.91     1.8    1.0    0.0   59.80    7.34
 2001 029   163   160   247.4   182.9    36.3    6.29    1.36    235.0   127.7    18.7    17.6    2.78    0.88     1.8    1.0    0.0   65.54    7.39
 2001 030   164   161   243.8   185.8    30.9    6.23    1.26    235.0   128.4    14.5    16.4    2.71    0.86     1.7    1.0    0.0   69.97    7.45
 2001 031   165   162   240.7   188.0    26.6    6.19    1.18    235.0   128.8    11.2    15.4    2.64    0.84     1.7    1.0    0.0   73.39    7.52
 2001 032   166   163   238.2   189.9    23.2    6.19    1.10    235.0   128.9     8.6    14.6    2.57    0.82     1.6    1.0    0.0   76.04    7.98
 2001 033   167   164   236.4   191.7    20.5    6.20    1.03    235.0   129.1     6.7    13.8    2.51    0.80     1.5    1.0    0.0   78.09    8.48
 2001 034   168   165   234.9   193.1    18.5    6.20    0.97    235.0   129.2     5.2    13.3    2.46    0.78     1.5    1.0    0.0   79.67    8.92
 2001 035   169   166   233.7   194.1    16.9    6.20    0.92    235.0   129.2     4.1    12.8    2.42    0.77     1.5    1.0    0.0   80.91    9.35
 2001 036   170   167   232.8   194.5    15.8    6.20    0.89    235.0   129.2     3.2    12.6    2.41    0.77     1.4    1.0    0.0   81.88    9.75
 2001 037   171   168   232.0   194.5    15.1    6.20    0.87    235.0   129.2     2.6    12.5    2.41    0.77     1.4    1.0    0.0   82.64   10.13
 2001 038   172   169   231.4   194.5    14.5    6.20    0.85    235.0   129.2     2.1    12.4    2.42    0.77     1.4    1.0    0.0   83.26   10.49
 2001 039   173   170   230.9   194.5    14.0    6.20    0.84    235.0   129.2     1.7    12.3    2.42    0.77     1.4    1.0    0.0   83.75   10.84

*DSSAT Cropping System Model Ver. 4.0.2.000               Aug 23, 2016; 17:58:30

*RUN   3        : UYSB                    
 MODEL          : CRGRO040 - Soybean         
 EXPERIMENT     : UYSB0277 SB    late to create DSS                             
 TREATMENT  1   : UYSB                    

@YEAR DOY   DAS   DAP    CNAD    GNAD    VNAD    GN%D    VN%D     NFXC    NUPC    LNAD    SNAD    LN%D    SN%D    SHND   RN%D   NFXD   SNN0C   SNN1C
 2001 235     3     0     0.0     0.0     0.0    0.00    0.00      0.0     0.0     0.0     0.0    0.00    0.00     0.0    0.0    0.0    0.00    0.00
 2001 236     4     1     0.0     0.0     0.0    0.00    0.00      0.0     0.0     0.0     0.0    0.00    0.00     0.0    0.0    0.0    0.00    0.00
 2001 237     5     2     0.0     0.0     0.0    0.00    0.00      0.0     0.0     0.0     0.0    0.00    0.00     0.0    0.0    0.0    0.00    0.00
 2001 238     6     3     0.0     0.0     0.0    0.00    0.00      0.0     0.0     0.0     0.0    0.00    0.00     0.0    0.0    0.0    0.00    0.00
 2001 239     7     4     0.0     0.0     0.0    0.00    0.00      0.0     0.0     0.0     0.0    0.00    0.00     0.0    0.0    0.0    0.00    0.00
 2001 240     8     5     0.0     0.0     0.0    0.00    0.00      0.0     0.0     0.0     0.0    0.00    0.00     0.0    0.0    0.0    0.00    0.00
 2001 241     9     6     0.0     0.0     0.0    0.00    0.00      0.0     0.0     0.0     0.0    0.00    0.00     0.0    0.0    0.0    0.00    0.00
 2001 242    10     7     0.0     0.0     0.0    0.00    0.00      0.0     0.0     0.0     0.0    0.00    0.00     0.0    0.0    0.0    0.00    0.00
 2001 243    11     8     0.0     0.0     0.0    0.00    0.00      0.0     0.0     0.0     0.0    0.00    0.00     0.0    0.0    0.0    0.00    0.00
 2001 244    12     9     0.0     0.0     0.0    0.00    0.00      0.0     0.0     0.0     0.0    0.00    0.00     0.0    0.0    0.0    0.00    0.00
 2001 245    13    10     0.2     0.0     0.2    0.00    5.15      0.0     0.0     0.2     0.0    5.70    2.64     0.0    1.5    0.0    0.00    0.00
 2001 246    14    11     0.2     0.0     0.2    0.00    5.16      0.0     0.0     0.2     0.0    5.70    2.64     0.0    1.5    0.0    0.00    0.01
 2001 247    15    12     0.2     0.0     0.2    0.00    5.17      0.0     0.0     0.2     0.0    5.70    2.64     0.0    1.5    0.0    0.00    0.01
 2001 248    16    13     0.2     0.0     0.2    0.00    5.18      0.0     0.0     0.2     0.0    5.70    2.65     0.0    1.5    0.0    0.00    0.01
 2001 249    17    14     0.2     0.0     0.2    0.00    5.18      0.0     0.0     0.2     0.0    5.70    2.65     0.0    1.5    0.0    0.00    0.01
 2001 250    18    15     0.2     0.0     0.2    0.00    5.19      0.0     0.1     0.2     0.0    5.71    2.65     0.0    1.5    0.0    0.00    0.02
 2001 251    19    16     0.2     0.0     0.2    0.00    5.17      0.0     0.1     0.2     0.0    5.71    2.65     0.0    1.5    0.0    0.00    0.02
 2001 252    20    17     0.3     0.0     0.3    0.00    5.16      0.0     0.1     0.2     0.0    5.71    2.65     0.0    1.5    0.0    0.00    0.02
 2001 253    21    18     0.3     0.0     0.3    0.00    5.14      0.0     0.1     0.2     0.0    5.71    2.65     0.0    1.5    0.0    0.00    0.02
 2001 254    22    19     0.3     0.0     0.3    0.00    5.12      0.1     0.1     0.3     0.0    5.71    2.65     0.0    1.5    0.0    0.00    0.02
 2001 255    23    20     0.3     0.0     0.3    0.00    5.10      0.1     0.2     0.3     0.0    5.71    2.65     0.0    1.5    0.0    0.00    0.02
 2001 256    24    21     0.3     0.0     0.3    0.00    5.07      0.1     0.2     0.3     0.0    5.71    2.65     0.0    1.5    0.0    0.00    0.02
 2001 257    25    22     0.3     0.0     0.3    0.00    5.06      0.1     0.2     0.3     0.0    5.71    2.65     0.0    1.5    0.0    0.00    0.02
 2001 258    26    23     0.3     0.0     0.3    0.00    5.05      0.1     0.2     0.3     0.0    5.71    2.65     0.0    1.5    0.0    0.00    0.02
 2001 259    27    24     0.3     0.0     0.3    0.00    5.03      0.1     0.2     0.3     0.0    5.71    2.65     0.0    1.5    0.0    0.00    0.03
 2001 260    28    25     0.4     0.0     0.4    0.00    5.01      0.1     0.2     0.3     0.0    5.71    2.65     0.0    1.5    0.0    0.00    0.03
 2001 261    29    26     0.4     0.0     0.4    0.00    4.98      0.1     0.3     0.3     0.0    5.71    2.65     0.0    1.5    0.0    0.00    0.03
 2001 262    30    27     0.4     0.0     0.4    0.00    4.94      0.1     0.3     0.3     0.1    5.71    2.65     0.0    1.5    0.0    0.00    0.03
 2001 263    31    28     0.4     0.0     0.4    0.00    4.90      0.1     0.3     0.4     0.1    5.72    2.65     0.0    1.5    0.0    0.00    0.03
 2001 264    32    29     0.4     0.0     0.4    0.00    4.87      0.1     0.4     0.4     0.1    5.72    2.65     0.0    1.5    0.0    0.00    0.03
 2001 265    33    30     0.5     0.0     0.5    0.00    4.90      0.1     0.4     0.4     0.1    5.72    2.66     0.0    1.5    0.0    0.00    0.03
 2001 266    34    31     0.5     0.0     0.5    0.00    4.91      0.1     0.5     0.5     0.1    5.72    2.66     0.0    1.5    0.0    0.00    0.03
 2001 267    35    32     0.6     0.0     0.6    0.00    4.91      0.1     0.5     0.5     0.1    5.72    2.66     0.0    1.5    0.0    0.00    0.03
 2001 268    36    33     0.6     0.0     0.6    0.00    4.93      0.1     0.6     0.5     0.1    5.72    2.66     0.0    1.5    0.0    0.00    0.04
 2001 269    37    34     0.6     0.0     0.6    0.00    4.94      0.1     0.6     0.6     0.1    5.72    2.66     0.0    1.5    0.0    0.00    0.04
 2001 270    38    35     0.7     0.0     0.7    0.00    4.95      0.1     0.7     0.6     0.1    5.72    2.66     0.0    1.5    0.0    0.00    0.04
 2001 271    39    36     0.7     0.0     0.7    0.00    4.95      0.1     0.7     0.6     0.1    5.72    2.66     0.0    1.5    0.0    0.00    0.04
 2001 272    40    37     0.8     0.0     0.8    0.00    4.95      0.1     0.8     0.7     0.1    5.72    2.66     0.0    1.5    0.0    0.00    0.04
 2001 273    41    38     0.8     0.0     0.8    0.00    4.95      0.1     0.9     0.7     0.1    5.72    2.66     0.0    1.5    0.0    0.00    0.05
 2001 274    42    39     0.9     0.0     0.9    0.00    4.91      0.1     0.9     0.8     0.1    5.68    2.64     0.0    1.5    0.0    0.00    0.05
 2001 275    43    40     0.9     0.0     0.9    0.00    4.92      0.1     1.0     0.8     0.1    5.69    2.65     0.0    1.5    0.0    0.00    0.05
 2001 276    44    41     1.0     0.0     1.0    0.00    4.91      0.1     1.0     0.9     0.1    5.70    2.65     0.0    1.5    0.0    0.00    0.05
 2001 277    45    42     1.1     0.0     1.1    0.00    4.85      0.1     1.2     0.9     0.2    5.70    2.65     0.0    1.5    0.0    0.00    0.05
 2001 278    46    43     1.2     0.0     1.2    0.00    4.84      0.1     1.3     1.0     0.2    5.70    2.65     0.0    1.5    0.0    0.00    0.05
 2001 279    47    44     1.4     0.0     1.4    0.00    4.82      0.1     1.5     1.2     0.2    5.70    2.65     0.0    1.5    0.0    0.00    0.05
 2001 280    48    45     1.5     0.0     1.5    0.00    4.82      0.1     1.6     1.2     0.2    5.70    2.65     0.0    1.5    0.0    0.00    0.06
 2001 281    49    46     1.6     0.0     1.6    0.00    4.79      0.1     1.8     1.3     0.3    5.71    2.65     0.0    1.5    0.0    0.00    0.06
 2001 282    50    47     1.7     0.0     1.7    0.00    4.77      0.1     1.9     1.4     0.3    5.71    2.65     0.0    1.5    0.0    0.00    0.06
 2001 283    51    48     1.9     0.0     1.9    0.00    4.69      0.1     2.2     1.6     0.4    5.71    2.65     0.0    1.5    0.0    0.00    0.06
 2001 284    52    49     2.2     0.0     2.2    0.00    4.61      0.1     2.5     1.7     0.4    5.71    2.65     0.0    1.5    0.0    0.00    0.06
 2001 285    53    50     2.4     0.0     2.4    0.00    4.59      0.1     2.7     1.9     0.5    5.71    2.65     0.0    1.5    0.0    0.00    0.07
 2001 286    54    51     2.6     0.0     2.6    0.00    4.54      0.1     3.1     2.0     0.6    5.71    2.65     0.0    1.5    0.0    0.00    0.07
 2001 287    55    52     2.9     0.0     2.9    0.00    4.47      0.1     3.5     2.2     0.7    5.71    2.65     0.0    1.5    0.0    0.00    0.07
 2001 288    56    53     3.1     0.0     3.1    0.00    4.45      0.1     3.7     2.3     0.8    5.71    2.65     0.0    1.5    0.0    0.00    0.08
 2001 289    57    54     3.3     0.0     3.3    0.00    4.41      0.2     3.9     2.4     0.8    5.72    2.66     0.0    1.5    0.0    0.00    0.08
 2001 290    58    55     3.7     0.0     3.7    0.00    4.41      0.2     4.4     2.8     0.9    5.72    2.66     0.0    1.5    0.0    0.00    0.09
 2001 291    59    56     4.2     0.0     4.2    0.00    4.42      0.2     5.0     3.1     1.1    5.72    2.66     0.0    1.5    0.0    0.00    0.10
 2001 292    60    57     4.9     0.0     4.9    0.00    4.41      0.2     5.8     3.6     1.2    5.72    2.66     0.0    1.5    0.0    0.00    0.10
 2001 293    61    58     5.6     0.0     5.6    0.00    4.41      0.2     6.6     4.2     1.4    5.72    2.66     0.0    1.5    0.0    0.00    0.11
 2001 294    62    59     6.3     0.0     6.3    0.00    4.41      0.2     7.4     4.7     1.6    5.72    2.66     0.0    1.5    0.0    0.00    0.11
 2001 295    63    60     7.1     0.0     7.1    0.00    4.40      0.2     8.3     5.2     1.8    5.72    2.66     0.0    1.5    0.0    0.00    0.12
 2001 296    64    61     8.0     0.0     8.0    0.00    4.39      0.3     9.3     5.9     2.1    5.72    2.66     0.0    1.5    0.0    0.00    0.12
 2001 297    65    62     9.2     0.0     9.2    0.00    4.38      0.3    10.7     6.8     2.4    5.72    2.66     0.0    1.5    0.0    0.00    0.13
 2001 298    66    63    10.6     0.0    10.6    0.00    4.37      0.3    12.3     7.7     2.8    5.72    2.66     0.0    1.5    0.0    0.00    0.14
 2001 299    67    64    11.3     0.0    11.3    0.00    4.37      0.3    13.2     8.3     3.0    5.72    2.66     0.0    1.5    0.0    0.00    0.15
 2001 300    68    65    11.9     0.0    11.9    0.00    4.33      0.3    13.9     8.7     3.2    5.68    2.64     0.0    1.5    0.0    0.01    0.17
 2001 301    69    66    12.6     0.0    12.6    0.00    4.29      0.4    14.6     9.2     3.4    5.65    2.61     0.0    1.5    0.1    0.02    0.19
 2001 302    70    67    13.4     0.0    13.4    0.00    4.25      0.6    15.3     9.7     3.7    5.62    2.58     0.0    1.5    0.2    0.04    0.22
 2001 303    71    68    15.2     0.0    15.2    0.00    4.24      0.7    17.5    11.0     4.3    5.63    2.58     0.0    1.5    0.0    0.05    0.23
 2001 304    72    69    17.4     0.0    17.4    0.00    4.25      0.7    20.2    12.4     4.9    5.67    2.61     0.0    1.5    0.0    0.05    0.24
 2001 305    73    70    19.8     0.0    19.8    0.00    4.24      0.7    23.0    14.0     5.7    5.68    2.61     0.0    1.5    0.0    0.05    0.25
 2001 306    74    71    21.9     0.0    21.9    0.00    4.23      0.8    25.6    15.5     6.4    5.69    2.61     0.0    1.5    0.0    0.05    0.26
 2001 307    75    72    24.4     0.0    24.4    0.00    4.21      0.8    28.6    17.1     7.2    5.69    2.60     0.0    1.5    0.0    0.05    0.28
 2001 308    76    73    27.2     0.0    27.2    0.00    4.19      0.9    32.0    19.0     8.2    5.69    2.60     0.0    1.5    0.0    0.05    0.30
 2001 309    77    74    30.4     0.0    30.4    0.00    4.17      0.9    35.7    21.1     9.3    5.69    2.59     0.0    1.5    0.0    0.05    0.32
 2001 310    78    75    32.4     0.0    32.4    0.00    4.17      1.0    38.3    22.4    10.0    5.71    2.60     0.0    1.5    0.0    0.08    0.35
 2001 311    79    76    33.6     0.0    33.6    0.00    4.18      1.0    39.9    23.2    10.4    5.73    2.61     0.0    1.5    0.0    0.11    0.40
 2001 312    80    77    36.1     0.0    36.1    0.00    4.17      1.0    43.0    24.8    11.3    5.74    2.60     0.0    1.5    0.0    0.14    0.42
 2001 313    81    78    37.9     0.0    37.9    0.00    4.00      1.8    44.4    26.0    11.9    5.61    2.46     0.0    1.5    0.7    0.21    0.45
 2001 314    82    79    39.4     0.0    39.4    0.00    3.94      2.7    45.4    26.9    12.4    5.55    2.42     0.0    1.4    0.8    0.25    0.49
 2001 315    83    80    42.2     0.0    42.1    0.00    3.77      3.8    47.7    28.8    13.3    5.40    2.29     4.0    1.4    0.9    0.29    0.52
 2001 316    84    81    45.8     0.0    45.7    0.00    3.72      5.0    50.8    31.0    14.7    5.36    2.26     4.0    1.4    1.0    0.33    0.56
 2001 317    85    82    49.4     0.0    49.1    0.00    3.84      5.0    54.8    33.1    16.0    5.50    2.37     4.0    1.5    0.0    0.33    0.69
 2001 318    86    83    52.6     0.0    52.0    0.00    3.80      6.2    57.5    34.8    17.1    5.49    2.34     4.0    1.4    1.1    0.43    0.73
 2001 319    87    84    55.8     0.0    54.7    0.00    3.67      7.7    59.8    36.5    18.2    5.34    2.26     4.0    1.4    1.2    0.48    0.77
 2001 320    88    85    58.3     0.0    56.7    0.00    3.58      9.3    61.2    37.7    18.9    5.27    2.19     4.0    1.4    1.4    0.51    0.80
 2001 321    89    86    60.9     0.0    58.8    0.00    3.47     11.2    62.6    39.1    19.7    5.17    2.10     3.9    1.4    1.6    0.55    0.83
 2001 322    90    87    63.9     0.0    61.2    0.00    3.36     13.4    64.1    40.6    20.5    5.07    2.02     3.9    1.3    1.9    0.59    0.87
 2001 323    91    88    66.7     0.0    63.2    0.00    3.28     15.9    65.1    41.9    21.3    5.00    1.96     3.9    1.3    2.2    0.65    0.93
 2001 324    92    89    69.3     0.0    64.9    0.00    3.18     18.9    65.6    43.0    21.9    4.91    1.88     3.9    1.3    2.5    0.71    0.99
 2001 325    93    90    71.8     0.0    66.3    0.00    3.15     21.1    66.2    43.7    22.6    4.88    1.87     3.9    1.3    2.2    0.77    1.06
 2001 326    94    91    75.7     0.0    68.9    0.00    3.14     23.8    67.8    45.2    23.8    4.87    1.87     3.9    1.3    2.7    0.83    1.12
 2001 327    95    92    78.8     0.0    70.7    0.00    3.07     27.3    68.3    46.1    24.6    4.80    1.83     3.8    1.3    3.0    0.90    1.20
 2001 328    96    93    80.2     0.0    70.5    0.00    3.04     27.4    69.6    46.0    24.5    4.77    1.81     3.8    1.3    0.1    0.94    1.43
 2001 329    97    94    82.4     0.0    71.3    0.00    3.02     28.9    70.6    46.4    24.9    4.75    1.80     3.8    1.3    1.5    0.97    1.47
 2001 330    98    95    83.8     0.0    71.0    0.00    2.99     29.8    71.2    46.2    24.8    4.72    1.78     3.8    1.3    0.9    1.02    1.54
 2001 331    99    96    87.3     0.0    72.6    0.00    2.93     33.5    71.8    47.1    25.5    4.66    1.74     3.8    1.2    3.2    1.07    1.60
 2001 332   100    97    91.3     0.0    74.8    0.00    2.90     37.4    72.6    48.2    26.5    4.64    1.73     3.8    1.2    3.5    1.12    1.65
 2001 333   101    98    95.1     0.0    76.7    0.00    2.88     41.1    73.1    49.2    27.5    4.62    1.72     3.8    1.2    3.5    1.16    1.70
 2001 334   102    99    96.5     0.0    76.1    0.00    2.87     42.1    73.6    48.9    27.3    4.60    1.71     3.8    1.2    1.0    1.20    1.74
 2001 335   103   100   100.7     0.0    78.4    0.00    2.85     46.6    74.0    50.0    28.4    4.60    1.71     3.8    1.2    4.2    1.25    1.79
 2001 336   104   101   104.4     0.0    80.4    0.00    2.83     50.1    75.0    51.0    29.4    4.57    1.70     3.8    1.2    3.4    1.54    1.85
 2001 337   105   102   105.3     0.0    79.7    6.26    2.79     51.1    75.5    50.6    29.2    4.53    1.67     3.8    1.2    0.9    2.14    1.90
 2001 338   106   103   107.0     0.1    79.2    6.23    2.77     52.2    76.2    50.2    29.0    4.50    1.66     3.7    1.2    1.0    2.20    1.95
 2001 339   107   104   108.8     0.2    79.7    6.20    2.75     55.1    76.4    50.4    29.4    4.49    1.65     3.7    1.2    2.8    3.19    2.01
 2001 340   108   105   111.4     0.4    81.0    6.19    2.73     57.8    77.6    50.9    30.1    4.47    1.64     3.7    1.2    2.6    4.18    2.08
 2001 341   109   106   114.3     0.7    82.7    6.20    2.72     61.8    78.2    51.7    31.0    4.46    1.65     3.7    1.2    3.9    5.57    2.15
 2001 342   110   107   116.6     1.0    83.6    6.28    2.71     65.0    78.6    52.0    31.6    4.45    1.65     3.7    1.2    3.1    6.65    2.19
 2001 343   111   108   119.7     1.4    84.8    6.38    2.70     67.3    79.7    52.6    32.3    4.44    1.64     3.7    1.2    2.3    6.71    2.23
 2001 344   112   109   123.1     1.8    86.2    6.34    2.68     70.7    80.6    53.1    33.1    4.43    1.64     3.6    1.2    3.3    7.32    2.29
 2001 345   113   110   126.3     2.3    87.2    6.32    2.67     74.5    80.8    53.5    33.7    4.42    1.64     3.6    1.2    3.7    7.88    2.34
 2001 346   114   111   128.8     2.9    87.7    6.30    2.65     77.2    81.8    53.6    34.1    4.40    1.63     3.6    1.2    2.6    8.80    2.42
 2001 347   115   112   130.6     3.6    88.2    6.31    2.64     80.3    82.3    53.7    34.4    4.39    1.63     3.6    1.2    3.2   10.50    2.52
 2001 348   116   113   132.8     4.5    88.9    6.31    2.63     83.6    83.2    53.9    35.0    4.38    1.63     3.6    1.2    3.3   12.29    2.61
 2001 349   117   114   136.1     5.5    89.9    6.28    2.63     88.6    83.5    54.3    35.7    4.38    1.63     3.6    1.2    5.0   13.65    2.69
 2001 350   118   115   137.5     6.6    90.1    6.27    2.61     93.2    83.9    54.2    35.9    4.36    1.62     3.6    1.2    4.6   15.92    2.77
 2001 351   119   116   141.6     7.8    90.7    6.25    2.59     98.5    84.5    54.4    36.3    4.34    1.62     3.5    1.2    5.3   16.00    2.85
 2001 352   120   117   143.7     9.0    92.0    6.24    2.59    103.2    85.0    54.9    37.1    4.34    1.62     3.5    1.2    4.7   18.90    2.94
 2001 353   121   118   146.5    10.6    91.1    6.25    2.57    106.7    85.4    54.3    36.8    4.32    1.61     3.5    1.2    3.5   19.37    3.04
 2001 354   122   119   148.2    12.2    89.8    6.28    2.55    109.9    85.6    53.5    36.3    4.29    1.59     3.5    1.2    3.2   20.54    3.15
 2001 355   123   120   148.8    13.8    88.4    6.27    2.53    110.0    87.0    52.7    35.7    4.26    1.58     3.5    1.2    0.1   21.51    3.46
 2001 356   124   121   151.2    15.6    87.9    6.26    2.51    115.5    87.5    52.3    35.6    4.24    1.57     3.5    1.2    5.3   22.84    3.53
 2001 357   125   122   154.5    17.3    88.7    6.25    2.50    119.3    88.6    52.6    36.1    4.23    1.57     3.4    1.2    3.8   24.25    3.60
 2001 358   126   123   157.2    19.3    88.4    6.25    2.48    124.6    88.9    52.3    36.1    4.21    1.56     3.4    1.2    5.3   25.63    3.67
 2001 359   127   124   160.2    21.4    88.1    6.24    2.46    129.6    89.7    52.0    36.1    4.19    1.54     3.4    1.2    4.9   26.83    3.74
 2001 360   128   125   163.4    23.6    87.6    6.24    2.44    134.8    89.9    51.6    35.9    4.16    1.53     3.4    1.2    5.2   27.71    3.83
 2001 361   129   126   166.3    26.1    86.8    6.26    2.42    139.2    90.5    51.1    35.7    4.13    1.52     3.4    1.2    4.4   28.63    3.93
 2001 362   130   127   168.5    28.6    85.9    6.27    2.39    143.9    90.9    50.5    35.4    4.10    1.50     3.3    1.2    4.6   30.10    4.03
 2001 363   131   128   170.3    31.4    84.6    6.28    2.37    148.1    91.3    49.7    34.9    4.07    1.48     3.3    1.2    4.3   31.92    4.13
 2001 364   132   129   171.4    34.4    83.3    6.30    2.34    151.6    92.5    48.9    34.3    4.03    1.47     3.3    1.2    3.4   34.32    4.22
 2001 365   133   130   172.8    37.7    81.4    6.31    2.32    154.6    93.0    47.9    33.5    3.99    1.45     3.3    1.2    3.1   35.78    4.31
 2002 001   134   131   176.0    41.3    80.0    6.31    2.29    159.6    93.6    47.0    33.0    3.96    1.43     3.2    1.2    5.0   36.66    4.40
 2002 002   135   132   179.0    45.0    78.5    6.31    2.26    164.1    93.8    46.1    32.3    3.92    1.41     3.2    1.2    4.5   37.45    4.49
 2002 003   136   133   181.6    48.8    77.1    6.30    2.24    168.9    94.2    45.4    31.8    3.88    1.39     3.2    1.1    4.8   38.82    4.58
 2002 004   137   134   183.9    52.9    75.5    6.29    2.21    173.2    94.6    44.4    31.1    3.84    1.37     3.1    1.1    4.2   40.23    4.68
 2002 005   138   135   184.1    57.3    73.7    6.29    2.18    173.8    95.4    43.4    30.3    3.80    1.35     3.1    1.1    0.7   41.50    4.76
 2002 006   139   136   186.4    62.0    71.9    6.28    2.15    176.4    96.5    42.4    29.5    3.76    1.33     3.0    1.1    2.6   42.14    4.83
 2002 007   140   137   189.5    66.6    70.4    6.27    2.12    181.2    96.8    41.5    28.9    3.72    1.31     3.0    1.1    4.7   43.11    4.90
 2002 008   141   138   192.5    71.1    69.1    6.27    2.09    185.9    97.1    40.7    28.4    3.68    1.29     3.0    1.1    4.7   44.12    4.97
 2002 009   142   139   195.7    76.3    67.3    6.26    2.05    190.0    97.5    39.7    27.6    3.63    1.27     2.9    1.1    4.1   44.88    5.05
 2002 010   143   140   198.8    81.7    65.5    6.26    2.02    194.3    97.7    38.7    26.8    3.58    1.24     2.9    1.1    4.3   45.71    5.14
 2002 011   144   141   201.2    87.4    63.7    6.27    1.98    197.6    98.1    37.6    26.0    3.53    1.22     2.8    1.1    3.2   46.99    5.29
 2002 012   145   142   202.3    93.1    61.6    6.27    1.93    199.1    98.3    36.4    25.2    3.45    1.18     2.7    1.1    1.5   47.68    5.56
 2002 013   146   143   203.0    98.5    59.4    6.25    1.88    199.8    98.8    35.2    24.2    3.38    1.14     2.6    1.1    0.7   48.35    5.84
 2002 014   147   144   204.2   103.4    57.8    6.24    1.85    201.3    99.2    34.2    23.5    3.33    1.12     2.6    1.1    1.5   48.97    5.92
 2002 015   148   145   207.4   109.0    56.3    6.22    1.82    204.9    99.4    33.4    22.9    3.29    1.10     2.5    1.1    3.6   49.53    5.98
 2002 016   149   146   207.9   113.8    54.0    6.17    1.77    206.2    99.6    31.9    22.1    3.23    1.07     2.4    1.0    1.3   50.62    6.23
 2002 017   150   147   207.9   118.1    51.6    6.11    1.73    207.3    99.9    30.4    21.3    3.17    1.05     2.3    1.0    1.1   51.72    6.48
 2002 018   151   148   208.2   121.9    49.8    6.08    1.68    207.6   100.1    29.3    20.5    3.10    1.02     2.3    1.0    0.3   51.82    6.78
 2002 019   152   149   208.0   125.8    47.9    6.09    1.64    207.7   100.2    28.2    19.7    3.03    0.99     2.2    1.0    0.0   52.23    7.21
 2002 020   153   150   207.2   128.7    45.8    6.10    1.59    207.7   100.2    26.9    18.9    2.97    0.96     2.1    1.0    0.0   53.12    7.65
 2002 021   154   151   200.6   132.1    37.7    6.10    1.47    207.7   100.3    20.6    17.2    2.87    0.93     2.0    1.0    0.0   59.88    8.07
 2002 022   155   152   195.6   133.9    32.0    6.11    1.38    207.7   100.3    16.0    16.0    2.82    0.91     1.9    1.0    0.0   64.91    8.46
 2002 023   156   153   191.7   135.5    27.5    6.11    1.29    207.7   100.3    12.5    15.1    2.77    0.90     1.9    1.0    0.0   68.84    8.83
 2002 024   157   154   188.7   137.5    23.8    6.12    1.20    207.7   100.3     9.7    14.1    2.70    0.87     1.8    1.0    0.0   71.90    9.17
 2002 025   158   155   186.9   139.7    20.9    6.12    1.13    207.7   100.8     7.5    13.4    2.64    0.85     1.8    1.0    0.0   74.30    9.46
 2002 026   159   156   185.1   140.6    18.8    6.12    1.07    207.7   100.8     5.9    12.9    2.61    0.84     1.7    1.0    0.0   76.11    9.73
 2002 027   160   157   183.7   141.4    17.1    6.12    1.02    207.7   100.8     4.6    12.5    2.58    0.84     1.7    1.0    0.0   77.51    9.99
 2002 028   161   158   182.6   142.1    15.8    6.13    0.98    207.7   100.8     3.7    12.2    2.55    0.83     1.7    1.0    0.0   78.61   10.23
 2002 029   162   159   181.8   142.3    14.9    6.13    0.95    207.7   100.8     2.9    12.0    2.55    0.83     1.7    1.0    0.0   79.48   10.46
 2002 030   163   160   181.1   142.3    14.2    6.13    0.93    207.7   100.8     2.3    11.9    2.56    0.83     1.7    1.0    0.0   80.17   10.71
 2002 031   164   161   180.5   142.3    13.6    6.13    0.91    207.7   100.8     1.9    11.8    2.56    0.83     1.7    1.0    0.0   80.72   10.90
 2002 032   165   162   180.1   142.3    13.2    6.13    0.90    207.7   100.8     1.5    11.7    2.57    0.83     1.7    1.0    0.0   81.17   11.09

*DSSAT Cropping System Model Ver. 4.0.2.000               Aug 23, 2016; 17:58:30

*RUN   4        : UYSB                    
 MODEL          : CRGRO040 - Soybean         
 EXPERIMENT     : UYSB0277 SB    late to create DSS                             
 TREATMENT  1   : UYSB                    

@YEAR DOY   DAS   DAP    CNAD    GNAD    VNAD    GN%D    VN%D     NFXC    NUPC    LNAD    SNAD    LN%D    SN%D    SHND   RN%D   NFXD   SNN0C   SNN1C
 2002 235     3     0     0.0     0.0     0.0    0.00    0.00      0.0     0.0     0.0     0.0    0.00    0.00     0.0    0.0    0.0    0.00    0.00
 2002 236     4     1     0.0     0.0     0.0    0.00    0.00      0.0     0.0     0.0     0.0    0.00    0.00     0.0    0.0    0.0    0.00    0.00
 2002 237     5     2     0.0     0.0     0.0    0.00    0.00      0.0     0.0     0.0     0.0    0.00    0.00     0.0    0.0    0.0    0.00    0.00
 2002 238     6     3     0.0     0.0     0.0    0.00    0.00      0.0     0.0     0.0     0.0    0.00    0.00     0.0    0.0    0.0    0.00    0.00
 2002 239     7     4     0.0     0.0     0.0    0.00    0.00      0.0     0.0     0.0     0.0    0.00    0.00     0.0    0.0    0.0    0.00    0.00
 2002 240     8     5     0.0     0.0     0.0    0.00    0.00      0.0     0.0     0.0     0.0    0.00    0.00     0.0    0.0    0.0    0.00    0.00
 2002 241     9     6     0.0     0.0     0.0    0.00    0.00      0.0     0.0     0.0     0.0    0.00    0.00     0.0    0.0    0.0    0.00    0.00
 2002 242    10     7     0.2     0.0     0.2    0.00    5.15      0.0     0.0     0.2     0.0    5.70    2.64     0.0    1.5    0.0    0.00    0.00
 2002 243    11     8     0.2     0.0     0.2    0.00    5.14      0.0     0.0     0.2     0.0    5.70    2.64     0.0    1.5    0.0    0.00    0.01
 2002 244    12     9     0.2     0.0     0.2    0.00    5.14      0.0     0.0     0.2     0.0    5.70    2.64     0.0    1.5    0.0    0.00    0.01
 2002 245    13    10     0.2     0.0     0.2    0.00    5.14      0.0     0.0     0.2     0.0    5.70    2.64     0.0    1.5    0.0    0.00    0.01
 2002 246    14    11     0.2     0.0     0.2    0.00    5.13      0.0     0.0     0.2     0.0    5.70    2.64     0.0    1.5    0.0    0.00    0.01
 2002 247    15    12     0.2     0.0     0.2    0.00    5.12      0.0     0.1     0.2     0.0    5.70    2.64     0.0    1.5    0.0    0.00    0.01
 2002 248    16    13     0.2     0.0     0.2    0.00    5.11      0.0     0.1     0.2     0.0    5.70    2.64     0.0    1.5    0.0    0.00    0.02
 2002 249    17    14     0.2     0.0     0.2    0.00    5.12      0.0     0.1     0.2     0.0    5.70    2.65     0.0    1.5    0.0    0.00    0.02
 2002 250    18    15     0.3     0.0     0.3    0.00    5.11      0.0     0.1     0.2     0.0    5.70    2.65     0.0    1.5    0.0    0.00    0.02
 2002 251    19    16     0.3     0.0     0.3    0.00    5.10      0.1     0.1     0.2     0.0    5.70    2.65     0.0    1.5    0.0    0.00    0.02
 2002 252    20    17     0.3     0.0     0.3    0.00    5.09      0.1     0.1     0.3     0.0    5.70    2.65     0.0    1.5    0.0    0.00    0.02
 2002 253    21    18     0.3     0.0     0.3    0.00    5.09      0.1     0.1     0.3     0.0    5.71    2.65     0.0    1.5    0.0    0.00    0.02
 2002 254    22    19     0.3     0.0     0.3    0.00    5.09      0.1     0.2     0.3     0.0    5.71    2.65     0.0    1.5    0.0    0.00    0.02
 2002 255    23    20     0.3     0.0     0.3    0.00    5.08      0.1     0.2     0.3     0.0    5.71    2.65     0.0    1.5    0.0    0.00    0.03
 2002 256    24    21     0.3     0.0     0.3    0.00    5.06      0.1     0.2     0.3     0.0    5.71    2.65     0.0    1.5    0.0    0.00    0.03
 2002 257    25    22     0.4     0.0     0.4    0.00    5.03      0.1     0.2     0.3     0.0    5.71    2.65     0.0    1.5    0.0    0.00    0.03
 2002 258    26    23     0.4     0.0     0.4    0.00    5.02      0.1     0.3     0.3     0.0    5.71    2.65     0.0    1.5    0.0    0.00    0.03
 2002 259    27    24     0.4     0.0     0.4    0.00    5.01      0.1     0.3     0.3     0.0    5.71    2.65     0.0    1.5    0.0    0.00    0.03
 2002 260    28    25     0.4     0.0     0.4    0.00    5.00      0.1     0.3     0.3     0.0    5.71    2.65     0.0    1.5    0.0    0.00    0.03
 2002 261    29    26     0.4     0.0     0.4    0.00    5.00      0.1     0.3     0.4     0.1    5.72    2.66     0.0    1.5    0.0    0.00    0.03
 2002 262    30    27     0.4     0.0     0.4    0.00    4.98      0.1     0.3     0.4     0.1    5.72    2.66     0.0    1.5    0.0    0.00    0.03
 2002 263    31    28     0.4     0.0     0.4    0.00    4.95      0.1     0.4     0.4     0.1    5.72    2.66     0.0    1.5    0.0    0.00    0.03
 2002 264    32    29     0.5     0.0     0.5    0.00    4.92      0.1     0.4     0.4     0.1    5.72    2.66     0.0    1.5    0.0    0.00    0.03
 2002 265    33    30     0.5     0.0     0.5    0.00    4.89      0.1     0.4     0.4     0.1    5.72    2.66     0.0    1.5    0.0    0.00    0.03
 2002 266    34    31     0.5     0.0     0.5    0.00    4.93      0.1     0.5     0.4     0.1    5.72    2.66     0.0    1.5    0.0    0.00    0.03
 2002 267    35    32     0.6     0.0     0.6    0.00    4.95      0.1     0.5     0.5     0.1    5.72    2.66     0.0    1.5    0.0    0.00    0.04
 2002 268    36    33     0.6     0.0     0.6    0.00    4.95      0.1     0.6     0.5     0.1    5.72    2.66     0.0    1.5    0.0    0.00    0.04
 2002 269    37    34     0.7     0.0     0.7    0.00    4.95      0.1     0.7     0.6     0.1    5.72    2.66     0.0    1.5    0.0    0.00    0.04
[...]
 2003 272    40    37     0.6     0.0     0.6    0.00    4.97      0.1     0.5     0.5     0.1    5.72    2.66     0.0    1.5    0.0    0.00    0.03
 2003 273    41    38     0.6     0.0     0.6    0.00    4.97      0.1     0.6     0.6     0.1    5.72    2.66     0.0    1.5    0.0    0.00    0.04
 2003 274    42    39     0.7     0.0     0.7    0.00    4.95      0.1     0.7     0.6     0.1    5.72    2.66     0.0    1.5    0.0    0.00    0.04
 2003 275    43    40     0.8     0.0     0.8    0.00    4.94      0.1     0.8     0.6     0.1    5.72    2.66     0.0    1.5    0.0    0.00    0.04
 2003 276    44    41     0.8     0.0     0.8    0.00    4.93      0.1     0.8     0.7     0.1    5.72    2.66     0.0    1.5    0.0    0.00    0.04
 2003 277    45    42     0.8     0.0     0.8    0.00    4.94      0.1     0.9     0.7     0.1    5.72    2.66     0.0    1.5    0.0    0.00    0.04
 2003 278    46    43     0.9     0.0     0.9    0.00    4.93      0.1     1.0     0.8     0.1    5.72    2.66     0.0    1.5    0.0    0.00    0.04
 2003 279    47    44     1.0     0.0     1.0    0.00    4.91      0.1     1.1     0.9     0.1    5.72    2.66     0.0    1.5    0.0    0.00    0.05
 2003 280    48    45     1.1     0.0     1.1    0.00    4.86      0.1     1.2     0.9     0.2    5.72    2.66     0.0    1.5    0.0    0.00    0.05
 2003 281    49    46     1.2     0.0     1.2    0.00    4.82      0.1     1.3     1.0     0.2    5.72    2.66     0.0    1.5    0.0    0.00    0.05
 2003 282    50    47     1.3     0.0     1.3    0.00    4.75      0.1     1.5     1.1     0.2    5.72    2.66     0.0    1.5    0.0    0.00    0.05
 2003 283    51    48     1.4     0.0     1.4    0.00    4.76      0.1     1.6     1.1     0.2    5.72    2.66     0.0    1.5    0.0    0.00    0.05
 2003 284    52    49     1.5     0.0     1.5    0.00    4.76      0.1     1.7     1.2     0.3    5.72    2.66     0.0    1.5    0.0    0.00    0.05
 2003 285    53    50     1.6     0.0     1.6    0.00    4.76      0.1     1.9     1.3     0.3    5.72    2.66     0.0    1.5    0.0    0.00    0.06
 2003 286    54    51     1.8     0.0     1.8    0.00    4.74      0.1     2.1     1.5     0.3    5.72    2.66     0.0    1.5    0.0    0.00    0.06
 2003 287    55    52     2.0     0.0     2.0    0.00    4.70      0.1     2.3     1.6     0.4    5.72    2.66     0.0    1.5    0.0    0.00    0.06
 2003 288    56    53     2.2     0.0     2.2    0.00    4.65      0.1     2.6     1.8     0.4    5.72    2.66     0.0    1.5    0.0    0.00    0.06
 2003 289    57    54     2.5     0.0     2.5    0.00    4.59      0.1     3.0     1.9     0.5    5.72    2.66     0.0    1.5    0.0    0.00    0.07
 2003 290    58    55     2.7     0.0     2.7    0.00    4.53      0.1     3.3     2.1     0.6    5.72    2.66     0.0    1.5    0.0    0.00    0.07
 2003 291    59    56     3.0     0.0     3.0    0.00    4.50      0.2     3.6     2.3     0.7    5.72    2.66     0.0    1.5    0.0    0.00    0.08
 2003 292    60    57     3.3     0.0     3.3    0.00    4.44      0.2     4.0     2.5     0.8    5.73    2.66     0.0    1.5    0.0    0.00    0.08
 2003 293    61    58     3.5     0.0     3.5    0.00    4.41      0.2     4.3     2.6     0.9    5.73    2.66     0.0    1.5    0.0    0.00    0.08
 2003 294    62    59     3.8     0.0     3.8    0.00    4.35      0.2     4.7     2.8     1.1    5.73    2.66     0.0    1.5    0.0    0.00    0.09
 2003 295    63    60     4.2     0.0     4.2    0.00    4.29      0.2     5.2     3.0     1.2    5.73    2.66     0.0    1.5    0.0    0.00    0.09
 2003 296    64    61     4.8     0.0     4.8    0.00    4.31      0.2     5.9     3.5     1.4    5.72    2.66     0.0    1.5    0.0    0.00    0.10
 2003 297    65    62     5.5     0.0     5.5    0.00    4.32      0.2     6.7     3.9     1.5    5.72    2.66     0.0    1.5    0.0    0.00    0.11
 2003 298    66    63     6.0     0.0     6.0    0.00    4.33      0.2     7.2     4.3     1.7    5.73    2.66     0.0    1.5    0.0    0.00    0.12
 2003 299    67    64     6.8     0.0     6.8    0.00    4.34      0.3     8.2     4.9     1.9    5.72    2.66     0.0    1.5    0.0    0.00    0.13
 2003 300    68    65     7.6     0.0     7.6    0.00    4.34      0.3     9.1     5.5     2.1    5.72    2.66     0.0    1.5    0.0    0.00    0.13
 2003 301    69    66     8.6     0.0     8.6    0.00    4.34      0.3    10.3     6.2     2.4    5.72    2.66     0.0    1.5    0.0    0.00    0.14
 2003 302    70    67     9.9     0.0     9.9    0.00    4.34      0.3    11.7     7.1     2.7    5.72    2.66     0.0    1.5    0.0    0.00    0.15
 2003 303    71    68    11.3     0.0    11.3    0.00    4.33      0.4    13.4     8.1     3.1    5.72    2.66     0.0    1.5    0.0    0.00    0.16
 2003 304    72    69    11.9     0.0    11.9    0.00    4.33      0.4    14.1     8.6     3.3    5.72    2.66     0.0    1.5    0.0    0.00    0.17
 2003 305    73    70    13.1     0.0    13.1    0.00    4.33      0.4    15.5     9.4     3.7    5.72    2.66     0.0    1.5    0.0    0.00    0.18
 2003 306    74    71    14.3     0.0    14.3    0.00    4.32      0.4    16.8    10.3     4.0    5.72    2.66     0.0    1.5    0.0    0.00    0.19
 2003 307    75    72    15.7     0.0    15.7    0.00    4.32      0.4    18.4    11.3     4.4    5.72    2.66     0.0    1.5    0.0    0.00    0.19
 2003 308    76    73    17.3     0.0    17.3    0.00    4.31      0.5    20.2    12.4     4.9    5.72    2.66     0.0    1.5    0.0    0.00    0.20
 2003 309    77    74    19.3     0.0    19.3    0.00    4.30      0.5    22.6    13.8     5.5    5.72    2.66     0.0    1.5    0.0    0.00    0.22
 2003 310    78    75    21.6     0.0    21.6    0.00    4.29      0.6    25.2    15.4     6.2    5.72    2.66     0.0    1.5    0.0    0.00    0.24
 2003 311    79    76    24.1     0.0    24.1    0.00    4.28      0.6    28.1    17.1     7.0    5.72    2.66     0.0    1.5    0.0    0.00    0.26
 2003 312    80    77    26.5     0.0    26.5    0.00    4.27      0.7    30.9    18.7     7.8    5.71    2.65     0.0    1.5    0.0    0.00    0.29
 2003 313    81    78    28.8     0.0    28.8    0.00    4.25      0.7    33.6    20.3     8.6    5.71    2.65     0.0    1.5    0.0    0.00    0.32
 2003 314    82    79    32.1     0.0    32.1    0.00    4.23      0.8    37.5    22.4     9.7    5.71    2.64     0.0    1.5    0.0    0.02    0.35
 2003 315    83    80    35.3     0.0    35.3    0.00    4.21      0.9    41.3    24.5    10.8    5.71    2.63     0.0    1.5    0.0    0.06    0.38
 2003 316    84    81    37.2     0.0    37.2    0.00    4.20      0.9    43.5    25.8    11.4    5.72    2.63     0.0    1.5    0.0    0.07    0.41
 2003 317    85    82    40.0     0.0    40.0    0.00    4.19      1.0    46.9    27.6    12.4    5.72    2.62     0.0    1.5    0.0    0.10    0.43
 2003 318    86    83    43.3     0.0    43.3    0.00    4.17      1.0    51.0    29.8    13.5    5.72    2.61     0.0    1.5    0.0    0.13    0.45
 2003 319    87    84    47.4     0.0    47.4    0.00    4.16      1.1    56.1    32.4    15.0    5.73    2.61     0.0    1.5    0.0    0.17    0.49
 2003 320    88    85    49.3     0.0    49.3    0.00    4.16      1.2    58.4    33.6    15.7    5.76    2.61     0.0    1.5    0.0    0.23    0.55
 2003 321    89    86    51.8     0.0    51.8    0.00    4.12      2.0    60.9    35.2    16.6    5.73    2.58     0.0    1.5    0.7    0.33    0.60
 2003 322    90    87    53.8     0.0    53.8    0.00    4.11      2.0    63.2    36.4    17.4    5.73    2.58     0.0    1.5    0.0    0.35    0.66
 2003 323    91    88    58.1     0.0    58.1    0.00    4.06      2.1    68.2    39.1    19.0    5.70    2.55     0.0    1.5    0.0    0.39    0.70
 2003 324    92    89    62.0     0.0    62.0    0.00    4.04      2.1    72.6    41.6    20.5    5.69    2.54     0.0    1.5    0.0    0.42    0.83
 2003 325    93    90    66.9     0.0    66.9    0.00    4.01      2.1    78.2    44.6    22.3    5.68    2.52     4.0    1.5    0.0    0.45    0.95
 2003 326    94    91    71.9     0.0    71.7    0.00    3.98      2.1    83.8    47.5    24.2    5.67    2.50     4.0    1.5    0.0    0.53    1.10
 2003 327    95    92    76.2     0.0    75.8    0.00    3.93      3.1    87.9    50.0    25.8    5.65    2.48     4.0    1.5    1.0    0.65    1.18
 2003 328    96    93    78.6     0.0    77.7    0.00    3.94      3.1    90.5    51.1    26.6    5.67    2.49     4.0    1.5    0.0    0.65    1.30
 2003 329    97    94    81.6     0.0    80.2    0.00    3.79      4.2    93.0    52.7    27.4    5.53    2.35     4.0    1.5    0.9    0.77    1.37
 2003 330    98    95    83.5     0.0    81.4    0.00    3.67      5.5    94.2    53.5    27.9    5.43    2.26     3.9    1.4    1.1    0.84    1.45
 2003 331    99    96    84.8     0.0    81.7    0.00    3.47      7.0    94.9    53.7    28.0    5.27    2.09     3.9    1.4    1.3    0.92    1.53
 2003 332   100    97    87.4     0.0    83.3    0.00    3.42      8.7    96.4    54.6    28.7    5.21    2.07     3.9    1.4    1.5    0.99    1.60
 2003 333   101    98    89.5     0.0    84.1    0.00    3.27     10.8    97.3    55.1    29.0    5.09    1.94     3.9    1.3    1.7    1.06    1.68
 2003 334   102    99    91.7     0.0    84.9    0.00    3.24     12.0    98.5    55.5    29.4    5.06    1.93     3.8    1.3    1.3    1.12    1.74
 2003 335   103   100    94.0     0.0    85.6    0.00    3.11     14.4    99.2    55.9    29.7    4.95    1.83     3.8    1.3    2.0    1.19    1.82
 2003 336   104   101    96.7     0.0    86.6    0.00    3.04     17.1   100.0    56.5    30.1    4.88    1.78     3.8    1.3    2.3    1.25    1.89
 2003 337   105   102    99.2     0.0    87.5    0.00    2.95     20.3   100.2    57.0    30.4    4.80    1.72     3.7    1.3    2.7    1.32    1.98
 2003 338   106   103   102.1     0.0    88.4    0.00    2.93     22.5   101.2    57.4    30.9    4.78    1.71     3.7    1.3    2.2    1.40    2.07
 2003 339   107   104   105.2     0.0    89.3    0.00    2.85     26.2   101.5    58.0    31.3    4.71    1.65     3.7    1.3    3.2    1.46    2.14
 2003 340   108   105   109.9     0.0    92.0    0.00    2.84     30.2   102.9    59.4    32.6    4.69    1.65     3.7    1.3    3.7    1.51    2.21
 2003 341   109   106   113.7     0.0    93.4    0.00    2.82     32.9   104.3    60.1    33.3    4.67    1.64     3.7    1.3    2.8    1.58    2.29
 2003 342   110   107   116.5     0.0    93.6    0.00    2.80     35.1   105.1    60.1    33.5    4.64    1.64     3.7    1.3    2.1    1.64    2.37
 2003 343   111   108   120.6     0.0    95.2    0.00    2.79     39.5   105.6    60.9    34.3    4.63    1.63     3.7    1.2    3.9    1.69    2.43
 2003 344   112   109   125.4     0.0    97.3    0.00    2.77     44.4   106.3    62.0    35.3    4.61    1.63     3.7    1.2    4.4    1.75    2.50
 2003 345   113   110   129.3     0.0    98.6    0.00    2.76     47.9   107.0    62.6    36.0    4.60    1.63     3.7    1.2    3.5    1.81    2.59
 2003 346   114   111   133.3     0.0   100.2    0.00    2.75     51.8   107.5    63.3    36.9    4.58    1.63     3.7    1.2    3.8    1.94    2.65
 2003 347   115   112   135.8     0.0   100.7    6.18    2.72     54.1   109.0    63.5    37.2    4.55    1.61     3.6    1.2    2.2    3.05    2.73
 2003 348   116   113   139.5     0.1   102.4    6.21    2.71     59.2   109.2    64.3    38.2    4.54    1.62     3.6    1.2    5.0    4.15    2.84
 2003 349   117   114   141.6     0.4   101.2    6.19    2.69     60.7   109.7    63.5    37.7    4.52    1.60     3.6    1.2    1.5    4.23    2.92
 2003 350   118   115   144.5     0.6   102.7    6.25    2.70     65.3   110.0    64.2    38.5    4.52    1.61     3.6    1.2    4.5    5.76    2.98
 2003 351   119   116   148.2     1.0   104.3    6.26    2.69     69.2   110.9    64.8    39.4    4.51    1.61     3.6    1.2    3.9    6.61    3.05
 2003 352   120   117   152.1     1.5   106.1    6.24    2.68     74.0   111.7    65.7    40.5    4.50    1.61     3.6    1.2    4.7    7.92    3.14
 2003 353   121   118   153.6     2.1   106.6    6.25    2.67     78.1   111.9    65.7    40.8    4.49    1.61     3.6    1.2    4.1   10.59    3.25
 2003 354   122   119   154.9     3.1   105.0    6.23    2.65     80.1   112.7    64.8    40.2    4.47    1.60     3.6    1.2    2.0   12.06    3.35
 2003 355   123   120   158.8     4.1   106.4    6.27    2.65     84.5   113.9    65.3    41.1    4.48    1.61     3.6    1.2    4.4   13.54    3.47
 2003 356   124   121   161.9     5.3   105.3    6.26    2.64     87.7   114.4    64.6    40.7    4.45    1.60     3.6    1.2    3.1   13.63    3.54
 2003 357   125   122   164.1     6.3   105.5    6.26    2.62     92.9   115.0    64.6    40.9    4.43    1.59     3.5    1.2    5.2   15.49    3.62
 2003 358   126   123   167.5     7.6   105.8    6.24    2.61     97.1   115.6    64.5    41.3    4.42    1.59     3.5    1.2    4.2   16.76    3.71
 2003 359   127   124   171.3     9.2   106.8    6.26    2.61    102.4   116.1    64.8    42.0    4.42    1.60     3.5    1.2    5.3   18.60    3.82
 2003 360   128   125   175.4    10.8   107.3    6.26    2.60    106.6   117.1    64.9    42.4    4.41    1.60     3.5    1.2    4.2   19.54    3.93
 2003 361   129   126   174.7    12.6   105.4    6.26    2.58    107.4   118.1    63.8    41.6    4.38    1.58     3.5    1.2    0.7   22.18    4.04
 2003 362   130   127   175.9    14.6   103.7    6.25    2.56    111.8   118.5    62.8    40.9    4.36    1.57     3.5    1.2    4.4   24.33    4.13
 2003 363   131   128   178.4    16.5   103.4    6.25    2.54    115.5   120.3    62.5    40.9    4.33    1.56     3.4    1.2    3.7   25.93    4.19
 2003 364   132   129   182.5    18.7   104.0    6.24    2.54    120.7   121.0    62.6    41.4    4.33    1.56     3.4    1.2    5.2   27.31    4.28
 2003 365   133   130   184.9    21.1   103.1    6.24    2.52    125.0   122.4    62.0    41.1    4.31    1.55     3.4    1.2    4.3   29.33    4.36
 2004 001   134   131   188.2    23.4   102.9    6.24    2.50    130.5   123.0    61.7    41.2    4.28    1.54     3.4    1.2    5.4   30.46    4.44
 2004 002   135   132   191.9    25.9   102.8    6.23    2.49    136.3   123.3    61.5    41.3    4.27    1.54     3.4    1.2    5.5   31.73    4.52
 2004 003   136   133   195.6    28.8   102.2    6.23    2.47    141.7   124.3    61.0    41.1    4.24    1.52     3.4    1.2    5.4   32.76    4.62
 2004 004   137   134   196.6    31.9   100.6    6.24    2.45    146.0   125.0    60.1    40.6    4.21    1.51     3.3    1.2    4.3   35.78    4.74
 2004 005   138   135   199.0    35.4    98.9    6.28    2.42    150.7   125.5    59.0    39.8    4.18    1.49     3.3    1.2    4.7   37.36    4.86
 2004 006   139   136   200.9    38.9    97.3    6.30    2.40    156.1   125.7    58.1    39.2    4.15    1.48     3.3    1.2    5.4   39.58    4.99
 2004 007   140   137   202.8    42.9    95.2    6.32    2.38    159.3   126.7    56.8    38.3    4.11    1.46     3.3    1.2    3.2   41.29    5.10
 2004 008   141   138   205.9    47.1    93.3    6.34    2.35    164.4   127.4    55.7    37.5    4.07    1.44     3.2    1.2    5.2   42.59    5.22
 2004 009   142   139   209.1    51.6    91.1    6.35    2.32    169.2   127.9    54.5    36.7    4.03    1.42     3.2    1.2    4.8   43.79    5.33
 2004 010   143   140   210.2    56.2    88.9    6.37    2.29    173.2   128.7    53.2    35.7    3.99    1.40     3.2    1.2    3.9   46.63    5.45
 2004 011   144   141   213.1    61.5    86.8    6.36    2.26    178.5   129.2    51.9    34.8    3.95    1.38     3.1    1.1    5.3   48.49    5.56
 2004 012   145   142   216.0    67.0    84.7    6.36    2.23    182.2   129.7    50.7    33.9    3.91    1.36     3.1    1.1    3.8   49.31    5.67
 2004 013   146   143   218.8    72.6    82.6    6.35    2.20    187.0   130.0    49.5    33.1    3.86    1.34     3.0    1.1    4.7   50.71    5.78
 2004 014   147   144   222.3    78.5    80.4    6.35    2.17    192.1   130.5    48.3    32.2    3.82    1.32     3.0    1.1    5.2   52.06    5.89
 2004 015   148   145   225.1    84.7    78.4    6.33    2.14    196.5   130.9    47.1    31.3    3.77    1.30     3.0    1.1    4.4   53.42    5.99
 2004 016   149   146   229.3    90.9    76.4    6.32    2.11    202.1   131.1    45.9    30.5    3.73    1.27     2.9    1.1    5.6   54.22    6.10
 2004 017   150   147   231.3    97.6    74.4    6.33    2.07    204.3   131.6    44.7    29.7    3.68    1.25     2.9    1.1    2.2   55.06    6.21
 2004 018   151   148   232.2   104.1    72.2    6.34    2.03    206.3   131.9    43.4    28.7    3.62    1.22     2.8    1.1    2.0   56.49    6.33
 2004 019   152   149   234.6   111.0    70.1    6.34    2.00    208.9   132.2    42.2    27.9    3.56    1.20     2.7    1.1    2.6   57.18    6.45
 2004 020   153   150   237.4   118.5    67.8    6.36    1.95    212.0   132.4    40.9    26.9    3.50    1.17     2.6    1.1    3.0   57.73    6.57
 2004 021   154   151   240.7   126.4    65.6    6.35    1.91    216.2   132.7    39.6    26.0    3.44    1.14     2.5    1.1    4.2   58.71    6.72
 2004 022   155   152   244.1   134.2    63.4    6.33    1.87    219.5   133.0    38.2    25.1    3.37    1.11     2.4    1.1    3.4   59.18    6.95
 2004 023   156   153   246.0   140.7    61.1    6.28    1.82    222.0   133.2    36.9    24.2    3.31    1.08     2.4    1.0    2.5   59.61    7.20
 2004 024   157   154   246.6   145.9    58.8    6.24    1.77    223.0   133.4    35.5    23.2    3.23    1.05     2.3    1.0    1.0   59.98    7.52
 2004 025   158   155   246.9   150.6    56.5    6.21    1.72    223.5   133.6    34.2    22.3    3.16    1.02     2.2    1.0    0.5   60.28    7.87
 2004 026   159   156   246.8   155.0    54.2    6.20    1.67    223.7   133.7    32.8    21.4    3.08    0.98     2.1    1.0    0.2   60.61    8.23
 2004 027   160   157   246.6   159.2    51.8    6.20    1.62    223.7   133.9    31.3    20.5    3.01    0.95     2.0    1.0    0.0   61.08    8.71
 2004 028   161   158   245.8   162.7    49.2    6.16    1.57    223.7   134.1    29.6    19.6    2.94    0.92     1.9    1.0    0.0   61.94    8.99
 2004 029   162   159   238.7   165.0    41.0    6.17    1.47    223.7   134.1    23.0    18.0    2.87    0.91     1.9    1.0    0.0   69.05    9.47
 2004 030   163   160   233.3   166.4    34.9    6.17    1.39    223.7   134.1    18.0    16.9    2.84    0.90     1.8    1.0    0.0   74.54    9.93
 2004 031   164   161   229.0   168.4    29.8    6.18    1.29    223.7   134.1    14.0    15.8    2.78    0.88     1.8    1.0    0.0   78.81   10.32
 2004 032   165   162   227.0   171.8    25.6    6.19    1.20    223.7   135.3    10.8    14.8    2.70    0.85     1.7    1.0    0.0   82.12   10.68
 2004 033   166   163   225.3   174.4    22.3    6.19    1.12    223.7   136.0     8.3    14.0    2.64    0.83     1.6    1.0    0.0   84.67   11.01
 2004 034   167   164   223.3   175.1    20.1    6.19    1.07    223.7   136.0     6.6    13.5    2.62    0.83     1.6    1.0    0.0   86.65   11.31
 2004 035   168   165   221.8   176.3    18.2    6.19    1.01    223.7   136.0     5.2    13.0    2.57    0.81     1.6    1.0    0.0   88.21   11.61
 2004 036   169   166   220.6   177.4    16.6    6.19    0.96    223.7   136.0     4.0    12.6    2.53    0.80     1.5    1.0    0.0   89.43   11.88
 2004 037   170   167   219.7   178.2    15.4    6.19    0.92    223.7   136.0     3.2    12.2    2.50    0.79     1.5    1.0    0.0   90.38   12.14
 2004 038   171   168   218.9   178.4    14.6    6.19    0.90    223.7   136.0     2.5    12.1    2.49    0.79     1.5    1.0    0.0   91.13   12.37
 2004 039   172   169   218.3   178.4    14.0    6.19    0.88    223.7   136.0     2.0    12.0    2.50    0.79     1.5    1.0    0.0   91.73   12.60
 2004 040   173   170   217.8   178.4    13.5    6.19    0.87    223.7   136.0     1.6    11.9    2.50    0.79     1.5    1.0    0.0   92.21   12.82
