*SOIL-PLANT-ATMOSPHERE MODULE OUTPUT FILE

*DSSAT Cropping System Model Ver. 4.0.2.000               Aug 11, 2016; 21:02:09

*RUN   1        : UYMZ                    
 MODEL          : MZCER040 - Maize           
 EXPERIMENT     : UYMZ0190 MZ    late to create DSS                             
 TREATMENT  1   : UYMZ                    

@YEAR DOY   DAS   SRAA   TMXA   TMNA   EOAA   ETAA   EPAA   ESAA   EFAD   ETAC   EPAC   ESAC   EFAC
 1992 224     0  15.10  14.90   3.90  2.943  2.370  0.000  2.370  0.000    2.4    0.0    2.4    0.0
 1992 225     1  14.50  15.90   6.10  2.932  1.374  0.000  1.374  0.000    3.7    0.0    3.7    0.0
 1992 226     2  15.60  18.00   2.80  3.150  1.078  0.000  1.078  0.000    4.8    0.0    4.8    0.0
 1992 227     3  14.70  18.40   3.00  2.992  2.992  0.000  2.992  0.000    7.8    0.0    7.8    0.0
 1992 228     4   9.50  19.20   5.70  2.007  2.007  0.000  2.007  0.000    9.8    0.0    9.8    0.0
 1992 229     5  15.30  22.20   8.70  3.458  2.476  0.000  2.476  0.000   12.3    0.0   12.3    0.0
 1992 230     6  12.30  23.20   9.70  2.841  2.324  0.000  2.324  0.000   14.6    0.0   14.6    0.0
 1992 231     7  14.00  20.80   9.20  3.120  1.367  0.000  1.367  0.000   16.0    0.0   16.0    0.0
 1992 232     8  13.40  19.60   7.90  2.904  1.074  0.000  1.074  0.000   17.1    0.0   17.1    0.0
 1992 233     9  13.30  19.40   6.20  2.830  0.915  0.000  0.915  0.000   18.0    0.0   18.0    0.0
 1992 234    10  16.90  23.10   9.50  3.891  0.810  0.000  0.810  0.000   18.8    0.0   18.8    0.0
 1992 235    11   7.80  20.10  13.90  1.795  1.200  0.000  1.200  0.000   20.0    0.0   20.0    0.0
 1992 236    12  17.00  19.30   9.60  3.727  3.727  0.000  3.727  0.000   23.7    0.0   23.7    0.0
 1992 237    13  17.80  21.00   7.10  3.903  1.026  0.005  1.021  0.000   24.7    0.0   24.7    0.0
 1992 238    14  18.00  21.20   5.80  3.911  0.890  0.009  0.881  0.000   25.6    0.0   25.6    0.0
 1992 239    15  17.90  20.30   6.20  3.855  0.800  0.013  0.787  0.000   26.4    0.0   26.4    0.0
 1992 240    16  17.60  25.40   6.30  4.059  0.735  0.018  0.717  0.000   27.2    0.0   27.1    0.0
 1992 241    17  11.50  18.80  11.40  2.542  0.679  0.015  0.664  0.000   27.8    0.1   27.8    0.0
 1992 242    18  14.20  24.40  11.00  3.363  0.646  0.025  0.621  0.000   28.5    0.1   28.4    0.0
 1992 243    19   5.50  20.90  15.20  1.291  0.597  0.012  0.585  0.000   29.1    0.1   29.0    0.0
 1992 244    20   7.20  13.80   9.60  1.458  1.458  0.017  1.441  0.000   30.5    0.1   30.4    0.0
 1992 245    21   7.50  14.00   7.20  1.488  0.938  0.019  0.919  0.000   31.5    0.1   31.3    0.0
 1992 246    22   5.70  14.80   8.60  1.160  0.829  0.015  0.813  0.000   32.3    0.1   32.2    0.0
 1992 247    23  14.90  17.40   7.30  3.108  0.781  0.044  0.737  0.000   33.1    0.2   32.9    0.0
 1992 248    24  18.80  18.80   6.80  3.979  0.750  0.070  0.679  0.000   33.8    0.3   33.6    0.0
 1992 249    25  18.30  21.20   6.10  3.975  0.721  0.088  0.633  0.000   34.6    0.4   34.2    0.0
 1992 250    26  18.30  18.80   8.70  3.936  0.704  0.109  0.595  0.000   35.3    0.5   34.8    0.0
 1992 251    27  17.80  20.60   9.70  3.954  0.694  0.131  0.564  0.000   36.0    0.6   35.4    0.0
 1992 252    28   5.90  20.10  13.60  1.346  0.591  0.054  0.537  0.000   36.6    0.6   35.9    0.0
 1992 253    29  11.20  20.00  13.40  2.544  0.638  0.126  0.513  0.000   37.2    0.8   36.4    0.0
 1992 254    30  12.60  21.60  13.10  2.909  0.664  0.171  0.492  0.000   37.9    0.9   36.9    0.0
 1992 255    31   8.60  21.20  14.90  2.002  2.002  0.140  1.862  0.000   39.9    1.1   38.8    0.0
 1992 256    32  16.90  19.30  12.30  3.748  1.428  0.308  1.120  0.000   41.3    1.4   39.9    0.0
 1992 257    33  10.20  16.70   8.80  2.112  0.776  0.196  0.580  0.000   42.1    1.6   40.5    0.0
 1992 258    34  17.10  20.10   6.20  3.620  0.909  0.359  0.550  0.000   43.0    1.9   41.0    0.0
 1992 259    35  19.70  21.30   9.00  4.341  0.991  0.465  0.525  0.000   44.0    2.4   41.5    0.0
 1992 260    36  12.60  22.60  12.60  2.908  0.848  0.345  0.503  0.000   44.8    2.8   42.1    0.0
 1992 261    37  14.90  26.70  15.20  3.683  0.976  0.493  0.483  0.000   45.8    3.2   42.5    0.0
 1992 262    38  19.80  16.60   9.30  4.074  4.074  0.635  3.439  0.000   49.9    3.9   46.0    0.0
 1992 263    39  21.60  19.30   5.20  4.436  3.979  0.732  3.247  0.000   53.8    4.6   49.2    0.0
 1992 264    40  21.40  25.60   5.90  4.807  3.715  0.834  2.880  0.000   57.6    5.4   52.1    0.0
 1992 265    41  21.20  30.00  10.20  5.193  2.422  0.992  1.430  0.000   60.0    6.4   53.5    0.0
 1992 266    42   6.50  12.70   8.80  1.246  1.246  0.271  0.975  0.000   61.2    6.7   54.5    0.0
 1992 267    43  16.00  18.60   6.50  3.265  3.265  0.727  2.538  0.000   64.5    7.4   57.0    0.0
 1992 268    44   6.60  13.20  10.60  1.294  1.294  0.301  0.993  0.000   65.8    7.7   58.0    0.0
 1992 269    45  21.20  12.50   4.50  3.865  3.865  0.929  2.936  0.000   69.6    8.7   61.0    0.0
 1992 270    46  20.60  14.20   0.80  3.712  3.712  0.881  2.831  0.000   73.4    9.5   63.8    0.0
 1992 271    47  21.70  20.00   4.50  4.460  3.093  0.810  2.283  0.000   76.4   10.4   66.1    0.0
 1992 272    48  23.00  21.40   5.30  4.849  2.927  0.921  2.006  0.000   79.4   11.3   68.1    0.0
 1992 273    49  23.30  23.20   6.10  5.057  2.339  1.037  1.301  0.000   81.7   12.3   69.4    0.0
 1992 274    50  22.50  26.20  10.30  5.243  2.222  1.180  1.042  0.000   83.9   13.5   70.4    0.0
 1992 275    51  12.50  26.40  11.00  2.924  1.638  0.743  0.895  0.000   85.6   14.2   71.3    0.0
 1992 276    52  11.80  21.80  13.00  2.637  2.358  0.758  1.600  0.000   87.9   15.0   72.9    0.0
 1992 277    53  17.90  20.60  11.10  3.858  2.058  1.220  0.838  0.000   90.0   16.2   73.8    0.0
 1992 278    54  18.00  25.50  11.70  4.133  2.167  1.412  0.755  0.000   92.2   17.6   74.5    0.0
 1992 279    55   7.10  18.20  11.80  1.478  1.250  0.557  0.693  0.000   93.4   18.2   75.2    0.0
 1992 280    56  24.40  15.90   7.40  4.710  4.694  1.851  2.843  0.000   98.1   20.0   78.1    0.0
 1992 281    57  21.30  15.60   4.20  3.960  3.960  1.604  2.356  0.000  102.1   21.6   80.4    0.0
 1992 282    58  24.30  19.00   3.40  4.713  3.752  1.899  1.853  0.000  105.8   23.5   82.3    0.0
 1992 283    59  24.30  21.00   6.60  4.999  3.235  1.975  1.260  0.000  109.0   25.5   83.5    0.0
 1992 284    60  25.10  25.30   7.30  5.480  3.300  2.279  1.020  0.000  112.3   27.8   84.6    0.0
 1992 285    61  16.70  27.20   9.20  3.779  2.543  1.663  0.881  0.000  114.9   29.5   85.4    0.0
 1992 286    62  22.70  24.00  12.40  5.047  3.155  2.368  0.787  0.000  118.0   31.8   86.2    0.0
 1992 287    63  25.10  25.60   8.60  5.492  3.453  2.736  0.717  0.000  121.5   34.6   86.9    0.0
 1992 288    64  24.70  29.50  11.40  5.770  3.708  3.044  0.664  0.000  125.2   37.6   87.6    0.0
 1992 289    65   7.60  31.50  15.50  1.863  1.863  1.053  0.810  0.000  127.1   38.7   88.4    0.0
 1992 290    66   9.30  20.50  15.70  1.997  1.997  1.187  0.810  0.000  129.1   39.8   89.2    0.0
 1992 291    67  23.40  21.20  12.00  4.892  4.892  3.036  1.856  0.000  134.0   42.9   91.1    0.0
 1992 292    68  25.90  21.20   7.50  5.189  5.189  3.328  1.861  0.000  139.1   46.2   92.9    0.0
 1992 293    69   9.10  19.80  11.20  1.845  1.845  1.210  0.635  0.000  141.0   47.4   93.6    0.0
 1992 294    70  24.10  18.60  10.30  4.759  4.759  3.199  1.560  0.000  145.8   50.6   95.1    0.0
 1992 295    71  26.10  21.30   5.50  5.109  5.109  3.502  1.608  0.000  150.9   54.1   96.7    0.0
 1992 296    72  24.90  24.50   7.60  5.171  5.171  3.603  1.568  0.000  156.0   57.7   98.3    0.0
 1992 297    73  25.00  27.30  12.00  5.562  5.427  3.961  1.466  0.000  161.5   61.7   99.8    0.0
 1992 298    74  24.60  30.90  14.60  5.803  5.803  4.256  1.547  0.000  167.3   65.9  101.3    0.0
 1992 299    75   9.50  26.40  17.60  2.170  2.170  1.645  0.525  0.000  169.4   67.6  101.8    0.0
 1992 300    76  26.70  27.40  17.30  6.140  6.140  4.763  1.377  0.000  175.6   72.4  103.2    0.0
 1992 301    77  27.40  30.00  15.80  6.398  6.398  5.092  1.306  0.000  182.0   77.4  104.5    0.0
 1992 302    78  10.50  15.30   6.40  1.868  1.868  1.522  0.346  0.000  183.8   79.0  104.9    0.0
 1992 303    79  27.70  21.90   3.90  5.284  5.284  4.323  0.961  0.000  189.1   83.3  105.8    0.0
 1992 304    80  26.80  21.80   6.40  5.228  5.228  4.240  0.987  0.000  194.4   87.5  106.8    0.0
 1992 305    81  26.90  23.80   6.80  5.401  5.401  4.420  0.981  0.000  199.8   91.9  107.8    0.0
 1992 306    82  27.10  27.10   9.00  5.773  5.756  4.772  0.984  0.000  205.5   96.7  108.8    0.0
 1992 307    83  27.30  30.20  13.00  6.218  6.218  5.206  1.011  0.000  211.7  101.9  109.8    0.0
 1992 308    84  21.90  19.80   9.40  4.247  4.247  3.615  0.632  0.000  216.0  105.5  110.4    0.0
 1992 309    85  27.20  14.10   6.50  4.730  4.730  4.054  0.677  0.000  220.7  109.6  111.1    0.0
 1992 310    86  24.50  16.40   2.70  4.245  4.245  3.644  0.600  0.000  224.9  113.2  111.7    0.0
 1992 311    87  27.00  19.20   4.80  4.995  4.995  4.136  0.859  0.000  229.9  117.4  112.6    0.0
 1992 312    88  27.40  21.50   7.30  5.352  5.352  4.437  0.915  0.000  235.3  121.8  113.5    0.0
 1992 313    89  28.00  25.20   8.30  5.784  5.784  4.832  0.952  0.000  241.1  126.6  114.4    0.0
 1992 314    90  28.20  29.80  10.00  6.240  6.240  5.265  0.975  0.000  247.3  131.9  115.4    0.0
 1992 315    91   8.60  22.00  16.00  1.815  1.815  1.551  0.264  0.000  249.1  133.5  115.7    0.0
 1992 316    92  23.60  28.40  16.10  5.372  5.372  4.637  0.735  0.000  254.5  138.1  116.4    0.0
 1992 317    93  28.00  29.50  15.30  6.401  6.401  5.625  0.776  0.000  260.9  143.7  117.2    0.0
 1992 318    94  28.50  27.90  12.90  6.269  6.269  5.575  0.694  0.000  267.2  149.3  117.9    0.0
 1992 319    95  19.40  31.40  14.40  4.490  4.490  4.020  0.469  0.000  271.7  153.3  118.3    0.0
 1992 320    96  23.00  25.50  17.30  5.083  5.083  4.579  0.504  0.000  276.7  157.9  118.9    0.0
 1992 321    97  28.80  20.40  11.50  5.693  5.693  5.148  0.546  0.000  282.4  163.0  119.4    0.0
 1992 322    98  28.20  21.50   7.70  5.470  5.470  4.948  0.522  0.000  287.9  168.0  119.9    0.0
 1992 323    99  28.80  23.90   7.20  5.741  5.741  5.190  0.551  0.000  293.7  173.2  120.5    0.0
 1992 324   100  29.50  28.10  11.20  6.405  6.405  5.788  0.617  0.000  300.1  179.0  121.1    0.0
 1992 325   101  22.20  30.00  13.80  5.028  5.028  4.548  0.480  0.000  305.1  183.5  121.6    0.0
 1992 326   102   8.70  21.20  13.60  1.769  1.769  1.602  0.167  0.000  306.9  185.1  121.7    0.0
 1992 327   103  25.70  19.30  10.00  4.940  4.940  4.471  0.469  0.000  311.8  189.6  122.2    0.0
 1992 328   104  22.10  20.60   6.40  4.186  4.186  3.783  0.403  0.000  316.0  193.4  122.6    0.0
 1992 329   105  24.00  26.00  11.10  5.077  5.077  4.579  0.498  0.000  321.1  198.0  123.1    0.0
 1992 330   106  21.90  23.90  15.40  4.677  4.677  4.216  0.461  0.000  325.7  202.2  123.6    0.0
 1992 331   107  19.00  26.00  14.30  4.125  4.125  3.718  0.407  0.000  329.9  205.9  124.0    0.0
 1992 332   108  30.10  27.20  12.90  6.555  6.555  5.908  0.648  0.000  336.4  211.8  124.6    0.0
 1992 333   109  21.00  27.70  13.50  4.623  4.623  4.165  0.458  0.000  341.0  216.0  125.1    0.0
 1992 334   110  19.80  29.80  16.90  4.582  4.582  4.127  0.455  0.000  345.6  220.1  125.5    0.0
 1992 335   111  21.90  28.00  18.70  5.034  5.034  4.536  0.499  0.000  350.7  224.6  126.0    0.0
 1992 336   112  29.50  23.90  14.00  6.232  6.232  5.592  0.641  0.000  356.9  230.2  126.7    0.0
 1992 337   113  30.20  24.80   8.90  6.188  6.188  5.527  0.660  0.000  363.1  235.7  127.3    0.0
 1992 338   114  26.20  27.40   9.70  5.583  5.583  4.970  0.613  0.000  368.7  240.7  127.9    0.0
 1992 339   115  30.30  29.10  13.50  6.792  6.792  6.026  0.766  0.000  375.4  246.7  128.7    0.0
 1992 340   116  18.70  28.20  13.80  4.160  4.160  3.678  0.481  0.000  379.6  250.4  129.2    0.0
 1992 341   117  25.20  29.60  18.90  5.922  5.922  5.220  0.701  0.000  385.5  255.6  129.9    0.0
 1992 342   118  23.30  26.40  15.40  5.142  5.142  4.520  0.622  0.000  390.7  260.2  130.5    0.0
 1992 343   119  25.40  27.90  14.80  5.680  5.680  4.979  0.702  0.000  396.4  265.1  131.2    0.0
 1992 344   120  21.00  26.70  16.50  4.694  4.694  4.103  0.591  0.000  401.0  269.2  131.8    0.0
 1992 345   121  22.70  27.30  18.10  5.174  5.174  4.511  0.663  0.000  406.2  273.7  132.5    0.0
 1992 346   122  23.20  26.50  15.70  5.145  5.145  4.475  0.670  0.000  411.4  278.2  133.1    0.0
 1992 347   123  29.50  27.30  13.40  6.488  6.488  5.630  0.858  0.000  417.9  283.9  134.0    0.0
 1992 348   124  30.90  30.20  14.90  7.111  7.111  6.158  0.953  0.000  425.0  290.0  135.0    0.0
 1992 349   125  28.90  28.40  15.70  6.559  6.294  5.658  0.637  0.000  431.3  295.7  135.6    0.0
 1992 350   126  30.30  28.00  10.00  6.549  6.549  5.624  0.924  0.000  437.8  301.3  136.5    0.0
 1992 351   127  24.80  29.80  12.50  5.587  5.587  4.776  0.811  0.000  443.4  306.1  137.3    0.0
 1992 352   128  19.40  27.60  17.70  4.437  4.437  3.774  0.663  0.000  447.8  309.8  138.0    0.0
 1992 353   129  29.70  30.40  14.50  6.849  6.849  5.795  1.054  0.000  454.7  315.6  139.0    0.0
 1992 354   130  18.00  30.80  14.60  4.176  4.176  3.513  0.662  0.000  458.9  319.2  139.7    0.0
 1992 355   131  31.80  33.80  18.10  7.825  7.825  6.545  1.280  0.000  466.7  325.7  141.0    0.0
 1992 356   132  25.50  32.40  15.70  6.080  6.080  5.052  1.027  0.000  472.8  330.8  142.0    0.0
 1992 357   133  11.20  29.40  18.60  2.641  2.641  2.180  0.461  0.000  475.4  332.9  142.5    0.0
 1992 358   134  11.20  27.70  20.80  2.637  2.637  2.160  0.476  0.000  478.0  335.1  142.9    0.0
 1992 359   135  27.80  28.90  17.70  6.487  6.487  5.274  1.213  0.000  484.5  340.4  144.2    0.0
 1992 360   136  22.90  27.40  15.10  5.155  5.155  4.157  0.998  0.000  489.7  344.5  145.2    0.0
 1992 361   137  31.40  27.40  13.20  6.971  6.971  5.574  1.397  0.000  496.7  350.1  146.6    0.0
 1992 362   138  31.00  28.00  12.60  6.905  6.905  5.471  1.435  0.000  503.6  355.6  148.0    0.0
 1992 363   139  30.00  32.00  13.10  7.033  6.809  5.516  1.292  0.000  510.4  361.1  149.3    0.0
 1992 364   140   9.10  25.60  19.70  2.088  2.088  1.620  0.468  0.000  512.5  362.7  149.8    0.0
 1992 365   141   9.10  23.30  19.60  2.034  2.034  1.560  0.473  0.000  514.5  364.3  150.2    0.0
 1992 366   142   9.10  20.20  19.20  1.955  1.955  1.482  0.473  0.000  516.4  365.7  150.7    0.0
 1993 001   143   9.10  21.20  19.60  1.989  1.989  1.489  0.500  0.000  518.4  367.2  151.2    0.0
 1993 002   144   9.10  21.80  19.40  2.003  2.003  1.481  0.522  0.000  520.4  368.7  151.7    0.0
 1993 003   145   9.10  21.90  19.70  2.013  2.013  1.468  0.544  0.000  522.4  370.2  152.3    0.0
 1993 004   146  14.90  28.90  19.80  3.580  3.580  2.576  1.004  0.000  526.0  372.8  153.3    0.0
 1993 005   147  23.60  30.80  21.50  5.870  5.870  4.164  1.706  0.000  531.9  376.9  155.0    0.0
 1993 006   148  29.90  32.00  19.70  7.448  7.448  5.206  2.243  0.000  539.3  382.1  157.2    0.0
 1993 007   149  12.50  27.20  20.30  2.972  2.972  2.045  0.927  0.000  542.3  384.2  158.1    0.0
 1993 008   150  20.20  26.60  20.10  4.771  4.771  3.228  1.543  0.000  547.1  387.4  159.7    0.0
 1993 009   151  30.70  26.90  16.00  7.065  7.065  4.695  2.370  0.000  554.2  392.1  162.1    0.0
 1993 010   152  30.90  31.10  16.00  7.472  7.267  4.873  2.394  0.000  561.4  397.0  164.5    0.0
 1993 011   153  31.30  32.20  17.60  7.765  7.765  4.966  2.800  0.000  569.2  401.9  167.3    0.0
 1993 012   154  30.90  32.70  19.60  7.834  6.479  4.906  1.573  0.000  575.7  406.8  168.8    0.0
 1993 013   155  22.70  33.00  20.70  5.830  4.735  3.571  1.164  0.000  580.4  410.4  170.0    0.0
 1993 014   156  17.40  30.10  22.30  4.392  3.596  2.628  0.968  0.000  584.0  413.0  171.0    0.0
 1993 015   157  26.90  30.80  22.50  6.866  6.866  4.009  2.857  0.000  590.9  417.0  173.8    0.0
 1993 016   158  17.50  28.50  22.00  4.351  4.351  2.478  1.873  0.000  595.2  419.5  175.7    0.0
 1993 017   159  25.50  23.30  16.60  5.743  5.229  3.187  2.041  0.000  600.4  422.7  177.7    0.0
 1993 018   160  25.10  24.80  11.70  5.544  5.544  2.998  2.546  0.000  606.0  425.7  180.3    0.0
 1993 019   161  26.40  26.50  15.60  6.154  4.745  3.240  1.505  0.000  610.7  429.0  181.8    0.0
 1993 020   162  29.90  30.10  16.60  7.319  4.990  3.854  1.136  0.000  615.7  432.8  182.9    0.0
 1993 021   163  30.10  31.80  16.50  7.502  4.902  3.950  0.952  0.000  620.6  436.8  183.9    0.0

*DSSAT Cropping System Model Ver. 4.0.2.000               Aug 11, 2016; 21:02:09

*RUN   2        : UYMZ                    
 MODEL          : MZCER040 - Maize           
 EXPERIMENT     : UYMZ0190 MZ    late to create DSS                             
 TREATMENT  1   : UYMZ                    

@YEAR DOY   DAS   SRAA   TMXA   TMNA   EOAA   ETAA   EPAA   ESAA   EFAD   ETAC   EPAC   ESAC   EFAC
 1993 224     0   9.10  19.80   4.40  1.915  1.603  0.000  1.603  0.000    1.6    0.0    1.6    0.0
 1993 225     1  13.40  21.40   5.20  2.904  2.904  0.000  2.904  0.000    4.5    0.0    4.5    0.0
 1993 226     2   9.50  22.60   4.30  2.076  1.488  0.000  1.488  0.000    6.0    0.0    6.0    0.0
 1993 227     3  16.00  24.00   7.40  3.661  2.987  0.000  2.987  0.000    9.0    0.0    9.0    0.0
 1993 228     4  12.00  20.80   7.40  2.632  2.632  0.000  2.632  0.000   11.6    0.0   11.6    0.0
 1993 229     5  14.40  11.40   4.70  2.680  2.680  0.000  2.680  0.000   14.3    0.0   14.3    0.0
 1993 230     6  16.10  15.50  -0.20  3.037  2.902  0.000  2.902  0.000   17.2    0.0   17.2    0.0
 1993 231     7  16.70  18.70   1.60  3.367  3.305  0.000  3.305  0.000   20.5    0.0   20.5    0.0
 1993 232     8  16.40  19.00   2.00  3.334  1.448  0.000  1.448  0.000   21.9    0.0   21.9    0.0
 1993 233     9  15.00  18.60   2.30  3.041  1.112  0.000  1.112  0.000   23.1    0.0   23.1    0.0
 1993 234    10  11.80  20.00   6.40  2.537  0.937  0.000  0.937  0.000   24.0    0.0   24.0    0.0
 1993 235    11  11.00  20.00   5.50  2.345  0.826  0.000  0.826  0.000   24.8    0.0   24.8    0.0
 1993 236    12  17.00  22.60   6.10  3.775  0.747  0.000  0.747  0.000   25.6    0.0   25.6    0.0
 1993 237    13  16.20  24.20   8.80  3.761  0.687  0.000  0.687  0.000   26.3    0.0   26.3    0.0
 1993 238    14  15.20  26.40  10.40  3.676  0.639  0.000  0.639  0.000   26.9    0.0   26.9    0.0
 1993 239    15  14.70  29.20  12.50  3.737  0.600  0.000  0.600  0.000   27.5    0.0   27.5    0.0
 1993 240    16  13.50  31.30  18.70  3.680  0.577  0.009  0.568  0.000   28.1    0.0   28.1    0.0
 1993 241    17   5.40  19.00  15.40  1.240  0.547  0.007  0.540  0.000   28.6    0.0   28.6    0.0
 1993 242    18   5.40  16.30  13.10  1.172  1.172  0.009  1.163  0.000   29.8    0.0   29.8    0.0
 1993 243    19   5.50  12.20   9.20  1.084  1.084  0.009  1.075  0.000   30.9    0.0   30.8    0.0
 1993 244    20   6.30  13.60  10.20  1.280  1.280  0.012  1.269  0.000   32.2    0.0   32.1    0.0
 1993 245    21  14.50  13.00   8.40  2.870  2.870  0.028  2.842  0.000   35.0    0.1   35.0    0.0
 1993 246    22  19.30  17.00   4.50  3.899  3.618  0.039  3.579  0.000   38.6    0.1   38.5    0.0
 1993 247    23  19.40  24.10   5.80  4.376  3.151  0.046  3.104  0.000   41.8    0.2   41.6    0.0
 1993 248    24  19.60  22.00   7.00  4.344  1.496  0.054  1.442  0.000   43.3    0.2   43.1    0.0
 1993 249    25  17.90  23.50   6.30  4.019  1.181  0.072  1.109  0.000   44.5    0.3   44.2    0.0
 1993 250    26  18.40  15.80   7.90  3.767  1.027  0.091  0.936  0.000   45.5    0.4   45.1    0.0
 1993 251    27  19.70  16.90   4.60  3.967  0.935  0.110  0.825  0.000   46.4    0.5   45.9    0.0
 1993 252    28  20.00  19.90   3.90  4.176  0.873  0.127  0.746  0.000   47.3    0.6   46.7    0.0
 1993 253    29  20.10  21.50   4.90  4.329  0.831  0.145  0.686  0.000   48.1    0.8   47.4    0.0
 1993 254    30  17.10  15.00   5.20  3.362  0.770  0.132  0.639  0.000   48.9    0.9   48.0    0.0
 1993 255    31  19.80  19.10   4.00  4.084  0.769  0.169  0.600  0.000   49.7    1.1   48.6    0.0
 1993 256    32   7.30  18.00   5.60  1.504  0.634  0.067  0.568  0.000   50.3    1.1   49.2    0.0
 1993 257    33  13.10  18.20   9.90  2.816  0.676  0.136  0.540  0.000   51.0    1.3   49.7    0.0
 1993 258    34  15.70  22.40   9.20  3.544  0.712  0.196  0.516  0.000   51.7    1.5   50.2    0.0
 1993 259    35  20.70  25.60   7.80  4.803  0.808  0.313  0.495  0.000   52.5    1.8   50.7    0.0
 1993 260    36  21.10  23.00  10.90  4.854  0.853  0.377  0.476  0.000   53.4    2.1   51.2    0.0
 1993 261    37  11.60  24.00  12.20  2.727  0.706  0.247  0.459  0.000   54.1    2.4   51.7    0.0
 1993 262    38  15.70  23.00  10.90  3.597  0.822  0.378  0.444  0.000   54.9    2.8   52.1    0.0
 1993 263    39  16.50  19.10   8.80  3.518  3.518  0.419  3.098  0.000   58.4    3.2   55.2    0.0
 1993 264    40   8.70  11.40   4.10  1.578  0.700  0.204  0.496  0.000   59.1    3.4   55.7    0.0
 1993 265    41   6.50  12.20   4.50  1.200  0.628  0.151  0.477  0.000   59.7    3.5   56.2    0.0
 1993 266    42   6.50  14.90  10.00  1.320  0.624  0.164  0.460  0.000   60.4    3.7   56.7    0.0
 1993 267    43   7.00  17.00  12.00  1.490  0.641  0.196  0.445  0.000   61.0    3.9   57.1    0.0
 1993 268    44   7.80  19.00  12.10  1.705  0.673  0.242  0.431  0.000   61.7    4.1   57.5    0.0
 1993 269    45   9.00  14.90  10.60  1.830  1.830  0.284  1.547  0.000   63.5    4.4   59.1    0.0
 1993 270    46  18.40  21.50  10.30  4.077  4.077  0.666  3.411  0.000   67.6    5.1   62.5    0.0
 1993 271    47  21.60  22.10   8.50  4.738  4.218  0.850  3.369  0.000   71.8    5.9   65.9    0.0
 1993 272    48  15.50  19.80   7.80  3.268  3.268  0.639  2.630  0.000   75.1    6.6   68.5    0.0
 1993 273    49   7.70  20.60  14.30  1.734  1.734  0.361  1.373  0.000   76.8    6.9   69.9    0.0
 1993 274    50   9.30  23.30  15.60  2.183  1.640  0.496  1.144  0.000   78.4    7.4   71.0    0.0
 1993 275    51   6.90  18.60  16.00  1.527  1.527  0.384  1.142  0.000   80.0    7.8   72.1    0.0
 1993 276    52  11.30  19.80  13.40  2.475  2.475  0.673  1.803  0.000   82.4    8.5   73.9    0.0
 1993 277    53   7.30  19.40  12.80  1.578  1.578  0.459  1.118  0.000   84.0    9.0   75.1    0.0
 1993 278    54  22.90  17.40   9.50  4.664  4.608  1.444  3.164  0.000   88.6   10.4   78.2    0.0
 1993 279    55  24.10  20.10   5.30  4.891  4.891  1.583  3.308  0.000   93.5   12.0   81.5    0.0
 1993 280    56  24.80  23.70   7.20  5.363  3.288  1.806  1.482  0.000   96.8   13.8   83.0    0.0
 1993 281    57  19.60  27.50  12.30  4.618  2.798  1.672  1.126  0.000   99.6   15.5   84.1    0.0
 1993 282    58  18.00  29.20  13.10  4.330  2.670  1.724  0.946  0.000  102.3   17.2   85.1    0.0
 1993 283    59  24.70  31.80  17.30  6.277  3.573  2.741  0.832  0.000  105.9   19.9   85.9    0.0
 1993 284    60  23.70  33.30  17.60  6.089  3.709  2.957  0.751  0.000  109.6   22.9   86.7    0.0
 1993 285    61   7.40  23.60  17.20  1.688  1.581  0.891  0.690  0.000  111.1   23.8   87.4    0.0
 1993 286    62   7.40  18.30  16.80  1.568  1.568  0.876  0.692  0.000  112.7   24.7   88.1    0.0
 1993 287    63   9.00  22.10  16.40  1.985  1.985  1.163  0.823  0.000  114.7   25.8   88.9    0.0
 1993 288    64  18.60  24.90  13.90  4.141  4.141  2.548  1.593  0.000  118.8   28.4   90.5    0.0
 1993 289    65  25.30  31.60  14.90  6.110  6.110  3.931  2.179  0.000  124.9   32.3   92.6    0.0
 1993 290    66   9.20  25.70  13.30  2.039  2.039  1.382  0.657  0.000  127.0   33.7   93.3    0.0
 1993 291    67  18.70  21.10   8.70  3.748  3.748  2.629  1.120  0.000  130.7   36.3   94.4    0.0
 1993 292    68  18.30  22.60  12.30  3.851  3.851  2.750  1.101  0.000  134.6   39.1   95.5    0.0
 1993 293    69  16.80  24.50  16.60  3.739  3.739  2.734  1.005  0.000  138.3   41.8   96.5    0.0
 1993 294    70  18.20  26.80  17.30  4.171  4.171  3.135  1.036  0.000  142.5   44.9   97.6    0.0
 1993 295    71   7.80  18.50  12.60  1.547  1.547  1.197  0.350  0.000  144.0   46.1   97.9    0.0
 1993 296    72   7.80  16.40  12.10  1.495  1.495  1.172  0.323  0.000  145.5   47.3   98.2    0.0
 1993 297    73   8.20  17.30  11.60  1.582  1.582  1.251  0.331  0.000  147.1   48.5   98.6    0.0
 1993 298    74  12.90  17.90  10.80  2.488  2.488  1.987  0.501  0.000  149.6   50.5   99.1    0.0
 1993 299    75  27.40  20.00   6.30  5.215  5.215  4.202  1.013  0.000  154.8   54.7  100.1    0.0
 1993 300    76  24.90  22.00   9.00  4.983  4.983  4.046  0.937  0.000  159.8   58.8  101.0    0.0
 1993 301    77  28.20  28.00  11.50  6.202  6.202  5.089  1.112  0.000  166.0   63.9  102.1    0.0
 1993 302    78  15.30  28.40  17.40  3.532  3.532  2.945  0.587  0.000  169.5   66.8  102.7    0.0
 1993 303    79   8.10  22.30  17.50  1.738  1.738  1.476  0.262  0.000  171.3   68.3  103.0    0.0
 1993 304    80   8.10  20.70  15.10  1.669  1.669  1.431  0.237  0.000  172.9   69.7  103.2    0.0
 1993 305    81  25.40  19.10   9.80  4.887  4.887  4.232  0.656  0.000  177.8   74.0  103.9    0.0
 1993 306    82  28.60  24.90   9.40  5.911  5.911  5.146  0.765  0.000  183.7   79.1  104.6    0.0
 1993 307    83  28.20  28.70  12.90  6.272  6.272  5.503  0.768  0.000  190.0   84.6  105.4    0.0
 1993 308    84  28.70  29.00  14.90  6.496  6.496  5.763  0.733  0.000  196.5   90.4  106.1    0.0
 1993 309    85   8.90  21.20  13.80  1.815  1.815  1.628  0.187  0.000  198.3   92.0  106.3    0.0
 1993 310    86  12.90  16.60  10.70  2.406  2.406  2.170  0.236  0.000  200.7   94.2  106.6    0.0
 1993 311    87  28.50  22.70   8.50  5.656  5.656  5.118  0.538  0.000  206.4   99.3  107.1    0.0
 1993 312    88  29.10  27.70   8.60  6.153  6.153  5.592  0.560  0.000  212.5  104.9  107.7    0.0
 1993 313    89  28.70  30.00  12.90  6.447  6.447  5.894  0.553  0.000  219.0  110.8  108.2    0.0
 1993 314    90  22.60  32.30  16.20  5.335  5.335  4.912  0.422  0.000  224.3  115.7  108.6    0.0
 1993 315    91   9.80  28.20  20.20  2.275  2.275  2.111  0.163  0.000  226.6  117.8  108.8    0.0
 1993 316    92  18.70  26.00  17.50  4.146  4.146  3.858  0.288  0.000  230.7  121.7  109.1    0.0
 1993 317    93   8.50  23.70  15.30  1.800  1.800  1.691  0.109  0.000  232.5  123.3  109.2    0.0
 1993 318    94   8.50  19.10  14.90  1.693  1.693  1.594  0.099  0.000  234.2  124.9  109.3    0.0
 1993 319    95   8.60  21.10  15.90  1.772  1.772  1.670  0.102  0.000  236.0  126.6  109.4    0.0
 1993 320    96  10.60  21.80  17.60  2.234  2.234  2.107  0.126  0.000  238.2  128.7  109.5    0.0
 1993 321    97  10.60  20.40  13.50  2.120  2.120  2.003  0.118  0.000  240.4  130.7  109.6    0.0
 1993 322    98  18.70  20.80  12.20  3.719  3.719  3.512  0.207  0.000  244.1  134.2  109.8    0.0
 1993 323    99  29.60  25.10  11.00  6.152  6.152  5.812  0.340  0.000  250.2  140.0  110.2    0.0
 1993 324   100  30.00  27.20  11.70  6.433  6.433  6.082  0.351  0.000  256.7  146.1  110.5    0.0
 1993 325   101  29.90  30.00  13.50  6.719  6.719  6.358  0.360  0.000  263.4  152.5  110.9    0.0
 1993 326   102  28.60  27.40  15.70  6.342  6.342  6.008  0.334  0.000  269.7  158.5  111.2    0.0
 1993 327   103  20.70  28.20  13.80  4.565  4.565  4.328  0.237  0.000  274.3  162.8  111.5    0.0
 1993 328   104  16.20  27.20  19.00  3.675  3.675  3.486  0.190  0.000  278.0  166.3  111.7    0.0
 1993 329   105   9.20  25.20  18.30  2.029  2.029  1.925  0.104  0.000  280.0  168.2  111.8    0.0
 1993 330   106  16.40  21.20  16.40  3.395  3.395  3.219  0.176  0.000  283.4  171.4  111.9    0.0
 1993 331   107  12.80  20.50  14.80  2.591  2.591  2.456  0.136  0.000  286.0  173.9  112.1    0.0
 1993 332   108  23.50  22.20  13.00  4.788  4.788  4.534  0.254  0.000  290.8  178.4  112.3    0.0
 1993 333   109  27.20  26.10  10.30  5.690  5.690  5.383  0.307  0.000  296.5  183.8  112.6    0.0
 1993 334   110   9.80  18.00  14.60  1.918  1.918  1.813  0.105  0.000  298.4  185.6  112.7    0.0
 1993 335   111  29.40  21.90   9.30  5.783  5.783  5.460  0.323  0.000  304.2  191.1  113.1    0.0
 1993 336   112  31.10  28.30  10.40  6.690  6.690  6.307  0.383  0.000  310.8  197.4  113.4    0.0
 1993 337   113  16.80  28.50  19.10  3.874  3.874  3.649  0.225  0.000  314.7  201.0  113.7    0.0
 1993 338   114   9.00  24.80  16.90  1.956  1.956  1.838  0.118  0.000  316.7  202.9  113.8    0.0
 1993 339   115  27.20  21.00  13.50  5.489  5.489  5.143  0.346  0.000  322.2  208.0  114.1    0.0
 1993 340   116  10.90  24.40  13.50  2.296  2.296  2.146  0.149  0.000  324.5  210.2  114.3    0.0
 1993 341   117  20.10  28.00  19.00  4.611  4.611  4.302  0.309  0.000  329.1  214.5  114.6    0.0
 1993 342   118  21.40  28.50  17.80  4.894  4.894  4.557  0.337  0.000  334.0  219.0  114.9    0.0
 1993 343   119  30.00  29.90  16.00  6.877  6.877  6.391  0.486  0.000  340.8  225.4  115.4    0.0
 1993 344   120  26.90  28.00  18.10  6.133  6.133  5.690  0.444  0.000  347.0  231.1  115.9    0.0
 1993 345   121  30.40  30.30  15.50  6.977  6.977  6.462  0.516  0.000  354.0  237.6  116.4    0.0
 1993 346   122  28.20  32.20  19.90  6.825  6.825  6.311  0.515  0.000  360.8  243.9  116.9    0.0
 1993 347   123   9.40  25.40  20.00  2.112  2.112  1.950  0.162  0.000  362.9  245.8  117.1    0.0
 1993 348   124  22.00  27.20  20.30  5.058  5.058  4.663  0.395  0.000  368.0  250.5  117.5    0.0
 1993 349   125   9.10  21.50  15.80  1.888  1.888  1.738  0.150  0.000  369.8  252.2  117.6    0.0
 1993 350   126  28.10  23.10  14.90  5.905  5.905  5.424  0.481  0.000  375.7  257.7  118.1    0.0
 1993 351   127  31.30  28.30  12.90  6.892  6.892  6.314  0.578  0.000  382.6  264.0  118.7    0.0
 1993 352   128  26.60  29.10  16.40  6.074  6.074  5.550  0.524  0.000  388.7  269.5  119.2    0.0
 1993 353   129  29.30  29.90  16.50  6.759  6.759  6.159  0.600  0.000  395.5  275.7  119.8    0.0
 1993 354   130  27.60  21.40  13.60  5.624  5.624  5.110  0.514  0.000  401.1  280.8  120.3    0.0
 1993 355   131  31.80  23.30   8.40  6.354  6.354  5.754  0.600  0.000  407.4  286.5  120.9    0.0
 1993 356   132  29.40  29.30  12.90  6.561  6.561  5.922  0.639  0.000  414.0  292.5  121.5    0.0
 1993 357   133  29.30  32.50  16.50  6.967  6.967  6.267  0.700  0.000  421.0  298.7  122.2    0.0
 1993 358   134  30.60  31.80  18.50  7.329  7.329  6.570  0.759  0.000  428.3  305.3  123.0    0.0
 1993 359   135  20.10  32.40  21.00  4.935  4.935  4.407  0.528  0.000  433.2  309.7  123.5    0.0
 1993 360   136  23.00  29.20  20.60  5.442  5.442  4.842  0.601  0.000  438.7  314.6  124.1    0.0
 1993 361   137   9.10  23.20  19.30  1.992  1.992  1.765  0.227  0.000  440.7  316.3  124.3    0.0
 1993 362   138  23.00  26.50  15.70  5.092  5.092  4.491  0.602  0.000  445.8  320.8  125.0    0.0
 1993 363   139  22.50  21.30  14.60  4.638  4.638  4.070  0.568  0.000  450.4  324.9  125.5    0.0
 1993 364   140  31.30  25.40  11.00  6.594  6.594  5.757  0.836  0.000  457.0  330.6  126.4    0.0
 1993 365   141  31.30  27.90  13.10  6.916  6.916  6.006  0.910  0.000  463.9  336.6  127.3    0.0
 1994 001   142  31.50  28.20  15.80  7.137  7.137  6.163  0.974  0.000  471.0  342.8  128.2    0.0
 1994 002   143  30.40  24.20  12.90  6.423  6.423  5.513  0.910  0.000  477.5  348.3  129.1    0.0
 1994 003   144  31.50  24.90  10.40  6.581  6.581  5.612  0.969  0.000  484.1  353.9  130.1    0.0
 1994 004   145  30.10  27.50  12.70  6.618  6.306  5.605  0.700  0.000  490.4  359.5  130.8    0.0
 1994 005   146  29.60  30.00  15.20  6.836  6.836  5.748  1.088  0.000  497.2  365.3  131.9    0.0
 1994 006   147  12.50  31.30  18.80  3.010  3.010  2.512  0.498  0.000  500.2  367.8  132.4    0.0
 1994 007   148  18.50  30.30  18.80  4.411  4.411  3.652  0.759  0.000  504.6  371.5  133.2    0.0
 1994 008   149  19.30  25.50  18.50  4.354  4.354  3.574  0.780  0.000  509.0  375.0  133.9    0.0
 1994 009   150  30.40  23.60  16.40  6.602  6.602  5.370  1.232  0.000  515.6  380.4  135.2    0.0
 1994 010   151  31.30  24.20  11.20  6.570  6.570  5.292  1.279  0.000  522.1  385.7  136.5    0.0
 1994 011   152  31.30  28.20  11.50  6.924  6.924  5.517  1.406  0.000  529.1  391.2  137.9    0.0
 1994 012   153  28.90  29.20  14.40  6.624  6.624  5.220  1.404  0.000  535.7  396.4  139.3    0.0
 1994 013   154  26.50  28.10  17.00  6.126  5.856  4.772  1.084  0.000  541.5  401.2  140.3    0.0
 1994 014   155  28.10  29.80  15.20  6.542  6.542  5.033  1.509  0.000  548.1  406.2  141.9    0.0
 1994 015   156  30.60  30.60  14.10  7.140  7.140  5.421  1.719  0.000  555.2  411.7  143.6    0.0
 1994 016   157  26.20  26.50  14.30  5.848  5.790  4.378  1.412  0.000  561.0  416.0  145.0    0.0
 1994 017   158  29.50  28.00  13.80  6.687  6.027  4.931  1.095  0.000  567.0  421.0  146.1    0.0
 1994 018   159  30.70  30.00  18.20  7.373  6.279  5.352  0.928  0.000  573.3  426.3  147.0    0.0
 1994 019   160  29.80  31.60  18.40  7.307  6.036  5.216  0.819  0.000  579.4  431.5  147.8    0.0
 1994 020   161  27.90  35.00  18.80  7.126  7.126  4.999  2.127  0.000  586.5  436.5  150.0    0.0
 1994 021   162  29.20  26.50  18.10  6.773  6.773  4.664  2.110  0.000  593.3  441.2  152.1    0.0
 1994 022   163  27.80  29.50  17.90  6.675  6.512  4.505  2.007  0.000  599.8  445.7  154.1    0.0
 1994 023   164  12.50  25.60  18.60  2.892  2.892  1.912  0.981  0.000  602.7  447.6  155.1    0.0
 1994 024   165   8.80  27.30  19.90  2.101  2.101  1.358  0.743  0.000  604.8  449.0  155.8    0.0
 1994 025   166  15.80  25.60  19.20  3.681  3.681  2.380  1.301  0.000  608.4  451.3  157.1    0.0
 1994 026   167  25.40  26.60  18.20  5.940  5.393  3.840  1.553  0.000  613.8  455.2  158.7    0.0

*DSSAT Cropping System Model Ver. 4.0.2.000               Aug 11, 2016; 21:02:09

*RUN   3        : UYMZ                    
 MODEL          : MZCER040 - Maize           
 EXPERIMENT     : UYMZ0190 MZ    late to create DSS                             
 TREATMENT  1   : UYMZ                    

@YEAR DOY   DAS   SRAA   TMXA   TMNA   EOAA   ETAA   EPAA   ESAA   EFAD   ETAC   EPAC   ESAC   EFAC
 1994 224     0  16.10  23.40   7.40  3.655  2.585  0.000  2.585  0.000    2.6    0.0    2.6    0.0
 1994 225     1  14.20  23.20   8.40  3.243  2.245  0.000  2.245  0.000    4.8    0.0    4.8    0.0
 1994 226     2   9.00  15.50   9.10  1.863  1.353  0.000  1.353  0.000    6.2    0.0    6.2    0.0
 1994 227     3   7.50  10.80   5.30  1.392  1.392  0.000  1.392  0.000    7.6    0.0    7.6    0.0
 1994 228     4  16.50  12.00   2.30  3.023  3.023  0.000  3.023  0.000   10.6    0.0   10.6    0.0
 1994 229     5  13.90  13.10   0.20  2.534  2.155  0.000  2.155  0.000   12.8    0.0   12.8    0.0
 1994 230     6  11.80  21.00   0.40  2.432  2.432  0.000  2.432  0.000   15.2    0.0   15.2    0.0
 1994 231     7   9.90  21.10  11.90  2.268  1.610  0.000  1.610  0.000   16.8    0.0   16.8    0.0
 1994 232     8   9.80  16.80  10.80  2.099  1.178  0.000  1.178  0.000   18.0    0.0   18.0    0.0
 1994 233     9   5.30  22.00  12.00  1.229  0.976  0.000  0.976  0.000   18.9    0.0   18.9    0.0
 1994 234    10   5.80  18.00   5.70  1.204  0.852  0.000  0.852  0.000   19.8    0.0   19.8    0.0
 1994 235    11  17.00  14.00   1.40  3.185  0.966  0.000  0.966  0.000   20.8    0.0   20.8    0.0
 1994 236    12  17.70  17.30   2.80  3.538  0.701  0.000  0.701  0.000   21.5    0.0   21.5    0.0
 1994 237    13   9.50  17.40   4.20  1.928  0.651  0.000  0.651  0.000   22.1    0.0   22.1    0.0
 1994 238    14  16.60  17.00   6.00  3.408  0.610  0.000  0.610  0.000   22.7    0.0   22.7    0.0
 1994 239    15  10.90  16.70   3.10  2.166  0.576  0.000  0.576  0.000   23.3    0.0   23.3    0.0
 1994 240    16   7.40  17.20  10.80  1.594  1.594  0.000  1.594  0.000   24.9    0.0   24.9    0.0
 1994 241    17   9.20  23.00  12.80  2.176  1.500  0.000  1.500  0.000   26.4    0.0   26.4    0.0
 1994 242    18   5.40  15.70  12.60  1.158  1.158  0.002  1.156  0.000   27.6    0.0   27.6    0.0
 1994 243    19   5.50  16.50  12.30  1.189  1.047  0.003  1.044  0.000   28.6    0.0   28.6    0.0
 1994 244    20   5.50  17.10   9.90  1.172  1.172  0.004  1.168  0.000   29.8    0.0   29.8    0.0
 1994 245    21   9.20  12.00   5.30  1.739  1.739  0.008  1.730  0.000   31.5    0.0   31.5    0.0
 1994 246    22  19.40  17.40   3.90  3.922  3.922  0.019  3.904  0.000   35.4    0.0   35.4    0.0
 1994 247    23  19.60  18.60   4.00  4.036  2.576  0.021  2.556  0.000   38.0    0.1   38.0    0.0
 1994 248    24  13.40  22.80   4.50  2.939  1.955  0.017  1.939  0.000   40.0    0.1   39.9    0.0
 1994 249    25  17.60  25.20  13.00  4.279  1.313  0.029  1.284  0.000   41.3    0.1   41.2    0.0
 1994 250    26  18.40  15.10   3.80  3.589  1.066  0.033  1.033  0.000   42.3    0.1   42.2    0.0
 1994 251    27  15.20  11.30   1.20  2.716  0.914  0.025  0.889  0.000   43.3    0.2   43.1    0.0
 1994 252    28  18.20  13.30   1.00  3.354  0.816  0.024  0.792  0.000   44.1    0.2   43.9    0.0
 1994 253    29  14.60  19.00   3.70  3.015  0.739  0.017  0.722  0.000   44.8    0.2   44.6    0.0
 1994 254    30  17.50  22.40  12.80  4.104  0.692  0.025  0.667  0.000   45.5    0.2   45.3    0.0
 1994 255    31   6.30  18.20  13.00  1.401  1.401  0.012  1.389  0.000   46.9    0.2   46.7    0.0
 1994 256    32  12.40  25.00  15.50  3.065  2.124  0.044  2.080  0.000   49.0    0.3   48.7    0.0
 1994 257    33   6.10  15.80  13.20  1.312  1.312  0.033  1.279  0.000   50.3    0.3   50.0    0.0
 1994 258    34  16.60  16.30   8.40  3.437  3.198  0.103  3.095  0.000   53.5    0.4   53.1    0.0
 1994 259    35  20.40  18.20   4.60  4.183  3.301  0.141  3.160  0.000   56.8    0.6   56.3    0.0
 1994 260    36  20.40  20.70   6.10  4.391  1.609  0.164  1.444  0.000   58.5    0.7   57.7    0.0
 1994 261    37  21.10  29.60  12.50  5.354  1.347  0.237  1.110  0.000   59.8    1.0   58.8    0.0
 1994 262    38  20.20  31.40  18.80  5.468  1.272  0.335  0.936  0.000   61.1    1.3   59.8    0.0
 1994 263    39  19.60  32.70  23.80  5.552  1.298  0.473  0.825  0.000   62.4    1.8   60.6    0.0
 1994 264    40  11.40  27.20  15.90  2.857  1.077  0.331  0.746  0.000   63.4    2.1   61.3    0.0
 1994 265    41  13.80  26.70  15.40  3.414  1.157  0.471  0.686  0.000   64.6    2.6   62.0    0.0
 1994 266    42  20.90  34.00  18.80  5.730  1.562  0.923  0.639  0.000   66.2    3.5   62.7    0.0
 1994 267    43   6.60  29.80  15.40  1.677  1.677  0.332  1.345  0.000   67.8    3.8   64.0    0.0
 1994 268    44   8.80  15.30   9.40  1.760  1.760  0.400  1.360  0.000   69.6    4.2   65.4    0.0
 1994 269    45  23.40  20.90   6.50  4.919  4.734  1.162  3.573  0.000   74.3    5.4   68.9    0.0
 1994 270    46  23.40  17.20   3.10  4.512  4.357  1.123  3.233  0.000   78.7    6.5   72.2    0.0
 1994 271    47  19.80  22.00   7.10  4.247  3.147  1.008  2.139  0.000   81.8    7.5   74.3    0.0
 1994 272    48   7.10  20.30  13.50  1.571  1.242  0.399  0.843  0.000   83.1    7.9   75.2    0.0
 1994 273    49  17.50  20.80  13.10  3.872  3.872  1.062  2.809  0.000   87.0    9.0   78.0    0.0
 1994 274    50  15.10  21.40   9.20  3.244  2.470  0.961  1.510  0.000   89.4    9.9   79.5    0.0
 1994 275    51  19.60  23.90  13.00  4.478  3.326  1.409  1.917  0.000   92.8   11.4   81.4    0.0
 1994 276    52  17.90  22.30  13.30  4.000  3.559  1.384  2.175  0.000   96.3   12.7   83.6    0.0
 1994 277    53   7.00  16.90  12.10  1.436  1.436  0.539  0.897  0.000   97.7   13.3   84.5    0.0
 1994 278    54  15.80  21.80  12.20  3.451  2.498  1.358  1.140  0.000  100.2   14.6   85.6    0.0
 1994 279    55  22.30  22.90  11.40  4.886  3.008  2.054  0.954  0.000  103.3   16.7   86.6    0.0
 1994 280    56  20.40  24.00  13.60  4.598  2.880  2.042  0.837  0.000  106.1   18.7   87.4    0.0
 1994 281    57  11.90  25.80  15.00  2.760  2.064  1.309  0.755  0.000  108.2   20.0   88.2    0.0
 1994 282    58   7.40  21.10  17.30  1.644  1.644  0.832  0.812  0.000  109.8   20.9   89.0    0.0
 1994 283    59   7.30  19.00  12.10  1.504  1.504  0.804  0.700  0.000  111.3   21.7   89.7    0.0
 1994 284    60  15.80  20.20  11.40  3.277  3.277  1.813  1.464  0.000  114.6   23.5   91.1    0.0
 1994 285    61   7.40  18.10  14.60  1.530  1.530  0.879  0.652  0.000  116.2   24.4   91.8    0.0
 1994 286    62  24.50  22.10  15.00  5.336  5.336  3.165  2.171  0.000  121.5   27.5   94.0    0.0
 1994 287    63  25.90  23.00  11.40  5.517  5.517  3.397  2.120  0.000  127.0   30.9   96.1    0.0
 1994 288    64  25.20  28.20  14.30  5.833  5.412  3.723  1.689  0.000  132.4   34.6   97.8    0.0
 1994 289    65  17.90  30.10  13.40  4.187  4.187  2.800  1.387  0.000  136.6   37.4   99.2    0.0
 1994 290    66   7.60  18.20  14.30  1.541  1.541  1.075  0.466  0.000  138.1   38.5   99.6    0.0
 1994 291    67  17.10  21.00  10.70  3.478  3.478  2.481  0.997  0.000  141.6   41.0  100.6    0.0
 1994 292    68   7.70  19.90  11.90  1.557  1.557  1.132  0.425  0.000  143.2   42.1  101.0    0.0
 1994 293    69  24.00  23.10  11.70  5.037  5.037  3.730  1.307  0.000  148.2   45.9  102.3    0.0
 1994 294    70  22.00  24.00  14.00  4.748  4.748  3.589  1.159  0.000  153.0   49.5  103.5    0.0
 1994 295    71  18.90  23.60  11.10  3.953  3.953  3.055  0.898  0.000  156.9   52.5  104.4    0.0
 1994 296    72   7.80  17.40  13.10  1.528  1.528  1.201  0.327  0.000  158.4   53.7  104.7    0.0
 1994 297    73   9.50  20.00  14.10  1.940  1.940  1.544  0.397  0.000  160.4   55.3  105.1    0.0
 1994 298    74  23.10  22.10  13.10  4.797  4.797  3.872  0.926  0.000  165.2   59.1  106.1    0.0
 1994 299    75  24.80  24.70  11.70  5.250  5.250  4.297  0.953  0.000  170.4   63.4  107.0    0.0
 1994 300    76  27.10  23.20  11.90  5.631  5.631  4.674  0.957  0.000  176.1   68.1  108.0    0.0
 1994 301    77  24.10  16.20   5.20  4.279  4.279  3.594  0.684  0.000  180.3   71.7  108.6    0.0
 1994 302    78  27.10  16.00   2.40  4.664  4.664  3.926  0.738  0.000  185.0   75.6  109.4    0.0
 1994 303    79   8.10  18.70   5.90  1.509  1.509  1.211  0.298  0.000  186.5   76.8  109.7    0.0
 1994 304    80   8.10  20.60  15.30  1.681  1.681  1.358  0.323  0.000  188.2   78.2  110.0    0.0
 1994 305    81  22.50  23.20  14.20  4.774  4.774  3.903  0.871  0.000  193.0   82.1  110.9    0.0
 1994 306    82  28.60  26.80  12.80  6.257  6.257  5.187  1.070  0.000  199.2   87.3  111.9    0.0
 1994 307    83  27.80  27.40  13.30  6.139  6.139  5.166  0.973  0.000  205.4   92.4  112.9    0.0
 1994 308    84  16.40  26.80  13.60  3.598  3.598  3.072  0.527  0.000  209.0   95.5  113.4    0.0
 1994 309    85  22.30  26.00  17.10  4.974  4.974  4.300  0.674  0.000  213.9   99.8  114.1    0.0
 1994 310    86  27.30  23.00  12.60  5.655  5.655  4.950  0.705  0.000  219.6  104.8  114.8    0.0
 1994 311    87  28.30  25.50  10.10  5.918  5.918  5.220  0.698  0.000  225.5  110.0  115.5    0.0
 1994 312    88  17.00  27.40  16.10  3.812  3.812  3.385  0.427  0.000  229.3  113.4  116.0    0.0
 1994 313    89  30.20  22.80  14.60  6.325  6.325  5.676  0.649  0.000  235.6  119.0  116.6    0.0
 1994 314    90  15.60  22.50  11.30  3.163  3.163  2.861  0.303  0.000  238.8  121.9  116.9    0.0
 1994 315    91  23.40  26.00  12.30  4.995  4.995  4.535  0.459  0.000  243.8  126.4  117.4    0.0
 1994 316    92  18.20  26.50  17.10  4.057  4.057  3.698  0.358  0.000  247.9  130.1  117.7    0.0
 1994 317    93  24.00  26.70  16.00  5.314  5.314  4.864  0.450  0.000  253.2  135.0  118.2    0.0
 1994 318    94  22.70  28.20  16.90  5.148  5.148  4.724  0.424  0.000  258.3  139.7  118.6    0.0
 1994 319    95  16.40  26.30  19.20  3.702  3.702  3.405  0.297  0.000  262.0  143.1  118.9    0.0
 1994 320    96  19.50  28.00  16.90  4.410  4.410  4.062  0.348  0.000  266.4  147.2  119.2    0.0
 1994 321    97  15.50  20.40  10.30  3.025  3.025  2.789  0.236  0.000  269.5  150.0  119.5    0.0
 1994 322    98  29.70  22.80   7.90  5.858  5.858  5.394  0.464  0.000  275.3  155.4  119.9    0.0
 1994 323    99  29.10  23.80   9.60  5.901  5.901  5.426  0.475  0.000  281.2  160.8  120.4    0.0
 1994 324   100  29.30  22.40  10.00  5.857  5.857  5.379  0.478  0.000  287.1  166.2  120.9    0.0
 1994 325   101  30.00  24.60   9.90  6.163  6.163  5.653  0.510  0.000  293.2  171.8  121.4    0.0
 1994 326   102  29.20  26.90  10.60  6.208  6.208  5.688  0.520  0.000  299.4  177.5  121.9    0.0
 1994 327   103  27.80  27.00  12.10  5.990  5.990  5.484  0.506  0.000  305.4  183.0  122.4    0.0
 1994 328   104  30.50  29.40  12.60  6.787  6.787  6.211  0.576  0.000  312.2  189.2  123.0    0.0
 1994 329   105  28.70  32.00  15.40  6.718  6.718  6.146  0.572  0.000  318.9  195.4  123.6    0.0
 1994 330   106  10.50  21.40  15.20  2.167  2.167  1.983  0.184  0.000  321.1  197.3  123.8    0.0
 1994 331   107  30.90  25.20  10.40  6.425  6.425  5.872  0.553  0.000  327.5  203.2  124.3    0.0
 1994 332   108   8.90  20.30  13.50  1.786  1.786  1.630  0.156  0.000  329.3  204.8  124.5    0.0
 1994 333   109  28.40  23.50  13.90  5.956  5.956  5.414  0.542  0.000  335.3  210.3  125.0    0.0
 1994 334   110  31.00  31.00  13.30  7.074  7.074  6.404  0.670  0.000  342.3  216.7  125.7    0.0
 1994 335   111  30.60  32.00  16.10  7.212  7.212  6.509  0.703  0.000  349.6  223.2  126.4    0.0
 1994 336   112  14.80  31.60  17.60  3.512  3.512  3.161  0.352  0.000  353.1  226.3  126.7    0.0
 1994 337   113   9.00  20.50  15.90  1.852  1.852  1.661  0.190  0.000  354.9  228.0  126.9    0.0
 1994 338   114  23.80  22.00  11.90  4.826  4.826  4.318  0.508  0.000  359.8  232.3  127.4    0.0
 1994 339   115  29.60  24.90  10.10  6.135  6.135  5.475  0.660  0.000  365.9  237.8  128.1    0.0
 1994 340   116  30.30  28.60  13.10  6.729  6.729  5.990  0.739  0.000  372.6  243.8  128.8    0.0
 1994 341   117  31.60  28.00  15.60  7.108  7.108  6.311  0.796  0.000  379.7  250.1  129.6    0.0
 1994 342   118  30.30  30.00  14.50  6.917  6.917  6.128  0.789  0.000  386.6  256.2  130.4    0.0
 1994 343   119  29.30  35.40  16.10  7.312  7.312  6.465  0.848  0.000  394.0  262.7  131.3    0.0
 1994 344   120  30.20  35.40  20.00  7.746  7.746  6.835  0.912  0.000  401.7  269.5  132.2    0.0
 1994 345   121  20.70  36.40  21.70  5.670  5.670  4.994  0.676  0.000  407.4  274.5  132.9    0.0
 1994 346   122  20.50  36.90  22.80  5.808  5.808  5.100  0.708  0.000  413.2  279.6  133.6    0.0
 1994 347   123  12.10  30.80  20.90  2.926  2.926  2.560  0.366  0.000  416.1  282.2  133.9    0.0
 1994 348   124  12.50  28.90  20.40  2.951  2.951  2.572  0.379  0.000  419.1  284.7  134.3    0.0
 1994 349   125  29.60  30.00  17.30  6.918  6.918  6.004  0.914  0.000  426.0  290.7  135.2    0.0
 1994 350   126  11.70  27.10  17.90  2.660  2.660  2.298  0.361  0.000  428.6  293.0  135.6    0.0
 1994 351   127  30.50  28.00  16.60  6.940  6.940  5.970  0.970  0.000  435.6  299.0  136.6    0.0
 1994 352   128  31.90  25.10  12.20  6.778  6.778  5.800  0.978  0.000  442.3  304.8  137.5    0.0
 1994 353   129  24.40  27.40  15.50  5.474  5.474  4.658  0.816  0.000  447.8  309.5  138.3    0.0
 1994 354   130  27.50  29.70  17.00  6.411  6.411  5.422  0.989  0.000  454.2  314.9  139.3    0.0
 1994 355   131  24.90  29.00  18.90  5.847  5.847  4.912  0.934  0.000  460.1  319.8  140.3    0.0
 1994 356   132  23.90  30.90  16.10  5.619  5.619  4.687  0.931  0.000  465.7  324.5  141.2    0.0
 1994 357   133  29.90  32.60  18.70  7.304  7.304  6.047  1.257  0.000  473.0  330.5  142.5    0.0
 1994 358   134  26.10  33.90  18.80  6.475  6.475  5.317  1.158  0.000  479.5  335.9  143.6    0.0
 1994 359   135  29.70  35.10  21.10  7.623  7.623  6.205  1.418  0.000  487.1  342.1  145.0    0.0
 1994 360   136  28.50  31.50  18.50  6.891  6.852  5.557  1.295  0.000  494.0  347.6  146.3    0.0
 1994 361   137  24.90  32.20  17.80  6.043  6.043  4.824  1.219  0.000  500.0  352.4  147.6    0.0
 1994 362   138  17.70  33.20  20.00  4.416  4.416  3.487  0.929  0.000  504.4  355.9  148.5    0.0
 1994 363   139  27.40  32.90  20.60  6.852  6.852  5.349  1.503  0.000  511.3  361.3  150.0    0.0
 1994 364   140  26.20  32.10  22.20  6.580  6.580  5.073  1.507  0.000  517.8  366.4  151.5    0.0
 1994 365   141  29.10  33.20  18.60  7.219  6.866  5.494  1.372  0.000  524.7  371.9  152.9    0.0
 1995 001   142  30.60  35.90  20.70  8.259  8.259  6.197  2.062  0.000  533.0  378.0  154.9    0.0
 1995 002   143  24.60  36.00  21.80  6.737  6.737  4.979  1.757  0.000  539.7  383.0  156.7    0.0
 1995 003   144  25.80  34.80  21.60  6.678  6.678  4.858  1.821  0.000  546.4  387.9  158.5    0.0
 1995 004   145  21.00  33.30  20.80  5.332  5.332  3.813  1.520  0.000  551.7  391.7  160.0    0.0
 1995 005   146  25.30  32.30  21.50  6.401  6.401  4.494  1.907  0.000  558.1  396.2  161.9    0.0
 1995 006   147  27.00  30.40  19.00  6.587  6.587  4.537  2.051  0.000  564.7  400.7  164.0    0.0
 1995 007   148  31.60  32.20  15.50  7.680  6.891  5.183  1.707  0.000  571.6  405.9  165.7    0.0
 1995 008   149  20.20  33.50  20.20  5.160  5.160  3.410  1.750  0.000  576.8  409.3  167.4    0.0
 1995 009   150  15.00  24.20  15.50  3.339  3.339  2.158  1.181  0.000  580.1  411.5  168.6    0.0
 1995 010   151  29.20  24.50  12.00  6.354  6.354  4.012  2.343  0.000  586.5  415.5  171.0    0.0
 1995 011   152  16.70  24.40  14.80  3.722  3.441  2.294  1.147  0.000  589.9  417.8  172.1    0.0
 1995 012   153  24.80  28.40  11.80  5.674  5.674  3.412  2.261  0.000  595.6  421.2  174.4    0.0
 1995 013   154  20.10  30.20  17.80  4.914  4.682  2.955  1.727  0.000  600.2  424.2  176.1    0.0
 1995 014   155  21.80  32.20  20.90  5.569  5.569  3.349  2.220  0.000  605.8  427.5  178.3    0.0

*DSSAT Cropping System Model Ver. 4.0.2.000               Aug 11, 2016; 21:02:09

*RUN   4        : UYMZ                    
 MODEL          : MZCER040 - Maize           
 EXPERIMENT     : UYMZ0190 MZ    late to create DSS                             
 TREATMENT  1   : UYMZ                    

@YEAR DOY   DAS   SRAA   TMXA   TMNA   EOAA   ETAA   EPAA   ESAA   EFAD   ETAC   EPAC   ESAC   EFAC
 1995 224     0  11.50  21.50  11.20  2.632  2.632  0.000  2.632  0.000    2.6    0.0    2.6    0.0
 1995 225     1   5.60  24.00  13.00  1.343  1.343  0.000  1.343  0.000    4.0    0.0    4.0    0.0
 1995 226     2   4.70  20.00  13.50  1.076  1.076  0.000  1.076  0.000    5.1    0.0    5.1    0.0
 1995 227     3  13.50  13.60   3.60  2.572  2.572  0.000  2.572  0.000    7.6    0.0    7.6    0.0
 1995 228     4  14.80  11.10   1.70  2.654  2.654  0.000  2.654  0.000   10.3    0.0   10.3    0.0
 1995 229     5   7.50  10.50   0.60  1.315  1.099  0.000  1.099  0.000   11.4    0.0   11.4    0.0
 1995 230     6  14.30  12.00   2.30  2.620  2.620  0.000  2.620  0.000   14.0    0.0   14.0    0.0
 1995 231     7  16.40  13.20  -0.70  2.965  1.629  0.000  1.629  0.000   15.6    0.0   15.6    0.0
 1995 232     8  15.80  15.00  -1.10  2.929  1.186  0.000  1.186  0.000   16.8    0.0   16.8    0.0
 1995 233     9  11.10  19.70   3.20  2.306  0.980  0.000  0.980  0.000   17.8    0.0   17.8    0.0
 1995 234    10  16.60  23.00   6.30  3.713  0.855  0.000  0.855  0.000   18.6    0.0   18.6    0.0
 1995 235    11  16.70  31.80  14.30  4.434  0.768  0.000  0.768  0.000   19.4    0.0   19.4    0.0
 1995 236    12  14.60  30.40  19.30  3.960  0.703  0.000  0.703  0.000   20.1    0.0   20.1    0.0
 1995 237    13   8.70  29.00  18.30  2.306  0.652  0.000  0.652  0.000   20.8    0.0   20.8    0.0
 1995 238    14  11.70  30.40  18.30  3.149  0.620  0.009  0.611  0.000   21.4    0.0   21.4    0.0
 1995 239    15  12.20  28.30  15.20  3.132  0.595  0.018  0.577  0.000   22.0    0.0   22.0    0.0
 1995 240    16   7.90  20.00  13.40  1.805  0.564  0.016  0.548  0.000   22.5    0.0   22.5    0.0
 1995 241    17   6.50  24.60   9.70  1.526  0.539  0.016  0.523  0.000   23.1    0.1   23.0    0.0
 1995 242    18  17.50  20.00  11.00  3.913  0.550  0.049  0.501  0.000   23.6    0.1   23.5    0.0
 1995 243    19  12.20  25.30   9.40  2.880  0.523  0.042  0.482  0.000   24.2    0.2   24.0    0.0
 1995 244    20  13.10  20.60   6.00  2.820  0.527  0.063  0.464  0.000   24.7    0.2   24.5    0.0
 1995 245    21  19.80  15.20   3.00  3.826  0.552  0.103  0.449  0.000   25.2    0.3   24.9    0.0
 1995 246    22  18.60  18.10   1.60  3.703  0.533  0.098  0.435  0.000   25.8    0.4   25.4    0.0
 1995 247    23  14.80  22.20   7.00  3.284  0.500  0.078  0.422  0.000   26.3    0.5   25.8    0.0
 1995 248    24  18.00  28.80  13.60  4.573  0.550  0.140  0.410  0.000   26.8    0.6   26.2    0.0
 1995 249    25  19.60  30.80  14.20  5.107  0.633  0.233  0.399  0.000   27.5    0.9   26.6    0.0
 1995 250    26  19.10  32.00  13.60  5.007  5.007  0.322  4.685  0.000   32.5    1.2   31.3    0.0
 1995 251    27   8.00  24.30  15.80  1.945  1.945  0.166  1.779  0.000   34.4    1.4   33.1    0.0
 1995 252    28   5.90  18.40  12.90  1.296  1.296  0.132  1.164  0.000   35.7    1.5   34.2    0.0
 1995 253    29   5.90  16.90  12.90  1.269  1.269  0.139  1.129  0.000   37.0    1.6   35.3    0.0
 1995 254    30  12.10  20.00   9.10  2.620  2.620  0.301  2.319  0.000   39.6    1.9   37.7    0.0
 1995 255    31  20.20  12.30   3.30  3.690  3.495  0.451  3.044  0.000   43.1    2.4   40.7    0.0
 1995 256    32   6.10  10.10   7.50  1.126  1.126  0.130  0.996  0.000   44.2    2.5   41.7    0.0
 1995 257    33   7.50  13.90   7.40  1.466  1.466  0.171  1.295  0.000   45.7    2.7   43.0    0.0
 1995 258    34  20.00  19.00   6.60  4.172  4.172  0.502  3.670  0.000   49.8    3.2   46.7    0.0
 1995 259    35  21.50  21.80   7.40  4.688  3.069  0.602  2.467  0.000   52.9    3.8   49.1    0.0
 1995 260    36  18.90  26.00   8.80  4.394  2.454  0.622  1.832  0.000   55.4    4.4   51.0    0.0
 1995 261    37  21.10  24.40   8.60  4.785  2.027  0.774  1.253  0.000   57.4    5.2   52.2    0.0
 1995 262    38  19.10  13.80   5.50  3.622  1.672  0.655  1.017  0.000   59.1    5.8   53.2    0.0
 1995 263    39  21.30  14.10   1.50  3.891  1.599  0.720  0.879  0.000   60.7    6.6   54.1    0.0
 1995 264    40  21.40  18.00   3.10  4.235  1.436  0.651  0.785  0.000   62.1    7.2   54.9    0.0
 1995 265    41   6.50  14.50   8.10  1.284  1.284  0.192  1.093  0.000   63.4    7.4   56.0    0.0
 1995 266    42  14.50  17.90   8.90  3.027  1.527  0.473  1.054  0.000   64.9    7.9   57.0    0.0
 1995 267    43  18.90  22.20   8.10  4.143  1.601  0.700  0.902  0.000   66.5    8.6   58.0    0.0
 1995 268    44  19.80  23.30   9.00  4.425  4.030  0.830  3.200  0.000   70.5    9.4   61.2    0.0
 1995 269    45  18.90  23.00  12.90  4.335  1.796  0.907  0.889  0.000   72.3   10.3   62.0    0.0
 1995 270    46  10.40  17.60   8.30  2.124  1.292  0.499  0.793  0.000   73.6   10.8   62.8    0.0
 1995 271    47   6.90  15.20   7.90  1.354  1.057  0.335  0.722  0.000   74.7   11.1   63.6    0.0
 1995 272    48   6.80  13.70  11.10  1.345  1.345  0.345  1.000  0.000   76.0   11.5   64.6    0.0
 1995 273    49  17.50  19.40  11.40  3.750  1.731  1.002  0.728  0.000   77.8   12.5   65.3    0.0
 1995 274    50  17.60  20.80   8.50  3.733  1.745  1.073  0.672  0.000   79.5   13.6   66.0    0.0
 1995 275    51   6.90  22.50  12.80  1.548  1.107  0.479  0.628  0.000   80.6   14.0   66.6    0.0
 1995 276    52   7.00  18.00  12.60  1.473  1.473  0.495  0.977  0.000   82.1   14.5   67.6    0.0
 1995 277    53  11.50  22.00  14.20  2.574  2.574  0.923  1.652  0.000   84.7   15.5   69.2    0.0
 1995 278    54   8.40  21.80  15.40  1.886  1.886  0.735  1.151  0.000   86.6   16.2   70.4    0.0
 1995 279    55  12.40  23.80  16.50  2.870  2.870  1.173  1.697  0.000   89.4   17.4   72.1    0.0
 1995 280    56  20.30  22.60  13.60  4.508  4.508  1.932  2.576  0.000   93.9   19.3   74.6    0.0
 1995 281    57  24.00  21.10  10.70  5.082  5.082  2.299  2.783  0.000   99.0   21.6   77.4    0.0
 1995 282    58  24.90  18.30   7.80  4.930  4.672  2.340  2.332  0.000  103.7   23.9   79.8    0.0
 1995 283    59  25.70  20.20   7.10  5.180  5.180  2.530  2.650  0.000  108.9   26.5   82.4    0.0
 1995 284    60  22.80  22.00   7.20  4.701  3.966  2.370  1.597  0.000  112.8   28.8   84.0    0.0
 1995 285    61   7.40  16.80  11.50  1.474  1.474  0.774  0.699  0.000  114.3   29.6   84.7    0.0
 1995 286    62  21.40  15.00   6.90  3.965  3.965  2.157  1.808  0.000  118.3   31.8   86.5    0.0
 1995 287    63  25.90  20.90   4.40  5.092  5.092  2.814  2.277  0.000  123.4   34.6   88.8    0.0
 1995 288    64  25.80  26.30   9.70  5.694  5.177  3.186  1.991  0.000  128.5   37.8   90.8    0.0
 1995 289    65  25.60  23.00   9.90  5.406  5.406  3.178  2.228  0.000  133.9   40.9   93.0    0.0
 1995 290    66  16.60  19.00   6.00  3.198  3.198  1.951  1.247  0.000  137.1   42.9   94.2    0.0
 1995 291    67  26.30  22.20   7.10  5.337  4.574  3.319  1.256  0.000  141.7   46.2   95.5    0.0
 1995 292    68  19.20  22.80   8.30  3.959  3.544  2.526  1.018  0.000  145.3   48.7   96.5    0.0
 1995 293    69  25.20  22.10   8.80  5.158  4.260  3.380  0.880  0.000  149.5   52.1   97.4    0.0
 1995 294    70  25.70  23.00   6.00  5.181  4.265  3.479  0.786  0.000  153.8   55.6   98.2    0.0
 1995 295    71  26.90  26.10  11.10  5.879  5.879  4.030  1.848  0.000  159.7   59.6  100.0    0.0
 1995 296    72  26.20  30.10  12.80  6.066  6.066  4.287  1.779  0.000  165.7   63.9  101.8    0.0
 1995 297    73  24.80  31.00  15.20  5.885  5.885  4.306  1.579  0.000  171.6   68.2  103.4    0.0
 1995 298    74  10.30  24.70  18.10  2.316  2.316  1.754  0.562  0.000  173.9   70.0  104.0    0.0
 1995 299    75   7.90  18.30  10.80  1.537  1.537  1.194  0.343  0.000  175.5   71.2  104.3    0.0
 1995 300    76  11.40  14.40   9.10  2.064  2.064  1.622  0.442  0.000  177.5   72.8  104.7    0.0
 1995 301    77  27.50  18.00   5.80  5.078  5.078  4.005  1.072  0.000  182.6   76.8  105.8    0.0
 1995 302    78  27.50  17.40   5.30  5.007  5.007  3.973  1.034  0.000  187.6   80.8  106.8    0.0
 1995 303    79  27.70  19.70   6.20  5.251  5.251  4.187  1.064  0.000  192.9   85.0  107.9    0.0
 1995 304    80  27.80  23.80  10.10  5.754  5.754  4.625  1.130  0.000  198.6   89.6  109.0    0.0
 1995 305    81  27.90  27.00  12.10  6.097  6.097  4.967  1.131  0.000  204.7   94.5  110.2    0.0
 1995 306    82  27.80  28.20  14.70  6.277  5.896  5.197  0.699  0.000  210.6   99.7  110.9    0.0
 1995 307    83  27.30  30.10  15.70  6.334  6.334  5.336  0.999  0.000  217.0  105.1  111.9    0.0
 1995 308    84  27.90  33.00  18.10  6.787  6.787  5.816  0.971  0.000  223.7  110.9  112.8    0.0
 1995 309    85  28.20  33.20  21.00  7.002  7.002  6.109  0.893  0.000  230.7  117.0  113.7    0.0
 1995 310    86  18.70  31.50  19.50  4.502  4.502  3.994  0.508  0.000  235.2  121.0  114.2    0.0
 1995 311    87   8.40  22.80  18.90  1.822  1.822  1.635  0.187  0.000  237.1  122.6  114.4    0.0
 1995 312    88   8.70  22.80  18.60  1.881  1.881  1.697  0.184  0.000  238.9  124.3  114.6    0.0
 1995 313    89   8.80  24.10  18.00  1.922  1.922  1.740  0.182  0.000  240.9  126.1  114.8    0.0
 1995 314    90  21.60  23.10  14.80  4.542  4.542  4.122  0.419  0.000  245.4  130.2  115.2    0.0
 1995 315    91  27.10  25.00  11.80  5.688  5.688  5.186  0.502  0.000  251.1  135.4  115.7    0.0
 1995 316    92  18.50  22.40  11.70  3.754  3.754  3.434  0.320  0.000  254.9  138.8  116.0    0.0
 1995 317    93  26.90  24.80  11.70  5.624  5.624  5.154  0.470  0.000  260.5  144.0  116.5    0.0
 1995 318    94  23.50  25.80  15.80  5.139  5.139  4.717  0.421  0.000  265.6  148.7  116.9    0.0
 1995 319    95  21.10  25.60  16.20  4.616  4.616  4.246  0.370  0.000  270.2  152.9  117.3    0.0
 1995 320    96  13.80  23.80  13.80  2.897  2.897  2.669  0.228  0.000  273.1  155.6  117.5    0.0
 1995 321    97  20.50  22.90  12.70  4.218  4.218  3.887  0.331  0.000  277.3  159.5  117.9    0.0
 1995 322    98  27.80  22.50  13.00  5.705  5.705  5.257  0.448  0.000  283.0  164.7  118.3    0.0
 1995 323    99  29.10  24.30  11.30  6.022  6.022  5.547  0.476  0.000  289.1  170.3  118.8    0.0
 1995 324   100  29.80  25.00  13.00  6.309  6.309  5.807  0.502  0.000  295.4  176.1  119.3    0.0
 1995 325   101  20.50  28.20  13.90  4.541  4.541  4.178  0.363  0.000  299.9  180.3  119.6    0.0
 1995 326   102  12.90  26.90  19.20  2.932  2.932  2.698  0.234  0.000  302.9  183.0  119.9    0.0
 1995 327   103  18.70  24.30  17.20  4.061  4.061  3.736  0.325  0.000  306.9  186.7  120.2    0.0
 1995 328   104  22.60  25.10  13.80  4.822  4.822  4.435  0.387  0.000  311.7  191.1  120.6    0.0
 1995 329   105  22.30  26.00  12.20  4.749  4.749  4.365  0.384  0.000  316.5  195.5  121.0    0.0
 1995 330   106  27.10  28.60  17.50  6.201  6.201  5.694  0.507  0.000  322.7  201.2  121.5    0.0
 1995 331   107  28.80  20.10  12.30  5.700  5.700  5.234  0.466  0.000  328.4  206.4  121.9    0.0
 1995 332   108  30.10  24.40   7.40  6.039  6.039  5.535  0.503  0.000  334.4  212.0  122.4    0.0
 1995 333   109  31.00  27.00  12.80  6.719  6.719  6.135  0.584  0.000  341.1  218.1  123.0    0.0
 1995 334   110  28.80  32.10  13.30  6.650  6.650  6.048  0.601  0.000  347.8  224.2  123.6    0.0
 1995 335   111  12.70  26.80  18.10  2.864  2.864  2.598  0.267  0.000  350.7  226.8  123.9    0.0
 1995 336   112  22.60  29.80  17.60  5.255  5.255  4.752  0.503  0.000  355.9  231.5  124.4    0.0
 1995 337   113  27.90  29.50  16.20  6.401  6.401  5.773  0.628  0.000  362.3  237.3  125.0    0.0
 1995 338   114  30.30  31.00  16.30  7.076  6.989  6.366  0.623  0.000  369.3  243.6  125.7    0.0
 1995 339   115  27.00  32.70  17.20  6.468  6.468  5.805  0.664  0.000  375.8  249.5  126.3    0.0
 1995 340   116  30.30  33.40  18.30  7.373  7.373  6.602  0.772  0.000  383.1  256.1  127.1    0.0
 1995 341   117  23.00  33.80  14.20  5.459  5.459  4.878  0.582  0.000  388.6  260.9  127.7    0.0
 1995 342   118  30.30  23.70  13.40  6.359  6.359  5.670  0.689  0.000  395.0  266.6  128.4    0.0
 1995 343   119  31.20  25.50   8.40  6.425  6.425  5.718  0.707  0.000  401.4  272.3  129.1    0.0
 1995 344   120  31.20  29.50   9.50  6.810  6.810  6.049  0.761  0.000  408.2  278.4  129.8    0.0
 1995 345   121  25.30  30.90  10.80  5.673  5.673  5.022  0.651  0.000  413.9  283.4  130.5    0.0
 1995 346   122  31.40  26.40   9.20  6.590  6.590  5.813  0.777  0.000  420.5  289.2  131.3    0.0
 1995 347   123  31.10  32.00  11.50  7.107  7.107  6.243  0.863  0.000  427.6  295.4  132.1    0.0
 1995 348   124  30.60  29.70  13.30  6.909  6.909  6.044  0.864  0.000  434.5  301.5  133.0    0.0
 1995 349   125  28.90  32.90  10.10  6.609  6.609  5.755  0.853  0.000  441.1  307.2  133.8    0.0
 1995 350   126  26.30  37.20  18.40  7.359  7.359  6.378  0.982  0.000  448.4  313.6  134.8    0.0
 1995 351   127  31.20  34.70  16.80  7.652  7.652  6.597  1.055  0.000  456.1  320.2  135.9    0.0
 1995 352   128  28.80  38.30  20.80  8.669  8.669  7.432  1.238  0.000  464.8  327.7  137.1    0.0
 1995 353   129  31.40  33.40  18.90  7.720  7.720  6.578  1.142  0.000  472.5  334.2  138.3    0.0
 1995 354   130  31.40  34.90  14.30  7.598  7.598  6.432  1.167  0.000  480.1  340.7  139.4    0.0
 1995 355   131  24.20  36.30  22.10  6.649  6.649  5.588  1.061  0.000  486.7  346.3  140.5    0.0
 1995 356   132  18.80  29.20  20.00  4.464  4.464  3.723  0.741  0.000  491.2  350.0  141.2    0.0
 1995 357   133  10.20  22.70  19.50  2.242  2.242  1.855  0.387  0.000  493.4  351.8  141.6    0.0
 1995 358   134   9.30  23.40  20.00  2.071  2.071  1.698  0.373  0.000  495.5  353.5  142.0    0.0
 1995 359   135  10.90  25.50  18.10  2.454  2.454  1.993  0.461  0.000  498.0  355.5  142.4    0.0
 1995 360   136  31.90  27.60  16.00  7.250  7.250  5.829  1.422  0.000  505.2  361.4  143.9    0.0
 1995 361   137  31.10  27.00  14.60  6.952  6.952  5.530  1.421  0.000  512.2  366.9  145.3    0.0
 1995 362   138  31.40  27.90  14.80  7.113  7.113  5.597  1.516  0.000  519.3  372.5  146.8    0.0
 1995 363   139  30.70  29.00  15.10  7.069  6.762  5.496  1.267  0.000  526.0  378.0  148.1    0.0
 1995 364   140  31.30  28.90  14.90  7.199  7.199  5.523  1.676  0.000  533.2  383.5  149.7    0.0
 1995 365   141  29.60  28.00  15.00  6.753  6.753  5.108  1.646  0.000  540.0  388.6  151.4    0.0
 1996 001   142  31.30  29.40  14.00  7.214  6.744  5.373  1.371  0.000  546.7  394.0  152.8    0.0
 1996 002   143  31.30  33.00  17.60  7.725  6.736  5.659  1.076  0.000  553.5  399.6  153.8    0.0
 1996 003   144  30.40  35.00  20.90  7.856  6.571  5.655  0.916  0.000  560.0  405.3  154.8    0.0
 1996 004   145  15.90  28.20  21.90  3.858  3.858  2.726  1.132  0.000  563.9  408.0  155.9    0.0
 1996 005   146  29.60  28.70  19.20  7.093  6.511  4.914  1.597  0.000  570.4  412.9  157.5    0.0
 1996 006   147  31.50  26.00  14.60  7.079  7.079  4.804  2.275  0.000  577.5  417.7  159.8    0.0
 1996 007   148  31.30  28.50  12.90  7.164  6.317  4.758  1.559  0.000  583.8  422.5  161.3    0.0
 1996 008   149  31.30  29.20  15.10  7.362  5.941  4.782  1.158  0.000  589.8  427.3  162.5    0.0
 1996 009   150  21.90  29.60  15.80  5.213  5.213  3.309  1.905  0.000  595.0  430.6  164.4    0.0
 1996 010   151  30.60  33.20  16.90  7.659  7.659  4.743  2.916  0.000  602.6  435.3  167.3    0.0
 1996 011   152   9.70  25.90  18.30  2.266  2.266  1.369  0.898  0.000  604.9  436.7  168.2    0.0
 1996 012   153  27.00  29.10  20.00  6.640  6.640  3.907  2.733  0.000  611.5  440.6  170.9    0.0
 1996 013   154  22.00  30.10  18.10  5.407  5.407  3.098  2.309  0.000  616.9  443.7  173.2    0.0
 1996 014   155  30.40  26.70  14.50  7.009  5.794  3.911  1.883  0.000  622.7  447.6  175.1    0.0
 1996 015   156  26.00  28.40  12.90  6.053  5.411  3.288  2.123  0.000  628.1  450.9  177.2    0.0
 1996 016   157  18.30  29.60  18.90  4.520  4.520  2.455  2.065  0.000  632.7  453.4  179.3    0.0
 1996 017   158  18.10  24.60  18.70  4.217  3.897  2.291  1.606  0.000  636.6  455.6  180.9    0.0
 1996 018   159  27.30  27.70  16.70  6.492  4.703  3.526  1.177  0.000  641.3  459.2  182.1    0.0
