*PLANT N OUTPUT FILE

*DSSAT Cropping System Model Ver. 4.0.2.000               Aug 11, 2016; 21:02:09

*RUN   1        : UYMZ                    
 MODEL          : MZCER040 - Maize           
 EXPERIMENT     : UYMZ0190 MZ    late to create DSS                             
 TREATMENT  1   : UYMZ                    

@YEAR DOY   DAS   DAP   CNAD   GNAD   VNAD   GN%D   VN%D   NUPC   LNAD   SNAD   LN%D   SN%D   RN%D   SNN0C   SNN1C
 1992 227     3     0    0.0    0.0    0.0   0.00   0.00    0.0    0.0    0.0    0.0   0.00   0.00    0.00    0.00
 1992 228     4     1    0.0    0.0    0.0   0.00   0.00    0.0    0.0    0.0    0.0   0.00   0.00    0.00    0.00
 1992 229     5     2    0.0    0.0    0.0   0.00   0.00    0.0    0.0    0.0    0.0   0.00   0.00    0.00    0.00
 1992 230     6     3    0.0    0.0    0.0   0.00   0.00    0.0    0.0    0.0    0.0   0.00   0.00    0.00    0.00
 1992 231     7     4    0.0    0.0    0.0   0.00   0.00    0.0    0.0    0.0    0.0   0.00   0.00    0.00    0.00
 1992 232     8     5    0.0    0.0    0.0   0.00   0.00    0.0    0.0    0.0    0.0   0.00   0.00    0.00    0.00
 1992 233     9     6    0.0    0.0    0.0   0.00   0.00    0.0    0.0    0.0    0.0   0.00   0.00    0.00    0.00
 1992 234    10     7    0.0    0.0    0.0   0.00   0.00    0.0    0.0    0.0    0.0   0.00   0.00    0.00    0.00
 1992 235    11     8    0.0    0.0    0.0   0.00   0.00    0.0    0.0    0.0    0.0   0.00   0.00    0.00    0.00
 1992 236    12     9    1.2    0.0    1.2   0.00   4.40    0.0    0.6    0.6    4.4   4.40   0.00    0.00    0.00
 1992 237    13    10    1.3    0.0    1.3   0.00   4.55    0.2    0.6    0.6    4.5   4.55   1.09    0.00    0.00
 1992 238    14    11    1.3    0.0    1.3   0.00   4.53    0.2    0.6    0.6    4.5   4.53   1.11    0.00    0.00
 1992 239    15    12    1.3    0.0    1.3   0.00   4.52    0.2    0.6    0.6    4.5   4.52   1.12    0.00    0.00
 1992 240    16    13    1.3    0.0    1.3   0.00   4.49    0.2    0.6    0.6    4.5   4.49   1.13    0.00    0.00
 1992 241    17    14    1.3    0.0    1.3   0.00   4.47    0.2    0.6    0.6    4.5   4.47   1.12    0.00    0.00
 1992 242    18    15    1.2    0.0    1.2   0.00   4.45    0.2    0.6    0.6    4.4   4.45   1.14    0.00    0.00
 1992 243    19    16    1.2    0.0    1.2   0.00   4.45    0.2    0.6    0.6    4.4   4.45   1.11    0.00    0.00
 1992 244    20    17    1.2    0.0    1.2   0.00   4.41    0.2    0.6    0.6    4.4   4.41   1.15    0.00    0.01
 1992 245    21    18    1.2    0.0    1.2   0.00   4.40    0.2    0.6    0.6    4.4   4.40   1.16    0.00    0.01
 1992 246    22    19    1.2    0.0    1.2   0.00   4.40    0.2    0.6    0.6    4.4   4.40   1.12    0.00    0.01
 1992 247    23    20    1.2    0.0    1.2   0.00   4.38    0.3    0.6    0.6    4.4   4.38   1.21    0.00    0.01
 1992 248    24    21    1.2    0.0    1.2   0.00   4.37    0.3    0.6    0.6    4.4   4.37   1.25    0.00    0.01
 1992 249    25    22    1.2    0.0    1.2   0.00   4.35    0.4    0.6    0.6    4.4   4.35   1.24    0.00    0.01
 1992 250    26    23    1.2    0.0    1.2   0.00   4.28    0.5    0.6    0.6    4.3   4.28   1.25    0.00    0.01
 1992 251    27    24    1.2    0.0    1.2   0.00   3.76    0.5    0.7    0.5    3.8   3.76   1.20    0.00    0.02
 1992 252    28    25    1.4    0.0    1.4   0.00   3.68    0.6    0.9    0.5    3.7   3.68   1.08    0.00    0.02
 1992 253    29    26    1.6    0.0    1.6   0.00   3.68    1.0    1.1    0.5    3.7   3.68   1.15    0.00    0.02
 1992 254    30    27    1.9    0.0    1.9   0.00   3.63    1.3    1.4    0.5    3.6   3.63   1.18    0.00    0.02
 1992 255    31    28    2.2    0.0    2.2   0.00   3.60    1.6    1.7    0.5    3.6   3.60   1.13    0.00    0.03
 1992 256    32    29    2.5    0.0    2.5   0.00   3.72    2.2    2.0    0.5    3.7   3.72   1.27    0.00    0.03
 1992 257    33    30    2.9    0.0    2.9   0.00   3.90    2.6    2.3    0.5    3.9   3.90   1.21    0.00    0.03
 1992 258    34    31    3.1    0.0    3.1   0.00   3.83    3.1    2.5    0.5    3.8   3.83   1.27    0.00    0.04
 1992 259    35    32    3.3    0.0    3.3   0.00   3.71    3.6    2.8    0.5    3.7   3.71   1.27    0.00    0.04
 1992 260    36    33    3.7    0.0    3.7   0.00   3.60    4.0    3.2    0.5    3.6   3.60   1.17    0.00    0.05
 1992 261    37    34    4.2    0.0    4.2   0.00   3.42    4.7    3.7    0.5    3.4   3.42   1.18    0.00    0.06
 1992 262    38    35    5.1    0.0    5.1   0.00   3.81    6.1    4.5    0.5    3.8   3.81   1.31    0.00    0.07
 1992 263    39    36    5.4    0.0    5.4   0.00   3.80    6.9    4.9    0.5    3.8   3.80   1.28    0.00    0.08
 1992 264    40    37    5.8    0.0    5.8   0.00   3.60    7.6    5.2    0.5    3.6   3.60   1.23    0.00    0.09
 1992 265    41    38    6.4    0.0    6.4   0.00   3.40    8.6    5.9    0.5    3.4   3.40   1.20    0.00    0.11
 1992 266    42    39    7.6    0.0    7.6   0.00   3.89    9.6    7.0    0.5    3.9   3.89   1.13    0.00    0.12
 1992 267    43    40    7.8    0.0    7.8   0.00   3.77   10.4    7.3    0.5    3.8   3.77   1.20    0.00    0.14
 1992 268    44    41    8.3    0.0    8.3   0.00   3.83   10.7    7.7    0.5    3.8   3.83   1.11    0.00    0.16
 1992 269    45    42    8.6    0.0    8.6   0.00   3.95   12.1    8.1    0.6    4.0   3.95   1.36    0.00    0.18
 1992 270    46    43    8.7    0.0    8.7   0.00   3.92   12.4    8.1    0.5    3.9   3.92   1.31    0.00    0.20
 1992 271    47    44    8.8    0.0    8.8   0.00   3.75   12.4    8.3    0.5    3.7   3.75   1.18    0.00    0.23
 1992 272    48    45    9.3    0.0    9.3   0.00   3.67   13.4    8.8    0.5    3.7   3.67   1.17    0.00    0.25
 1992 273    49    46   10.0    0.0   10.0   0.00   3.60   14.6    9.5    0.5    3.6   3.60   1.17    0.00    0.28
 1992 274    50    47   10.8    0.0   10.8   0.00   3.46   15.9   10.4    0.5    3.5   3.46   1.15    0.00    0.31
 1992 275    51    48   12.2    0.0   12.2   0.00   3.68   17.4   11.7    0.5    3.7   3.68   1.12    0.00    0.34
 1992 276    52    49   12.9    0.0   12.9   0.00   3.49   18.2   12.4    0.5    3.5   3.49   1.10    0.00    0.37
 1992 277    53    50   14.1    0.0   14.1   0.00   3.48   20.3   13.6    0.5    3.5   3.48   1.15    0.00    0.40
 1992 278    54    51   17.3    0.0   17.3   0.00   3.78   23.9   16.8    0.5    3.8   3.78   1.14    0.00    0.44
 1992 279    55    52   18.0    0.0   18.0   0.00   3.68   24.4   17.5    0.5    3.7   3.68   1.09    0.00    0.48
 1992 280    56    53   18.6    0.0   18.6   0.00   3.64   27.0   18.1    0.5    3.6   3.64   1.25    0.00    0.52
 1992 281    57    54   19.1    0.0   19.1   0.00   3.63   28.1   18.6    0.5    3.6   3.63   1.23    0.00    0.56
 1992 282    58    55   19.7    0.0   19.7   0.00   3.58   29.6   19.2    0.5    3.6   3.58   1.21    0.00    0.62
 1992 283    59    56   20.8    0.0   20.8   0.00   3.54   31.5   20.3    0.5    3.5   3.54   1.17    0.00    0.67
 1992 284    60    57   22.3    0.0   22.3   0.00   3.51   34.1   21.7    0.5    3.5   3.51   1.17    0.00    0.73
 1992 285    61    58   24.2    0.0   24.2   0.00   3.48   36.1   23.6    0.6    3.5   3.48   1.12    0.00    0.80
 1992 286    62    59   26.2    0.0   26.2   0.00   3.45   39.4   25.6    0.7    3.5   3.45   1.15    0.00    0.86
 1992 287    63    60   28.5    0.0   28.5   0.00   3.42   43.1   27.7    0.8    3.4   3.42   1.16    0.00    0.93
 1992 288    64    61   31.7    0.0   31.7   0.00   3.39   47.2   30.7    1.0    3.4   3.39   1.14    0.00    1.01
 1992 289    65    62   34.3    0.0   34.3   0.00   3.34   48.7   33.0    1.3    3.3   3.34   1.07    0.00    1.09
 1992 290    66    63   37.0    0.0   37.0   0.00   3.31   51.7   35.4    1.6    3.3   3.31   1.08    0.00    1.17
 1992 291    67    64   39.3    0.0   39.3   0.00   3.28   56.5   37.4    1.9    3.3   3.28   1.15    0.00    1.25
 1992 292    68    65   41.1    0.0   41.1   0.00   3.26   60.3   38.9    2.2    3.3   3.26   1.17    0.00    1.34
 1992 293    69    66   43.2    0.0   43.2   0.00   3.24   61.3   40.6    2.6    3.2   3.24   1.08    0.00    1.44
 1992 294    70    67   45.1    0.0   45.1   0.00   3.22   66.0   42.2    2.9    3.2   3.22   1.15    0.00    1.54
 1992 295    71    68   46.8    0.0   46.8   0.00   3.20   69.7   43.5    3.3    3.2   3.20   1.16    0.00    1.65
 1992 296    72    69   49.2    0.0   49.2   0.00   3.18   73.5   45.4    3.8    3.2   3.18   1.14    0.00    1.77
 1992 297    73    70   52.8    0.0   52.8   0.00   3.15   78.3   48.1    4.7    3.1   3.15   1.13    0.00    1.90
 1992 298    74    71   57.6    0.0   57.6   0.00   3.11   84.0   51.5    6.1    3.1   3.11   1.12    0.00    2.03
 1992 299    75    72   61.3    0.0   61.3   0.00   3.07   86.5   54.0    7.3    3.1   3.07   1.07    0.00    2.17
 1992 300    76    73   66.4    0.0   66.4   0.00   3.03   94.3   57.3    9.1    3.0   3.03   1.12    0.00    2.30
 1992 301    77    74   71.9    0.0   71.9   0.00   2.99  101.1   60.6   11.3    3.0   2.99   1.12    0.00    2.44
 1992 302    78    75   73.6    0.0   73.6   0.00   3.00  102.5   61.7   11.8    3.0   3.00   1.10    0.00    2.59
 1992 303    79    76   75.1    0.0   75.1   0.00   2.96  107.5   62.5   12.6    3.0   2.96   1.14    0.00    2.74
 1992 304    80    77   77.4    0.0   77.4   0.00   2.94  111.5   63.8   13.7    2.9   2.94   1.13    0.00    2.91
 1992 305    81    78   80.0    0.0   80.0   0.00   2.91  115.6   65.1   14.9    2.9   2.91   1.12    0.00    3.08
 1992 306    82    79   82.4    0.0   82.4   0.00   2.83  118.9   66.0   16.5    2.8   2.83   1.10    0.00    3.26
 1992 307    83    80   84.7    0.0   84.7   0.00   2.69  121.6   66.1   18.5    2.7   2.69   1.07    0.00    3.45
 1992 308    84    81   86.3    0.0   86.3   0.00   2.64  123.8   66.6   19.7    2.6   2.64   1.05    0.00    3.64
 1992 309    85    82   87.4    0.0   87.4   0.00   2.64  125.5   67.2   20.2    2.6   2.64   1.04    0.00    3.83
 1992 310    86    83   88.5    0.0   88.5   0.00   2.63  127.3   67.7   20.8    2.6   2.63   1.02    0.00    4.03
 1992 311    87    84   89.4    0.0   89.4   0.00   2.59  128.7   67.8   21.6    2.6   2.59   0.99    0.00    4.23
 1992 312    88    85   90.1    0.0   90.1   0.00   2.52  130.0   67.6   22.6    2.5   2.52   0.97    0.00    4.43
 1992 313    89    86   90.7    0.0   90.7   0.00   2.42  130.9   66.9   23.8    2.4   2.42   0.94    0.00    4.63
 1992 314    90    87   91.3    0.0   91.3   0.00   2.29  131.7   65.8   25.4    2.3   2.29   0.92    0.00    4.83
 1992 315    91    88   91.8    0.0   91.8   0.00   2.22  132.4   66.2   25.6    2.2   2.22   0.93    0.00    5.04
 1992 316    92    89   92.3    0.0   92.3   0.00   2.04  133.0   64.7   27.6    2.0   2.04   0.93    0.00    5.25
 1992 317    93    90   92.9    0.0   92.9   0.00   1.90  133.7   63.1   29.8    1.9   1.90   0.92    0.00    5.45
 1992 318    94    91   93.4    0.0   93.4   0.00   1.80  134.4   61.9   31.5    1.8   1.80   0.90    0.00    5.66
 1992 319    95    92   94.0    0.0   94.0   0.00   1.71  135.1   60.6   33.4    1.7   1.71   0.90    0.00    5.87
 1992 320    96    93   94.6    0.0   94.6   0.00   1.64  135.8   59.6   35.0    1.6   1.64   0.90    0.00    6.08
 1992 321    97    94   95.0    0.0   95.0   0.00   1.61  136.3   59.1   35.9    1.6   1.61   0.87    0.00    6.29
 1992 322    98    95   96.1    0.0   96.1   0.00   1.59  137.7   59.2   37.0    1.6   1.59   0.84    0.00    6.50
 1992 323    99    96   97.0    0.0   97.0   0.00   1.57  138.8   59.0   38.0    1.6   1.57   0.82    0.00    6.71
 1992 324   100    97   97.9    0.0   97.9   0.00   1.54  140.0   58.6   39.4    1.5   1.54   0.80    0.00    6.92
 1992 325   101    98   98.8    0.0   98.8   0.00   1.49  141.0   57.9   40.9    1.5   1.49   0.80    0.00    7.13
 1992 326   102    99   99.6    0.0   99.6   0.00   1.48  142.0   57.7   41.8    1.5   1.48   0.81    0.00    7.35
 1992 327   103   100  100.3    0.0  100.3   0.00   1.46  142.9   57.6   42.7    1.5   1.46   0.79    0.00    7.56
 1992 328   104   101  101.0    0.0  101.0   0.00   1.45  143.8   57.6   43.4    1.5   1.45   0.77    0.00    7.78
 1992 329   105   102  101.5    0.0  101.5   0.00   1.43  144.5   57.1   44.4    1.4   1.43   0.76    0.00    7.99
 1992 330   106   103  102.2    0.0  102.2   0.00   1.40  145.4   56.7   45.5    1.4   1.40   0.76    0.00    8.21
 1992 331   107   104  102.8    0.0  102.8   0.00   1.37  146.1   56.2   46.5    1.4   1.37   0.75    0.00    8.43
 1992 332   108   105  103.3    0.0  103.3   0.00   1.34  146.9   55.8   47.5    1.3   1.34   0.74    0.00    8.65
 1992 333   109   106  103.9    0.0  103.9   0.00   1.32  147.7   55.4   48.5    1.3   1.32   0.74    0.00    8.87
 1992 334   110   107  104.5    0.0  104.5   0.00   1.29  148.4   54.9   49.6    1.3   1.29   0.74    0.00    9.09
 1992 335   111   108  105.1    0.0  105.1   0.00   1.40  149.2   59.2   45.9    1.4   1.40   0.73    0.00    9.31
 1992 336   112   109  105.6    0.0  105.6   0.00   1.41  149.8   58.8   46.8    1.4   1.41   0.72    0.00    9.53
 1992 337   113   110  106.2    0.0  106.2   0.00   1.42  150.7   58.5   47.6    1.4   1.42   0.70    0.00    9.75
 1992 338   114   111  106.7    0.0  106.7   0.00   1.42  151.4   58.1   48.6    1.4   1.42   0.69    0.00    9.98
 1992 339   115   112  107.2    0.0  107.2   0.00   1.43  152.2   57.5   49.6    1.4   1.43   0.68    0.00   10.20
 1992 340   116   113  107.7    0.0  107.7   0.00   1.43  153.1   57.0   50.7    1.4   1.43   0.69    0.00   10.43
 1992 341   117   114  108.3    0.0  108.3   0.00   1.44  153.9   56.3   52.0    1.4   1.44   0.68    0.00   10.66
 1992 342   118   115  108.7    0.0  108.7   0.00   1.44  154.7   55.6   53.1    1.4   1.44   0.68    0.00   10.89
 1992 343   119   116  109.4    0.0  109.4   0.00   1.45  155.8   55.0   54.3    1.4   1.45   0.68    0.00   11.12
 1992 344   120   117  109.9    0.0  109.9   0.00   1.45  156.7   54.3   55.6    1.5   1.45   0.68    0.00   11.35
 1992 345   121   118  110.4    0.0  110.4   0.00   1.46  157.6   53.5   56.9    1.5   1.46   0.68    0.00   11.58
 1992 346   122   119  110.9    0.0  110.9   0.00   1.47  158.5   52.7   58.2    1.5   1.47   0.68    0.00   11.82
 1992 347   123   120  111.3    0.0  111.3   0.00   1.47  159.3   51.9   59.5    1.5   1.47   0.68    0.00   12.06
 1992 348   124   121  111.8    3.9  107.9   1.38   1.43  160.2   50.3   57.6    1.4   1.43   0.68    0.00   12.30
 1992 349   125   122  112.2    7.4  104.9   1.37   1.39  161.0   48.9   56.0    1.4   1.39   0.68    0.00   12.54
 1992 350   126   123  112.7    9.9  102.8   1.35   1.36  161.8   47.9   54.9    1.4   1.36   0.68    0.00   12.78
 1992 351   127   124  113.0   13.1  100.0   1.34   1.32  162.4   46.6   53.4    1.3   1.32   0.69    0.00   13.03
 1992 352   128   125  113.6   16.6   97.0   1.33   1.28  163.3   45.2   51.8    1.3   1.28   0.69    0.00   13.27
 1992 353   129   126  114.0   20.0   94.0   1.32   1.25  164.1   43.8   50.2    1.2   1.25   0.69    0.00   13.52
 1992 354   130   127  114.5   23.4   91.1   1.31   1.21  164.9   42.5   48.7    1.2   1.21   0.70    0.00   13.77
 1992 355   131   128  114.9   26.7   88.2   1.31   1.17  165.7   41.1   47.1    1.2   1.17   0.70    0.00   14.02
 1992 356   132   129  115.4   30.0   85.4   1.30   1.13  166.5   39.8   45.6    1.1   1.13   0.71    0.00   14.28
 1992 357   133   130  115.8   33.2   82.5   1.29   1.11  167.1   38.9   43.6    1.1   1.11   0.71    0.00   14.53
 1992 358   134   131  116.2   36.4   79.8   1.28   1.08  167.8   38.1   41.7    1.1   1.08   0.72    0.00   14.79
 1992 359   135   132  116.8   39.5   77.3   1.27   1.04  168.9   36.6   40.8    1.0   1.04   0.73    0.00   15.04
 1992 360   136   133  117.2   42.3   74.9   1.26   1.00  169.5   35.2   39.8    1.0   1.00   0.73    0.00   15.30
 1992 361   137   134  117.8   44.7   73.1   1.25   0.97  170.5   34.0   39.0    1.0   0.97   0.73    0.00   15.56
 1992 362   138   135  118.2   47.1   71.1   1.24   0.94  171.2   33.1   38.0    0.9   0.94   0.73    0.00   15.82
 1992 363   139   136  118.7   50.0   68.8   1.23   0.91  172.0   32.0   36.7    0.9   0.91   0.74    0.00   16.09
 1992 364   140   137  119.2   52.8   66.5   1.22   0.90  172.8   31.6   34.9    0.9   0.90   0.75    0.00   16.35
 1992 365   141   138  119.7   55.2   64.5   1.20   0.88  173.5   31.1   33.3    0.9   0.88   0.75    0.00   16.62
 1992 366   142   139  120.1   57.3   62.8   1.20   0.87  174.2   30.7   32.1    0.9   0.87   0.76    0.00   16.88
 1993 001   143   140  120.2   59.6   60.7   1.19   0.86  174.5   30.1   30.6    0.9   0.86   0.77    0.00   17.15
 1993 002   144   141  120.5   61.8   58.6   1.18   0.84  174.8   29.5   29.1    0.8   0.84   0.77    0.00   17.42
 1993 003   145   142  120.7   64.1   56.6   1.17   0.82  175.2   29.0   27.6    0.8   0.82   0.78    0.00   17.69
 1993 004   146   143  120.9   66.7   54.2   1.16   0.80  175.5   28.1   26.1    0.8   0.80   0.78    0.00   17.96
 1993 005   147   144  121.2   69.3   51.9   1.15   0.77  176.1   26.9   25.0    0.8   0.77   0.79    0.00   18.23
 1993 006   148   145  121.8   71.8   50.0   1.14   0.73  177.0   25.8   24.2    0.7   0.73   0.79    0.00   18.50
 1993 007   149   146  122.2   74.2   48.0   1.13   0.72  177.7   25.3   22.7    0.7   0.72   0.80    0.00   18.77
 1993 008   150   147  122.6   76.5   46.1   1.12   0.70  178.3   24.5   21.6    0.7   0.70   0.81    0.00   19.05
 1993 009   151   148  123.0   78.6   44.3   1.11   0.67  178.8   23.5   20.8    0.7   0.67   0.81    0.00   19.32
 1993 010   152   149  123.6   80.8   42.8   1.10   0.64  179.7   22.7   20.1    0.6   0.64   0.82    0.00   19.60
 1993 011   153   150  124.2   82.9   41.3   1.09   0.62  180.6   21.9   19.4    0.6   0.62   0.83    0.00   19.88
 1993 012   154   151  124.9   84.9   40.0   1.08   0.61  181.7   21.3   18.7    0.6   0.61   0.84    0.00   20.15
 1993 013   155   152  125.6   86.9   38.7   1.07   0.60  182.7   20.9   17.7    0.6   0.60   0.85    0.00   20.43
 1993 014   156   153  126.3   88.8   37.5   1.06   0.59  183.7   20.7   16.8    0.6   0.59   0.86    0.00   20.72
 1993 015   157   154  127.0   90.7   36.3   1.05   0.58  184.6   20.3   16.0    0.6   0.58   0.86    0.00   21.00
 1993 016   158   155  127.4   91.4   36.0   1.04   0.58  185.1   20.2   15.7    0.6   0.58   0.87    0.00   21.28
 1993 017   159   156  128.0   92.5   35.4   1.03   0.57  186.0   19.9   15.5    0.6   0.57   0.88    0.00   21.57
 1993 018   160   157  128.7   93.6   35.1   1.03   0.56  187.0   19.7   15.3    0.6   0.56   0.89    0.00   21.85
 1993 019   161   158  128.7   93.6   35.1   1.03   0.56  188.0   19.7   15.3    0.6   0.56   0.89    0.00   21.85
 1993 020   162   159  128.7   93.6   35.1   1.03   0.56  188.9   19.7   15.3    0.6   0.56   0.89    0.00   21.85
 1993 021   163   160  128.7   93.6   35.1   1.03   0.56  189.9   19.7   15.3    0.6   0.56   0.89    0.00   21.85

*DSSAT Cropping System Model Ver. 4.0.2.000               Aug 11, 2016; 21:02:09

*RUN   2        : UYMZ                    
 MODEL          : MZCER040 - Maize           
 EXPERIMENT     : UYMZ0190 MZ    late to create DSS                             
 TREATMENT  1   : UYMZ                    

@YEAR DOY   DAS   DAP   CNAD   GNAD   VNAD   GN%D   VN%D   NUPC   LNAD   SNAD   LN%D   SN%D   RN%D   SNN0C   SNN1C
 1993 227     3     0    0.0    0.0    0.0   0.00   0.00    0.0    0.0    0.0    0.0   0.00   0.00    0.00    0.00
 1993 228     4     1    0.0    0.0    0.0   0.00   0.00    0.0    0.0    0.0    0.0   0.00   0.00    0.00    0.00
 1993 229     5     2    0.0    0.0    0.0   0.00   0.00    0.0    0.0    0.0    0.0   0.00   0.00    0.00    0.00
 1993 230     6     3    0.0    0.0    0.0   0.00   0.00    0.0    0.0    0.0    0.0   0.00   0.00    0.00    0.00
 1993 231     7     4    0.0    0.0    0.0   0.00   0.00    0.0    0.0    0.0    0.0   0.00   0.00    0.00    0.00
 1993 232     8     5    0.0    0.0    0.0   0.00   0.00    0.0    0.0    0.0    0.0   0.00   0.00    0.00    0.00
 1993 233     9     6    0.0    0.0    0.0   0.00   0.00    0.0    0.0    0.0    0.0   0.00   0.00    0.00    0.00
 1993 234    10     7    0.0    0.0    0.0   0.00   0.00    0.0    0.0    0.0    0.0   0.00   0.00    0.00    0.00
 1993 235    11     8    0.0    0.0    0.0   0.00   0.00    0.0    0.0    0.0    0.0   0.00   0.00    0.00    0.00
 1993 236    12     9    0.0    0.0    0.0   0.00   0.00    0.0    0.0    0.0    0.0   0.00   0.00    0.00    0.00
 1993 237    13    10    0.0    0.0    0.0   0.00   0.00    0.0    0.0    0.0    0.0   0.00   0.00    0.00    0.00
 1993 238    14    11    0.0    0.0    0.0   0.00   0.00    0.0    0.0    0.0    0.0   0.00   0.00    0.00    0.00
 1993 239    15    12    1.2    0.0    1.2   0.00   4.40    0.0    0.6    0.6    4.4   4.40   0.00    0.00    0.00
 1993 240    16    13    1.3    0.0    1.3   0.00   4.51    0.2    0.6    0.6    4.5   4.51   1.10    0.00    0.00
 1993 241    17    14    1.3    0.0    1.3   0.00   4.51    0.2    0.6    0.6    4.5   4.51   1.07    0.00    0.00
 1993 242    18    15    1.3    0.0    1.3   0.00   4.51    0.2    0.6    0.6    4.5   4.51   1.05    0.00    0.00
 1993 243    19    16    1.2    0.0    1.2   0.00   4.46    0.2    0.6    0.6    4.5   4.46   1.13    0.00    0.00
 1993 244    20    17    1.2    0.0    1.2   0.00   4.45    0.2    0.6    0.6    4.5   4.45   1.13    0.00    0.00
 1993 245    21    18    1.2    0.0    1.2   0.00   4.45    0.2    0.6    0.6    4.4   4.45   1.24    0.00    0.00
 1993 246    22    19    1.2    0.0    1.2   0.00   4.44    0.2    0.6    0.6    4.4   4.44   1.25    0.00    0.00
 1993 247    23    20    1.2    0.0    1.2   0.00   4.41    0.3    0.6    0.6    4.4   4.41   1.20    0.00    0.00
 1993 248    24    21    1.2    0.0    1.2   0.00   4.40    0.3    0.6    0.6    4.4   4.40   1.21    0.00    0.01
 1993 249    25    22    1.2    0.0    1.2   0.00   4.37    0.3    0.6    0.6    4.4   4.37   1.22    0.00    0.01
 1993 250    26    23    1.2    0.0    1.2   0.00   4.36    0.4    0.6    0.6    4.4   4.36   1.31    0.00    0.01
 1993 251    27    24    1.2    0.0    1.2   0.00   4.35    0.5    0.6    0.6    4.4   4.35   1.32    0.00    0.01
 1993 252    28    25    1.2    0.0    1.2   0.00   4.09    0.5    0.6    0.6    4.1   4.09   1.24    0.00    0.01
 1993 253    29    26    1.3    0.0    1.3   0.00   3.87    0.7    0.7    0.5    3.9   3.87   1.21    0.00    0.02
 1993 254    30    27    1.4    0.0    1.4   0.00   4.13    0.9    0.9    0.6    4.1   4.13   1.26    0.00    0.02
 1993 255    31    28    1.5    0.0    1.5   0.00   3.98    1.0    0.9    0.6    4.0   3.98   1.23    0.00    0.02
 1993 256    32    29    1.6    0.0    1.6   0.00   4.03    1.1    1.1    0.6    4.0   4.03   1.12    0.00    0.03
 1993 257    33    30    1.7    0.0    1.7   0.00   3.86    1.3    1.2    0.5    3.9   3.86   1.16    0.00    0.03
 1993 258    34    31    1.9    0.0    1.9   0.00   3.71    1.6    1.4    0.5    3.7   3.71   1.17    0.00    0.03
 1993 259    35    32    2.2    0.0    2.2   0.00   3.61    2.0    1.7    0.5    3.6   3.61   1.22    0.00    0.04
 1993 260    36    33    2.5    0.0    2.5   0.00   3.63    2.6    2.0    0.5    3.6   3.63   1.23    0.00    0.04
 1993 261    37    34    2.9    0.0    2.9   0.00   3.60    3.0    2.4    0.5    3.6   3.60   1.14    0.00    0.05
 1993 262    38    35    3.4    0.0    3.4   0.00   3.64    3.7    2.9    0.5    3.6   3.64   1.19    0.00    0.06
 1993 263    39    36    3.8    0.0    3.8   0.00   3.80    4.4    3.3    0.5    3.8   3.80   1.21    0.00    0.07
 1993 264    40    37    4.2    0.0    4.2   0.00   4.12    4.8    3.6    0.6    4.1   4.12   1.21    0.00    0.07
 1993 265    41    38    4.2    0.0    4.2   0.00   4.07    4.8    3.6    0.6    4.1   4.07   1.19    0.00    0.07
 1993 266    42    39    4.2    0.0    4.2   0.00   3.84    4.8    3.7    0.5    3.8   3.84   1.17    0.00    0.07
 1993 267    43    40    4.5    0.0    4.5   0.00   3.78    5.1    4.0    0.5    3.8   3.78   1.11    0.00    0.08
 1993 268    44    41    4.9    0.0    4.9   0.00   3.72    5.5    4.3    0.5    3.7   3.72   1.11    0.00    0.09
 1993 269    45    42    5.4    0.0    5.4   0.00   3.85    6.2    4.8    0.5    3.8   3.85   1.15    0.00    0.10
 1993 270    46    43    5.7    0.0    5.7   0.00   3.65    7.0    5.1    0.5    3.7   3.65   1.22    0.00    0.11
 1993 271    47    44    6.3    0.0    6.3   0.00   3.65    8.1    5.8    0.5    3.7   3.65   1.24    0.00    0.13
 1993 272    48    45    6.9    0.0    6.9   0.00   3.74    9.0    6.4    0.5    3.7   3.74   1.18    0.00    0.14
 1993 273    49    46    7.4    0.0    7.4   0.00   3.59    9.3    6.9    0.5    3.6   3.59   1.10    0.00    0.16
 1993 274    50    47    8.2    0.0    8.2   0.00   3.50   10.3    7.7    0.5    3.5   3.50   1.11    0.00    0.17
 1993 275    51    48    9.3    0.0    9.3   0.00   3.58   11.4    8.8    0.5    3.6   3.58   1.09    0.00    0.19
 1993 276    52    49   10.3    0.0   10.3   0.00   3.59   12.8    9.8    0.5    3.6   3.59   1.15    0.00    0.21
 1993 277    53    50   11.2    0.0   11.2   0.00   3.61   13.8   10.7    0.5    3.6   3.61   1.11    0.00    0.22
 1993 278    54    51   12.2    0.0   12.2   0.00   3.67   16.2   11.7    0.5    3.7   3.67   1.29    0.00    0.24
 1993 279    55    52   12.9    0.0   12.9   0.00   3.66   17.8   12.4    0.5    3.7   3.66   1.25    0.00    0.27
 1993 280    56    53   13.7    0.0   13.7   0.00   3.78   19.7   13.1    0.5    3.8   3.78   1.24    0.00    0.30
 1993 281    57    54   14.1    0.0   14.1   0.00   3.38   20.3   13.6    0.5    3.4   3.38   1.16    0.00    0.34
 1993 282    58    55   15.9    0.0   15.9   0.00   3.29   22.6   15.5    0.5    3.3   3.29   1.15    0.00    0.37
 1993 283    59    56   21.9    0.0   21.9   0.00   3.78   29.8   21.4    0.5    3.8   3.78   1.18    0.00    0.41
 1993 284    60    57   25.0    0.0   25.0   0.00   3.68   33.9   24.5    0.5    3.7   3.68   1.18    0.00    0.46
 1993 285    61    58   26.9    0.0   26.9   0.00   3.57   35.0   26.4    0.5    3.6   3.57   1.08    0.00    0.51
 1993 286    62    59   29.3    0.0   29.3   0.00   3.54   37.5   28.7    0.6    3.5   3.54   1.08    0.00    0.56
 1993 287    63    60   32.2    0.0   32.2   0.00   3.51   40.6   31.5    0.7    3.5   3.51   1.09    0.00    0.60
 1993 288    64    61   35.1    0.0   35.1   0.00   3.47   45.2   34.3    0.8    3.5   3.47   1.16    0.00    0.65
 1993 289    65    62   39.2    0.0   39.2   0.00   3.43   50.9   38.1    1.1    3.4   3.43   1.19    0.00    0.71
 1993 290    66    63   42.3    0.0   42.3   0.00   3.39   53.0   40.9    1.4    3.4   3.39   1.08    0.00    0.77
 1993 291    67    64   44.2    0.0   44.2   0.00   3.37   57.2   42.6    1.6    3.4   3.37   1.17    0.00    0.83
 1993 292    68    65   46.9    0.0   46.9   0.00   3.34   60.8   44.9    1.9    3.3   3.34   1.15    0.00    0.90
 1993 293    69    66   50.4    0.0   50.4   0.00   3.31   64.8   47.9    2.5    3.3   3.31   1.13    0.00    0.97
 1993 294    70    67   54.6    0.0   54.6   0.00   3.27   69.8   51.3    3.3    3.3   3.27   1.13    0.00    1.05
 1993 295    71    68   56.9    0.0   56.9   0.00   3.25   71.7   53.1    3.8    3.2   3.25   1.08    0.00    1.13
 1993 296    72    69   58.7    0.0   58.7   0.00   3.24   73.9   54.5    4.2    3.2   3.24   1.09    0.00    1.21
 1993 297    73    70   60.4    0.0   60.4   0.00   3.22   76.0   55.8    4.6    3.2   3.22   1.09    0.00    1.30
 1993 298    74    71   62.3    0.0   62.3   0.00   3.20   79.0   57.2    5.1    3.2   3.20   1.12    0.00    1.38
 1993 299    75    72   64.0    0.0   64.0   0.00   3.18   84.4   58.4    5.6    3.2   3.18   1.20    0.00    1.47
 1993 300    76    73   66.5    0.0   66.5   0.00   3.16   88.4   60.2    6.3    3.2   3.16   1.16    0.00    1.58
 1993 301    77    74   70.6    0.0   70.6   0.00   3.13   94.3   63.0    7.6    3.1   3.13   1.16    0.00    1.69
 1993 302    78    75   76.0    0.0   76.0   0.00   3.09   98.5   66.5    9.5    3.1   3.09   1.08    0.00    1.81
 1993 303    79    76   79.4    0.0   79.4   0.00   3.06  101.4   68.5   10.9    3.1   3.06   1.07    0.00    1.93
 1993 304    80    77   82.8    0.0   82.8   0.00   3.03  104.9   70.5   12.3    3.0   3.03   1.07    0.00    2.05
 1993 305    81    78   84.5    0.0   84.5   0.00   2.99  109.3   71.3   13.2    3.0   2.99   1.10    0.00    2.16
 1993 306    82    79   87.2    0.0   87.2   0.00   2.94  114.2   72.6   14.6    2.9   2.94   1.11    0.00    2.29
 1993 307    83    80   90.1    0.0   90.1   0.00   2.83  118.1   73.4   16.7    2.8   2.83   1.08    0.00    2.43
 1993 308    84    81   92.6    0.0   92.6   0.00   2.70  121.2   73.6   19.0    2.7   2.70   1.05    0.00    2.58
 1993 309    85    82   95.1    0.0   95.1   0.00   2.65  123.8   74.5   20.6    2.7   2.65   1.06    0.00    2.72
 1993 310    86    83   97.0    0.0   97.0   0.00   2.63  126.0   75.2   21.7    2.6   2.63   1.05    0.00    2.87
 1993 311    87    84   98.3    0.0   98.3   0.00   2.56  127.8   75.3   23.0    2.6   2.56   1.00    0.00    3.02
 1993 312    88    85   99.5    0.0   99.5   0.00   2.46  129.4   74.7   24.7    2.5   2.46   0.96    0.00    3.17
 1993 313    89    86  100.5    0.0  100.5   0.00   2.33  130.7   73.7   26.9    2.3   2.33   0.93    0.00    3.33
 1993 314    90    87  101.5    0.0  101.5   0.00   2.17  131.9   72.1   29.4    2.2   2.17   0.93    0.00    3.48
 1993 315    91    88  102.4    0.0  102.4   0.00   2.11  133.0   71.7   30.8    2.1   2.11   0.94    0.00    3.64
 1993 316    92    89  103.2    0.0  103.2   0.00   1.99  133.8   72.4   30.9    2.0   1.99   0.94    0.00    3.80
 1993 317    93    90  104.0    0.0  104.0   0.00   1.95  134.7   72.4   31.6    2.0   1.95   0.95    0.00    3.95
 1993 318    94    91  104.6    0.0  104.6   0.00   1.91  135.3   72.1   32.4    1.9   1.91   0.95    0.00    4.11
 1993 319    95    92  105.0    0.0  105.0   0.00   1.87  135.9   71.7   33.3    1.9   1.87   0.95    0.00    4.27
 1993 320    96    93  105.3    0.0  105.3   0.00   1.82  136.2   70.9   34.4    1.8   1.82   0.96    0.00    4.43
 1993 321    97    94  105.7    0.0  105.7   0.00   1.79  136.6   70.6   35.1    1.8   1.79   0.95    0.00    4.59
 1993 322    98    95  106.3    0.0  106.3   0.00   1.76  137.3   70.1   36.2    1.8   1.76   0.93    0.00    4.75
 1993 323    99    96  107.1    0.0  107.1   0.00   1.71  138.3   69.5   37.6    1.7   1.71   0.89    0.00    4.90
 1993 324   100    97  108.2    0.0  108.2   0.00   1.67  139.6   69.0   39.2    1.7   1.67   0.86    0.00    5.06
 1993 325   101    98  109.1    0.0  109.1   0.00   1.62  140.6   68.1   41.0    1.6   1.62   0.83    0.00    5.22
 1993 326   102    99  109.9    0.0  109.9   0.00   1.57  141.6   67.3   42.6    1.6   1.57   0.81    0.00    5.39
 1993 327   103   100  110.7    0.0  110.7   0.00   1.53  142.5   66.6   44.1    1.5   1.53   0.80    0.00    5.55
 1993 328   104   101  111.5    0.0  111.5   0.00   1.49  143.5   65.7   45.8    1.5   1.49   0.81    0.00    5.71
 1993 329   105   102  112.4    0.0  112.4   0.00   1.47  144.5   65.5   46.9    1.5   1.47   0.81    0.00    5.87
 1993 330   106   103  113.1    0.0  113.1   0.00   1.45  145.4   65.1   48.0    1.4   1.45   0.81    0.00    6.04
 1993 331   107   104  113.7    0.0  113.7   0.00   1.43  146.1   64.7   49.0    1.4   1.43   0.80    0.00    6.20
 1993 332   108   105  114.4    0.0  114.4   0.00   1.41  146.8   64.4   50.0    1.4   1.41   0.79    0.00    6.37
 1993 333   109   106  114.9    0.0  114.9   0.00   1.39  147.6   64.0   51.0    1.4   1.39   0.76    0.00    6.53
 1993 334   110   107  115.8    0.0  115.8   0.00   1.38  148.5   63.9   51.9    1.4   1.38   0.77    0.00    6.70
 1993 335   111   108  116.3    0.0  116.3   0.00   1.36  149.2   63.7   52.6    1.4   1.36   0.74    0.00    6.86
 1993 336   112   109  116.8    0.0  116.8   0.00   1.34  149.9   63.3   53.5    1.3   1.34   0.71    0.00    7.03
 1993 337   113   110  117.5    0.0  117.5   0.00   1.46  150.8   68.1   49.5    1.5   1.46   0.72    0.00    7.20
 1993 338   114   111  118.0    0.0  118.0   0.00   1.46  151.4   67.7   50.3    1.5   1.46   0.72    0.00    7.37
 1993 339   115   112  118.3    0.0  118.3   0.00   1.47  151.8   67.2   51.1    1.5   1.47   0.70    0.00    7.54
 1993 340   116   113  118.7    0.0  118.7   0.00   1.47  152.3   66.6   52.1    1.5   1.47   0.70    0.00    7.71
 1993 341   117   114  119.2    0.0  119.2   0.00   1.48  152.9   65.9   53.3    1.5   1.48   0.70    0.00    7.88
 1993 342   118   115  119.8    0.0  119.8   0.00   1.48  153.8   65.2   54.6    1.5   1.48   0.70    0.00    8.05
 1993 343   119   116  120.4    0.0  120.4   0.00   1.49  154.8   64.5   55.9    1.5   1.49   0.69    0.00    8.22
 1993 344   120   117  121.1    0.0  121.1   0.00   1.49  155.7   63.8   57.3    1.5   1.49   0.68    0.00    8.39
 1993 345   121   118  121.6    0.0  121.6   0.00   1.50  156.6   63.0   58.7    1.5   1.50   0.67    0.00    8.57
 1993 346   122   119  122.2    0.0  122.2   0.00   1.50  157.6   62.0   60.2    1.5   1.50   0.67    0.00    8.75
 1993 347   123   120  122.7    0.0  122.7   0.00   1.51  158.4   61.3   61.4    1.5   1.51   0.68    0.00    8.92
 1993 348   124   121  123.0    0.0  123.0   0.00   1.52  159.0   60.2   62.9    1.5   1.52   0.68    0.00    9.10
 1993 349   125   122  123.4    2.5  121.0   1.43   1.49  159.7   59.2   61.8    1.5   1.49   0.69    0.00    9.29
 1993 350   126   123  123.9    4.9  119.0   1.42   1.47  160.5   58.2   60.8    1.5   1.47   0.68    0.00    9.47
 1993 351   127   124  124.3    7.9  116.4   1.41   1.44  161.1   56.9   59.5    1.4   1.44   0.68    0.00    9.65
 1993 352   128   125  124.8   11.3  113.5   1.41   1.40  162.0   55.5   58.0    1.4   1.40   0.68    0.00    9.84
 1993 353   129   126  125.4   14.7  110.6   1.40   1.36  162.9   54.1   56.5    1.4   1.36   0.68    0.00   10.03
 1993 354   130   127  126.0   16.7  109.2   1.39   1.35  163.9   53.4   55.8    1.3   1.35   0.68    0.00   10.21
 1993 355   131   128  126.5   18.3  108.2   1.39   1.33  164.8   52.9   55.3    1.3   1.33   0.68    0.00   10.41
 1993 356   132   129  127.0   21.3  105.7   1.39   1.30  165.7   51.7   54.0    1.3   1.30   0.68    0.00   10.60
 1993 357   133   130  127.5   24.6  102.9   1.38   1.27  166.6   50.3   52.6    1.3   1.27   0.68    0.00   10.79
 1993 358   134   131  128.0   27.9  100.1   1.38   1.23  167.4   48.9   51.1    1.2   1.23   0.68    0.00   10.99
 1993 359   135   132  128.5   31.3   97.2   1.37   1.20  168.3   47.6   49.7    1.2   1.20   0.69    0.00   11.19
 1993 360   136   133  129.1   34.5   94.5   1.37   1.17  169.2   46.2   48.3    1.2   1.17   0.69    0.00   11.39
 1993 361   137   134  129.6   37.4   92.2   1.36   1.15  170.1   45.5   46.7    1.1   1.15   0.70    0.00   11.59
 1993 362   138   135  130.1   40.2   89.9   1.35   1.11  170.9   44.0   45.9    1.1   1.11   0.71    0.00   11.79
 1993 363   139   136  130.5   42.1   88.3   1.35   1.09  171.6   43.2   45.1    1.1   1.09   0.71    0.00   11.99
 1993 364   140   137  130.9   44.1   86.8   1.34   1.07  172.4   42.5   44.4    1.1   1.07   0.71    0.00   12.20
 1993 365   141   138  131.4   46.7   84.8   1.34   1.05  173.2   41.5   43.3    1.0   1.05   0.71    0.00   12.41
 1994 001   142   139  131.9   49.6   82.3   1.33   1.02  174.0   40.3   42.1    1.0   1.02   0.71    0.00   12.62
 1994 002   143   140  132.3   51.5   80.8   1.32   1.00  174.7   39.5   41.3    1.0   1.00   0.70    0.00   12.83
 1994 003   144   141  132.8   53.3   79.5   1.32   0.98  175.5   38.9   40.6    1.0   0.98   0.70    0.00   13.04
 1994 004   145   142  133.2   55.6   77.6   1.31   0.96  176.2   37.9   39.6    1.0   0.96   0.70    0.00   13.25
 1994 005   146   143  133.7   58.5   75.2   1.30   0.93  177.0   36.8   38.4    0.9   0.93   0.70    0.00   13.47
 1994 006   147   144  134.1   61.3   72.8   1.29   0.90  177.7   35.8   37.0    0.9   0.90   0.71    0.00   13.68
 1994 007   148   145  134.5   64.0   70.5   1.28   0.87  178.4   34.6   35.9    0.9   0.87   0.72    0.00   13.90
 1994 008   149   146  134.9   66.6   68.3   1.27   0.84  179.0   33.4   34.8    0.8   0.84   0.72    0.00   14.12
 1994 009   150   147  135.2   68.7   66.5   1.27   0.82  179.5   32.5   34.0    0.8   0.82   0.72    0.00   14.34
 1994 010   151   148  135.7   70.2   65.5   1.26   0.81  180.3   32.0   33.5    0.8   0.81   0.72    0.00   14.56
 1994 011   152   149  136.2   72.2   64.0   1.25   0.79  181.1   31.3   32.7    0.8   0.79   0.72    0.00   14.78
 1994 012   153   150  136.7   74.5   62.3   1.24   0.77  182.0   30.5   31.8    0.8   0.77   0.73    0.00   15.00
 1994 013   154   151  137.2   76.9   60.4   1.23   0.74  182.8   29.5   30.8    0.7   0.74   0.73    0.00   15.23
 1994 014   155   152  137.7   79.2   58.5   1.22   0.72  183.6   28.6   29.9    0.7   0.72   0.74    0.00   15.45
 1994 015   156   153  138.2   81.4   56.8   1.21   0.70  184.4   27.8   29.0    0.7   0.70   0.74    0.00   15.68
 1994 016   157   154  138.8   83.2   55.5   1.20   0.68  185.2   27.2   28.4    0.7   0.68   0.75    0.00   15.91
 1994 017   158   155  139.3   85.1   54.2   1.19   0.67  186.0   26.5   27.7    0.7   0.67   0.75    0.00   16.14
 1994 018   159   156  139.8   87.2   52.6   1.18   0.65  186.8   25.7   26.9    0.6   0.65   0.76    0.00   16.37
 1994 019   160   157  140.2   89.2   51.0   1.17   0.63  187.5   25.0   26.1    0.6   0.63   0.77    0.00   16.61
 1994 020   161   158  140.7   91.2   49.5   1.15   0.61  188.2   24.2   25.3    0.6   0.61   0.77    0.00   16.84
 1994 021   162   159  141.1   93.0   48.1   1.14   0.59  188.8   23.5   24.6    0.6   0.59   0.78    0.00   17.08
 1994 022   163   160  141.7   94.8   46.9   1.13   0.58  189.7   23.0   23.9    0.6   0.58   0.79    0.00   17.31
 1994 023   164   161  142.2   96.5   45.7   1.12   0.58  190.5   22.9   22.9    0.6   0.58   0.80    0.00   17.55
 1994 024   165   162  142.2   96.5   45.7   1.12   0.58  191.3   22.9   22.9    0.6   0.58   0.80    0.00   17.55
 1994 025   166   163  142.2   96.5   45.7   1.12   0.58  192.1   22.9   22.9    0.6   0.58   0.80    0.00   17.55
 1994 026   167   164  142.2   96.5   45.7   1.12   0.58  192.9   22.9   22.9    0.6   0.58   0.80    0.00   17.55

*DSSAT Cropping System Model Ver. 4.0.2.000               Aug 11, 2016; 21:02:09

*RUN   3        : UYMZ                    
 MODEL          : MZCER040 - Maize           
 EXPERIMENT     : UYMZ0190 MZ    late to create DSS                             
 TREATMENT  1   : UYMZ                    

@YEAR DOY   DAS   DAP   CNAD   GNAD   VNAD   GN%D   VN%D   NUPC   LNAD   SNAD   LN%D   SN%D   RN%D   SNN0C   SNN1C
 1994 227     3     0    0.0    0.0    0.0   0.00   0.00    0.0    0.0    0.0    0.0   0.00   0.00    0.00    0.00
 1994 228     4     1    0.0    0.0    0.0   0.00   0.00    0.0    0.0    0.0    0.0   0.00   0.00    0.00    0.00
 1994 229     5     2    0.0    0.0    0.0   0.00   0.00    0.0    0.0    0.0    0.0   0.00   0.00    0.00    0.00
 1994 230     6     3    0.0    0.0    0.0   0.00   0.00    0.0    0.0    0.0    0.0   0.00   0.00    0.00    0.00
 1994 231     7     4    0.0    0.0    0.0   0.00   0.00    0.0    0.0    0.0    0.0   0.00   0.00    0.00    0.00
 1994 232     8     5    0.0    0.0    0.0   0.00   0.00    0.0    0.0    0.0    0.0   0.00   0.00    0.00    0.00
 1994 233     9     6    0.0    0.0    0.0   0.00   0.00    0.0    0.0    0.0    0.0   0.00   0.00    0.00    0.00
 1994 234    10     7    0.0    0.0    0.0   0.00   0.00    0.0    0.0    0.0    0.0   0.00   0.00    0.00    0.00
 1994 235    11     8    0.0    0.0    0.0   0.00   0.00    0.0    0.0    0.0    0.0   0.00   0.00    0.00    0.00
 1994 236    12     9    0.0    0.0    0.0   0.00   0.00    0.0    0.0    0.0    0.0   0.00   0.00    0.00    0.00
 1994 237    13    10    0.0    0.0    0.0   0.00   0.00    0.0    0.0    0.0    0.0   0.00   0.00    0.00    0.00
 1994 238    14    11    0.0    0.0    0.0   0.00   0.00    0.0    0.0    0.0    0.0   0.00   0.00    0.00    0.00
 1994 239    15    12    0.0    0.0    0.0   0.00   0.00    0.0    0.0    0.0    0.0   0.00   0.00    0.00    0.00
 1994 240    16    13    0.0    0.0    0.0   0.00   0.00    0.0    0.0    0.0    0.0   0.00   0.00    0.00    0.00
 1994 241    17    14    1.2    0.0    1.2   0.00   4.40    0.0    0.6    0.6    4.4   4.40   0.00    0.00    0.00
 1994 242    18    15    1.3    0.0    1.3   0.00   4.55    0.2    0.6    0.6    4.5   4.55   1.08    0.00    0.00
 1994 243    19    16    1.3    0.0    1.3   0.00   4.55    0.2    0.6    0.6    4.5   4.55   1.07    0.00    0.00
 1994 244    20    17    1.3    0.0    1.3   0.00   4.55    0.2    0.6    0.6    4.5   4.55   1.06    0.00    0.00
 1994 245    21    18    1.3    0.0    1.3   0.00   4.52    0.2    0.6    0.6    4.5   4.52   1.13    0.00    0.00
 1994 246    22    19    1.3    0.0    1.3   0.00   4.51    0.2    0.6    0.6    4.5   4.51   1.17    0.00    0.00
 1994 247    23    20    1.3    0.0    1.3   0.00   4.49    0.2    0.6    0.6    4.5   4.49   1.16    0.00    0.00
 1994 248    24    21    1.3    0.0    1.3   0.00   4.49    0.2    0.6    0.6    4.5   4.49   1.10    0.00    0.00
 1994 249    25    22    1.2    0.0    1.2   0.00   4.45    0.2    0.6    0.6    4.4   4.45   1.15    0.00    0.00
 1994 250    26    23    1.2    0.0    1.2   0.00   4.44    0.3    0.6    0.6    4.4   4.44   1.23    0.00    0.00
 1994 251    27    24    1.2    0.0    1.2   0.00   4.44    0.3    0.6    0.6    4.4   4.44   1.23    0.00    0.01
 1994 252    28    25    1.2    0.0    1.2   0.00   4.44    0.3    0.6    0.6    4.4   4.44   1.21    0.00    0.01
 1994 253    29    26    1.2    0.0    1.2   0.00   4.44    0.3    0.6    0.6    4.4   4.44   1.16    0.00    0.01
 1994 254    30    27    1.2    0.0    1.2   0.00   4.44    0.3    0.6    0.6    4.4   4.44   1.09    0.00    0.01
 1994 255    31    28    1.2    0.0    1.2   0.00   4.44    0.3    0.6    0.6    4.4   4.44   1.07    0.00    0.01
 1994 256    32    29    1.2    0.0    1.2   0.00   4.35    0.3    0.6    0.6    4.3   4.35   1.16    0.00    0.01
 1994 257    33    30    1.2    0.0    1.2   0.00   4.15    0.3    0.6    0.6    4.1   4.15   1.12    0.00    0.01
 1994 258    34    31    1.3    0.0    1.3   0.00   4.02    0.4    0.7    0.6    4.0   4.02   1.28    0.00    0.01
 1994 259    35    32    1.4    0.0    1.4   0.00   3.99    0.6    0.8    0.6    4.0   3.99   1.31    0.00    0.01
 1994 260    36    33    1.5    0.0    1.5   0.00   3.83    0.8    0.9    0.5    3.8   3.83   1.25    0.00    0.01
 1994 261    37    34    1.6    0.0    1.6   0.00   3.31    1.0    1.2    0.5    3.3   3.31   1.20    0.00    0.02
 1994 262    38    35    2.1    0.0    2.1   0.00   3.14    1.5    1.6    0.4    3.1   3.14   1.20    0.00    0.02
 1994 263    39    36    2.8    0.0    2.8   0.00   3.04    2.3    2.3    0.4    3.0   3.04   1.21    0.00    0.02
 1994 264    40    37    3.7    0.0    3.7   0.00   3.41    3.4    3.3    0.5    3.4   3.41   1.17    0.00    0.03
 1994 265    41    38    4.5    0.0    4.5   0.00   3.43    4.3    4.0    0.5    3.4   3.43   1.23    0.00    0.03
 1994 266    42    39    5.3    0.0    5.3   0.00   3.16    5.5    4.9    0.4    3.2   3.16   1.30    0.00    0.04
 1994 267    43    40    6.8    0.0    6.8   0.00   3.38    6.8    6.3    0.5    3.4   3.38   1.10    0.00    0.04
 1994 268    44    41    8.0    0.0    8.0   0.00   3.81    8.4    7.5    0.5    3.8   3.81   1.25    0.00    0.05
 1994 269    45    42    8.4    0.0    8.4   0.00   3.71    9.8    7.9    0.5    3.7   3.71   1.41    0.00    0.06
 1994 270    46    43    9.0    0.0    9.0   0.00   3.84   11.2    8.5    0.5    3.8   3.84   1.45    0.00    0.07
 1994 271    47    44    9.3    0.0    9.3   0.00   3.65   11.6    8.8    0.5    3.6   3.65   1.25    0.00    0.09
 1994 272    48    45   10.1    0.0   10.1   0.00   3.59   12.1    9.6    0.5    3.6   3.59   1.10    0.00    0.11
 1994 273    49    46   11.0    0.0   11.0   0.00   3.56   13.9   10.5    0.5    3.6   3.56   1.21    0.00    0.12
 1994 274    50    47   12.1    0.0   12.1   0.00   3.60   15.3   11.6    0.5    3.6   3.60   1.18    0.00    0.14
 1994 275    51    48   13.1    0.0   13.1   0.00   3.69   17.2   12.5    0.5    3.7   3.69   1.23    0.00    0.17
 1994 276    52    49   13.8    0.0   13.8   0.00   3.48   18.4   13.3    0.5    3.5   3.48   1.18    0.00    0.19
 1994 277    53    50   15.1    0.0   15.1   0.00   3.56   19.5   14.6    0.5    3.6   3.56   1.10    0.00    0.22
 1994 278    54    51   17.7    0.0   17.7   0.00   3.78   23.0   17.2    0.5    3.8   3.78   1.17    0.00    0.25
 1994 279    55    52   19.0    0.0   19.0   0.00   3.68   25.6   18.5    0.5    3.7   3.68   1.22    0.00    0.28
 1994 280    56    53   20.6    0.0   20.6   0.00   3.57   27.9   20.1    0.5    3.6   3.57   1.19    0.00    0.32
 1994 281    57    54   22.8    0.0   22.8   0.00   3.53   29.9   22.2    0.5    3.5   3.53   1.11    0.00    0.36
 1994 282    58    55   24.9    0.0   24.9   0.00   3.49   31.9   24.3    0.6    3.5   3.49   1.08    0.00    0.41
 1994 283    59    56   26.4    0.0   26.4   0.00   3.47   33.7   25.7    0.6    3.5   3.47   1.10    0.00    0.45
 1994 284    60    57   28.2    0.0   28.2   0.00   3.44   36.8   27.5    0.7    3.4   3.44   1.16    0.00    0.49
 1994 285    61    58   29.9    0.0   29.9   0.00   3.42   38.2   29.1    0.8    3.4   3.42   1.09    0.00    0.54
 1994 286    62    59   32.1    0.0   32.1   0.00   3.39   43.0   31.1    1.0    3.4   3.39   1.21    0.00    0.58
 1994 287    63    60   34.5    0.0   34.5   0.00   3.36   47.0   33.3    1.2    3.4   3.36   1.21    0.00    0.64
 1994 288    64    61   38.1    0.0   38.1   0.00   3.32   51.7   36.5    1.7    3.3   3.32   1.18    0.00    0.71
 1994 289    65    62   42.0    0.0   42.0   0.00   3.28   55.6   39.7    2.2    3.3   3.28   1.13    0.00    0.79
 1994 290    66    63   44.3    0.0   44.3   0.00   3.25   57.5   41.6    2.6    3.3   3.25   1.08    0.00    0.86
 1994 291    67    64   46.5    0.0   46.5   0.00   3.23   61.6   43.4    3.1    3.2   3.23   1.14    0.00    0.93
 1994 292    68    65   48.8    0.0   48.8   0.00   3.21   63.3   45.3    3.5    3.2   3.21   1.08    0.00    1.01
 1994 293    69    66   51.7    0.0   51.7   0.00   3.18   69.1   47.5    4.2    3.2   3.18   1.17    0.00    1.09
 1994 294    70    67   55.2    0.0   55.2   0.00   3.15   73.5   50.1    5.1    3.2   3.15   1.15    0.00    1.18
 1994 295    71    68   58.2    0.0   58.2   0.00   3.12   77.4   52.2    6.0    3.1   3.12   1.13    0.00    1.28
 1994 296    72    69   60.6    0.0   60.6   0.00   3.10   79.0   53.9    6.7    3.1   3.10   1.08    0.00    1.38
 1994 297    73    70   63.6    0.0   63.6   0.00   3.08   82.3   55.9    7.7    3.1   3.08   1.08    0.00    1.48
 1994 298    74    71   66.8    0.0   66.8   0.00   3.05   88.1   58.0    8.8    3.0   3.05   1.14    0.00    1.58
 1994 299    75    72   70.4    0.0   70.4   0.00   3.01   93.4   60.2   10.2    3.0   3.01   1.14    0.00    1.69
 1994 300    76    73   73.4    0.0   73.4   0.00   2.97   98.1   61.9   11.5    3.0   2.97   1.13    0.00    1.81
 1994 301    77    74   75.4    0.0   75.4   0.00   2.99  102.0   63.3   12.1    3.0   2.99   1.15    0.00    1.94
 1994 302    78    75   76.7    0.0   76.7   0.00   2.99  105.2   64.1   12.6    3.0   2.99   1.17    0.00    2.08
 1994 303    79    76   76.7    0.0   76.7   0.00   2.91  105.2   63.6   13.0    2.9   2.91   1.16    0.00    2.08
 1994 304    80    77   81.2    0.0   81.2   0.00   2.94  107.4   66.5   14.7    2.9   2.94   1.07    0.00    2.23
 1994 305    81    78   82.7    0.0   82.7   0.00   2.82  109.7   66.6   16.1    2.8   2.82   1.06    0.00    2.36
 1994 306    82    79   84.1    0.0   84.1   0.00   2.68  111.8   66.4   17.7    2.7   2.68   1.03    0.00    2.51
 1994 307    83    80   85.5    0.0   85.5   0.00   2.55  113.6   65.9   19.5    2.5   2.55   1.00    0.00    2.65
 1994 308    84    81   86.8    0.0   86.8   0.00   2.42  115.2   65.5   21.3    2.4   2.42   1.00    0.00    2.79
 1994 309    85    82   87.8    0.0   87.8   0.00   2.28  116.4   64.6   23.2    2.3   2.28   0.98    0.00    2.94
 1994 310    86    83   88.9    0.0   88.9   0.00   2.19  117.8   64.2   24.7    2.2   2.19   0.95    0.00    3.09
 1994 311    87    84   89.8    0.0   89.8   0.00   2.11  119.0   63.8   26.1    2.1   2.11   0.91    0.00    3.24
 1994 312    88    85   90.7    0.0   90.7   0.00   2.00  120.0   63.3   27.4    2.0   2.00   0.91    0.00    3.39
 1994 313    89    86   91.5    0.0   91.5   0.00   1.90  120.9   62.5   29.0    1.9   1.90   0.89    0.00    3.54
 1994 314    90    87   92.1    0.0   92.1   0.00   1.83  121.7   61.9   30.2    1.8   1.83   0.88    0.00    3.69
 1994 315    91    88   92.7    0.0   92.7   0.00   1.75  122.4   61.0   31.7    1.8   1.75   0.87    0.00    3.84
 1994 316    92    89   93.3    0.0   93.3   0.00   1.68  123.1   60.0   33.4    1.7   1.68   0.87    0.00    3.99
 1994 317    93    90   93.9    0.0   93.9   0.00   1.61  123.8   59.0   34.9    1.6   1.61   0.85    0.00    4.15
 1994 318    94    91   94.5    0.0   94.5   0.00   1.55  124.4   58.0   36.4    1.5   1.55   0.84    0.00    4.30
 1994 319    95    92   95.7    0.0   95.7   0.00   1.51  125.9   57.5   38.2    1.5   1.51   0.85    0.00    4.45
 1994 320    96    93   97.2    0.0   97.2   0.00   1.47  127.6   57.3   40.0    1.5   1.47   0.84    0.00    4.61
 1994 321    97    94   98.6    0.0   98.6   0.00   1.47  129.2   57.5   41.1    1.5   1.47   0.84    0.00    4.76
 1994 322    98    95   99.9    0.0   99.9   0.00   1.46  130.7   57.7   42.2    1.5   1.46   0.80    0.00    4.92
 1994 323    99    96  101.0    0.0  101.0   0.00   1.45  132.0   57.7   43.3    1.4   1.45   0.77    0.00    5.08
 1994 324   100    97  102.0    0.0  102.0   0.00   1.43  133.3   57.7   44.3    1.4   1.43   0.75    0.00    5.24
 1994 325   101    98  102.9    0.0  102.9   0.00   1.42  134.4   57.5   45.4    1.4   1.42   0.72    0.00    5.40
 1994 326   102    99  103.7    0.0  103.7   0.00   1.40  135.5   57.3   46.5    1.4   1.40   0.71    0.00    5.56
 1994 327   103   100  104.5    0.0  104.5   0.00   1.37  136.5   56.9   47.6    1.4   1.37   0.69    0.00    5.72
 1994 328   104   101  105.3    0.0  105.3   0.00   1.35  137.5   56.6   48.7    1.3   1.35   0.67    0.00    5.88
 1994 329   105   102  105.9    0.0  105.9   0.00   1.31  138.3   56.0   49.9    1.3   1.31   0.66    0.00    6.05
 1994 330   106   103  106.7    0.0  106.7   0.00   1.30  139.4   55.9   50.9    1.3   1.30   0.67    0.00    6.21
 1994 331   107   104  107.4    0.0  107.4   0.00   1.28  140.3   55.7   51.7    1.3   1.28   0.65    0.00    6.38
 1994 332   108   105  108.1    0.0  108.1   0.00   1.40  141.2   60.4   47.7    1.4   1.40   0.66    0.00    6.55
 1994 333   109   106  108.6    0.0  108.6   0.00   1.41  141.9   60.1   48.5    1.4   1.41   0.64    0.00    6.72
 1994 334   110   107  109.2    0.0  109.2   0.00   1.42  142.7   59.6   49.6    1.4   1.42   0.63    0.00    6.88
 1994 335   111   108  109.7    0.0  109.7   0.00   1.42  143.4   58.9   50.8    1.4   1.42   0.62    0.00    7.05
 1994 336   112   109  110.3    0.0  110.3   0.00   1.42  144.4   58.4   52.0    1.4   1.42   0.63    0.00    7.23
 1994 337   113   110  110.9    0.0  110.9   0.00   1.43  145.3   58.0   53.0    1.4   1.43   0.64    0.00    7.40
 1994 338   114   111  111.5    0.0  111.5   0.00   1.44  146.1   57.5   54.0    1.4   1.44   0.63    0.00    7.57
 1994 339   115   112  112.3    0.0  112.3   0.00   1.46  147.4   57.1   55.2    1.5   1.46   0.62    0.00    7.75
 1994 340   116   113  112.8    0.0  112.8   0.00   1.46  148.4   56.5   56.4    1.5   1.46   0.61    0.00    7.93
 1994 341   117   114  113.4    0.0  113.4   0.00   1.47  149.4   55.7   57.7    1.5   1.47   0.61    0.00    8.11
 1994 342   118   115  113.9    0.0  113.9   0.00   1.48  150.3   54.9   59.0    1.5   1.48   0.60    0.00    8.29
 1994 343   119   116  114.4    0.0  114.4   0.00   1.48  151.2   53.9   60.5    1.5   1.48   0.60    0.00    8.47
 1994 344   120   117  114.8    0.0  114.8   0.00   1.48  152.1   52.8   62.1    1.5   1.48   0.60    0.00    8.66
 1994 345   121   118  115.3    4.3  111.0   1.50   1.43  153.1   51.0   60.0    1.4   1.43   0.61    0.00    8.85
 1994 346   122   119  115.7    8.5  107.2   1.49   1.38  153.8   49.3   58.0    1.4   1.38   0.61    0.00    9.04
 1994 347   123   120  116.3   12.4  103.9   1.45   1.35  155.0   48.2   55.7    1.4   1.35   0.63    0.00    9.23
 1994 348   124   121  116.8   16.2  100.6   1.43   1.32  155.9   47.1   53.5    1.3   1.32   0.64    0.00    9.43
 1994 349   125   122  117.4   20.0   97.5   1.41   1.26  157.1   44.9   52.5    1.3   1.26   0.64    0.00    9.62
 1994 350   126   123  117.9   23.7   94.2   1.40   1.23  157.9   43.9   50.3    1.2   1.23   0.65    0.00    9.82
 1994 351   127   124  118.4   27.3   91.1   1.38   1.17  158.7   41.9   49.2    1.2   1.17   0.65    0.00   10.02
 1994 352   128   125  119.0   29.7   89.2   1.37   1.15  159.8   41.0   48.2    1.1   1.15   0.65    0.00   10.23
 1994 353   129   126  119.4   32.9   86.5   1.35   1.11  160.5   39.7   46.7    1.1   1.11   0.66    0.00   10.43
 1994 354   130   127  119.9   36.3   83.5   1.34   1.08  161.3   38.4   45.1    1.1   1.08   0.66    0.00   10.64
 1994 355   131   128  120.3   39.7   80.6   1.33   1.04  162.0   37.0   43.6    1.0   1.04   0.67    0.00   10.85
 1994 356   132   129  120.7   43.0   77.8   1.31   1.00  162.7   35.7   42.0    1.0   1.00   0.67    0.00   11.05
 1994 357   133   130  121.0   46.2   74.9   1.30   0.96  163.3   34.4   40.5    1.0   0.96   0.67    0.00   11.27
 1994 358   134   131  121.6   49.4   72.2   1.28   0.93  164.2   33.2   39.0    0.9   0.93   0.68    0.00   11.48
 1994 359   135   132  122.1   52.6   69.5   1.27   0.90  164.9   32.0   37.6    0.9   0.90   0.68    0.00   11.69
 1994 360   136   133  122.6   55.5   67.1   1.26   0.86  165.9   30.8   36.3    0.9   0.86   0.69    0.00   11.91
 1994 361   137   134  123.2   58.4   64.7   1.25   0.83  166.7   29.8   35.0    0.8   0.83   0.69    0.00   12.12
 1994 362   138   135  123.5   61.3   62.2   1.23   0.81  167.3   28.8   33.5    0.8   0.81   0.70    0.00   12.34
 1994 363   139   136  124.2   64.1   60.1   1.22   0.77  168.3   27.6   32.4    0.8   0.77   0.71    0.00   12.56
 1994 364   140   137  124.6   66.9   57.8   1.21   0.74  169.0   26.6   31.2    0.7   0.74   0.71    0.00   12.78
 1994 365   141   138  125.2   69.5   55.8   1.19   0.72  169.9   25.6   30.1    0.7   0.72   0.72    0.00   13.00
 1995 001   142   139  125.7   72.0   53.6   1.18   0.69  170.6   24.6   29.0    0.7   0.69   0.73    0.00   13.22
 1995 002   143   140  126.2   74.6   51.6   1.17   0.67  171.4   23.8   27.8    0.7   0.67   0.73    0.00   13.45
 1995 003   144   141  126.5   77.0   49.6   1.15   0.64  171.9   22.9   26.6    0.6   0.64   0.74    0.00   13.67
 1995 004   145   142  127.2   79.2   48.0   1.14   0.63  172.9   22.5   25.5    0.6   0.63   0.75    0.00   13.90
 1995 005   146   143  127.6   81.4   46.2   1.13   0.61  173.6   21.8   24.4    0.6   0.61   0.76    0.00   14.13
 1995 006   147   144  128.4   83.5   44.9   1.11   0.60  174.7   21.4   23.5    0.6   0.60   0.77    0.00   14.36
 1995 007   148   145  128.9   85.5   43.3   1.10   0.58  175.4   20.7   22.6    0.6   0.58   0.77    0.00   14.59
 1995 008   149   146  129.5   87.5   42.0   1.08   0.57  176.4   20.4   21.5    0.6   0.57   0.78    0.00   14.82
 1995 009   150   147  129.9   88.9   41.0   1.07   0.57  177.1   20.3   20.7    0.6   0.57   0.79    0.00   15.05
 1995 010   151   148  130.5   90.2   40.3   1.06   0.56  177.9   19.9   20.4    0.6   0.56   0.80    0.00   15.29
 1995 011   152   149  130.9   91.6   39.3   1.05   0.55  178.5   19.7   19.5    0.6   0.55   0.80    0.00   15.52
 1995 012   153   150  130.9   91.6   39.3   1.05   0.55  179.1   19.7   19.5    0.6   0.55   0.80    0.00   15.52
 1995 013   154   151  130.9   91.6   39.3   1.05   0.55  179.7   19.7   19.5    0.6   0.55   0.80    0.00   15.52
 1995 014   155   152  130.9   91.6   39.3   1.05   0.55  180.3   19.7   19.5    0.6   0.55   0.80    0.00   15.52

*DSSAT Cropping System Model Ver. 4.0.2.000               Aug 11, 2016; 21:02:09

*RUN   4        : UYMZ                    
 MODEL          : MZCER040 - Maize           
 EXPERIMENT     : UYMZ0190 MZ    late to create DSS                             
 TREATMENT  1   : UYMZ                    

@YEAR DOY   DAS   DAP   CNAD   GNAD   VNAD   GN%D   VN%D   NUPC   LNAD   SNAD   LN%D   SN%D   RN%D   SNN0C   SNN1C
 1995 227     3     0    0.0    0.0    0.0   0.00   0.00    0.0    0.0    0.0    0.0   0.00   0.00    0.00    0.00
 1995 228     4     1    0.0    0.0    0.0   0.00   0.00    0.0    0.0    0.0    0.0   0.00   0.00    0.00    0.00
 1995 229     5     2    0.0    0.0    0.0   0.00   0.00    0.0    0.0    0.0    0.0   0.00   0.00    0.00    0.00
 1995 230     6     3    0.0    0.0    0.0   0.00   0.00    0.0    0.0    0.0    0.0   0.00   0.00    0.00    0.00
 1995 231     7     4    0.0    0.0    0.0   0.00   0.00    0.0    0.0    0.0    0.0   0.00   0.00    0.00    0.00
 1995 232     8     5    0.0    0.0    0.0   0.00   0.00    0.0    0.0    0.0    0.0   0.00   0.00    0.00    0.00
 1995 233     9     6    0.0    0.0    0.0   0.00   0.00    0.0    0.0    0.0    0.0   0.00   0.00    0.00    0.00
 1995 234    10     7    0.0    0.0    0.0   0.00   0.00    0.0    0.0    0.0    0.0   0.00   0.00    0.00    0.00
 1995 235    11     8    0.0    0.0    0.0   0.00   0.00    0.0    0.0    0.0    0.0   0.00   0.00    0.00    0.00
 1995 236    12     9    0.0    0.0    0.0   0.00   0.00    0.0    0.0    0.0    0.0   0.00   0.00    0.00    0.00
 1995 237    13    10    1.2    0.0    1.2   0.00   4.40    0.0    0.6    0.6    4.4   4.40   0.00    0.00    0.00
 1995 238    14    11    1.3    0.0    1.3   0.00   4.52    0.2    0.6    0.6    4.5   4.52   1.10    0.00    0.00
 1995 239    15    12    1.3    0.0    1.3   0.00   4.48    0.2    0.6    0.6    4.5   4.48   1.13    0.00    0.00
 1995 240    16    13    1.2    0.0    1.2   0.00   4.46    0.2    0.6    0.6    4.5   4.46   1.12    0.00    0.00
 1995 241    17    14    1.2    0.0    1.2   0.00   4.43    0.2    0.6    0.6    4.4   4.43   1.12    0.00    0.00
 1995 242    18    15    1.2    0.0    1.2   0.00   4.41    0.2    0.6    0.6    4.4   4.41   1.22    0.00    0.00
 1995 243    19    16    1.2    0.0    1.2   0.00   4.39    0.3    0.6    0.6    4.4   4.39   1.18    0.00    0.00
 1995 244    20    17    1.2    0.0    1.2   0.00   4.37    0.3    0.6    0.6    4.4   4.37   1.22    0.00    0.01
 1995 245    21    18    1.2    0.0    1.2   0.00   4.37    0.4    0.6    0.6    4.4   4.37   1.42    0.00    0.01
 1995 246    22    19    1.2    0.0    1.2   0.00   4.36    0.4    0.6    0.6    4.4   4.36   1.31    0.00    0.01
 1995 247    23    20    1.2    0.0    1.2   0.00   3.89    0.4    0.7    0.5    3.9   3.89   1.22    0.00    0.01
 1995 248    24    21    1.3    0.0    1.3   0.00   3.34    0.6    0.9    0.5    3.3   3.34   1.14    0.00    0.01
 1995 249    25    22    1.7    0.0    1.7   0.00   3.27    1.0    1.3    0.5    3.3   3.27   1.19    0.00    0.01
 1995 250    26    23    2.2    0.0    2.2   0.00   3.28    1.6    1.8    0.5    3.3   3.28   1.23    0.00    0.02
 1995 251    27    24    2.8    0.0    2.8   0.00   3.52    2.2    2.4    0.5    3.5   3.52   1.11    0.00    0.02
 1995 252    28    25    3.4    0.0    3.4   0.00   3.88    2.8    2.8    0.5    3.9   3.88   1.15    0.00    0.02
 1995 253    29    26    3.6    0.0    3.6   0.00   3.97    3.1    3.1    0.6    4.0   3.97   1.17    0.00    0.03
 1995 254    30    27    3.8    0.0    3.8   0.00   3.88    3.5    3.2    0.5    3.9   3.88   1.26    0.00    0.03
 1995 255    31    28    4.0    0.0    4.0   0.00   4.08    4.3    3.5    0.6    4.1   4.08   1.63    0.00    0.04
 1995 256    32    29    4.0    0.0    4.0   0.00   4.04    4.3    3.5    0.6    4.0   4.04   1.60    0.00    0.04
 1995 257    33    30    4.0    0.0    4.0   0.00   3.92    4.3    3.5    0.5    3.9   3.92   1.53    0.00    0.04
 1995 258    34    31    4.2    0.0    4.2   0.00   3.85    4.6    3.7    0.5    3.9   3.85   1.32    0.00    0.04
 1995 259    35    32    4.5    0.0    4.5   0.00   3.70    5.2    4.0    0.5    3.7   3.70   1.27    0.00    0.05
 1995 260    36    33    5.0    0.0    5.0   0.00   3.53    5.9    4.5    0.5    3.5   3.53   1.22    0.00    0.06
 1995 261    37    34    5.7    0.0    5.7   0.00   3.57    7.1    5.2    0.5    3.6   3.57   1.24    0.00    0.07
 1995 262    38    35    6.5    0.0    6.5   0.00   3.94    8.3    5.9    0.6    3.9   3.94   1.33    0.00    0.08
 1995 263    39    36    6.7    0.0    6.7   0.00   3.95    8.8    6.1    0.6    4.0   3.95   1.36    0.00    0.10
 1995 264    40    37    6.8    0.0    6.8   0.00   3.85    9.0    6.3    0.5    3.8   3.85   1.24    0.00    0.12
 1995 265    41    38    6.8    0.0    6.8   0.00   3.69    9.0    6.3    0.5    3.7   3.69   1.23    0.00    0.12
 1995 266    42    39    7.4    0.0    7.4   0.00   3.74    9.6    6.9    0.5    3.7   3.74   1.15    0.00    0.13
 1995 267    43    40    7.9    0.0    7.9   0.00   3.63   10.4    7.4    0.5    3.6   3.63   1.16    0.00    0.15
 1995 268    44    41    8.7    0.0    8.7   0.00   3.57   11.6    8.2    0.5    3.6   3.57   1.17    0.00    0.17
 1995 269    45    42    9.6    0.0    9.6   0.00   3.50   12.9    9.1    0.5    3.5   3.50   1.16    0.00    0.19
 1995 270    46    43   10.8    0.0   10.8   0.00   3.72   14.1   10.2    0.5    3.7   3.72   1.13    0.00    0.21
 1995 271    47    44   11.4    0.0   11.4   0.00   3.78   14.7   10.8    0.5    3.8   3.78   1.11    0.00    0.23
 1995 272    48    45   11.8    0.0   11.8   0.00   3.74   15.1   11.3    0.5    3.7   3.74   1.10    0.00    0.26
 1995 273    49    46   12.3    0.0   12.3   0.00   3.59   16.4   11.8    0.5    3.6   3.59   1.17    0.00    0.28
 1995 274    50    47   13.3    0.0   13.3   0.00   3.85   18.2   12.7    0.5    3.9   3.85   1.19    0.00    0.31
 1995 275    51    48   13.3    0.0   13.3   0.00   3.48   18.2   12.8    0.5    3.5   3.48   1.18    0.00    0.31
 1995 276    52    49   14.6    0.0   14.6   0.00   3.52   19.1   14.1    0.5    3.5   3.52   1.09    0.00    0.34
 1995 277    53    50   17.5    0.0   17.5   0.00   3.78   22.4   16.9    0.5    3.8   3.78   1.11    0.00    0.37
 1995 278    54    51   18.4    0.0   18.4   0.00   3.68   23.5   17.9    0.5    3.7   3.68   1.11    0.00    0.40
 1995 279    55    52   19.1    0.0   19.1   0.00   3.56   24.9   18.6    0.5    3.6   3.56   1.14    0.00    0.43
 1995 280    56    53   20.6    0.0   20.6   0.00   3.53   27.6   20.0    0.5    3.5   3.53   1.20    0.00    0.46
 1995 281    57    54   22.0    0.0   22.0   0.00   3.51   30.5   21.5    0.6    3.5   3.51   1.21    0.00    0.50
 1995 282    58    55   23.1    0.0   23.1   0.00   3.50   33.0   22.5    0.6    3.5   3.50   1.23    0.00    0.55
 1995 283    59    56   24.1    0.0   24.1   0.00   3.47   35.5   23.5    0.6    3.5   3.47   1.21    0.00    0.61
 1995 284    60    57   25.8    0.0   25.8   0.00   3.45   38.0   25.1    0.7    3.5   3.45   1.17    0.00    0.67
 1995 285    61    58   27.5    0.0   27.5   0.00   3.45   38.8   26.7    0.8    3.5   3.45   1.09    0.00    0.74
 1995 286    62    59   28.5    0.0   28.5   0.00   3.47   42.2   27.7    0.8    3.5   3.47   1.21    0.00    0.80
 1995 287    63    60   29.5    0.0   29.5   0.00   3.41   44.5   28.6    0.9    3.4   3.41   1.18    0.00    0.87
 1995 288    64    61   32.1    0.0   32.1   0.00   3.38   48.2   31.0    1.1    3.4   3.38   1.16    0.00    0.95
 1995 289    65    62   34.3    0.0   34.3   0.00   3.35   52.0   33.0    1.3    3.4   3.35   1.16    0.00    1.04
 1995 290    66    63   35.6    0.0   35.6   0.00   3.34   53.8   34.2    1.5    3.3   3.34   1.13    0.00    1.14
 1995 291    67    64   37.4    0.0   37.4   0.00   3.32   57.8   35.7    1.7    3.3   3.32   1.16    0.00    1.23
 1995 292    68    65   39.5    0.0   39.5   0.00   3.29   60.4   37.5    2.0    3.3   3.29   1.13    0.00    1.34
 1995 293    69    66   41.6    0.0   41.6   0.00   3.27   64.5   39.3    2.3    3.3   3.27   1.15    0.00    1.45
 1995 294    70    67   43.5    0.0   43.5   0.00   3.25   68.2   40.9    2.6    3.3   3.25   1.15    0.00    1.57
 1995 295    71    68   46.6    0.0   46.6   0.00   3.22   72.8   43.4    3.3    3.2   3.22   1.14    0.00    1.70
 1995 296    72    69   50.7    0.0   50.7   0.00   3.18   78.1   46.5    4.2    3.2   3.18   1.13    0.00    1.83
 1995 297    73    70   55.5    0.0   55.5   0.00   3.14   83.8   50.0    5.5    3.1   3.14   1.11    0.00    1.98
 1995 298    74    71   59.7    0.0   59.7   0.00   3.10   86.8   53.0    6.8    3.1   3.10   1.07    0.00    2.12
 1995 299    75    72   61.9    0.0   61.9   0.00   3.08   89.3   54.4    7.5    3.1   3.08   1.08    0.00    2.26
 1995 300    76    73   63.2    0.0   63.2   0.00   3.09   91.8   55.3    7.8    3.1   3.09   1.10    0.00    2.41
 1995 301    77    74   64.2    0.0   64.2   0.00   3.07   96.1   56.0    8.2    3.1   3.07   1.15    0.00    2.55
 1995 302    78    75   65.7    0.0   65.7   0.00   3.06   99.4   56.9    8.7    3.1   3.06   1.15    0.00    2.72
 1995 303    79    76   67.2    0.0   67.2   0.00   3.03  102.6   57.8    9.3    3.0   3.03   1.14    0.00    2.89
 1995 304    80    77   70.2    0.0   70.2   0.00   3.00  107.1   59.6   10.6    3.0   3.00   1.12    0.00    3.07
 1995 305    81    78   72.8    0.0   72.8   0.00   2.90  110.6   60.8   12.1    2.9   2.90   1.10    0.00    3.26
 1995 306    82    79   75.2    0.0   75.2   0.00   2.76  113.6   61.4   13.8    2.8   2.76   1.07    0.00    3.46
 1995 307    83    80   77.2    0.0   77.2   0.00   2.60  116.1   61.5   15.8    2.6   2.60   1.05    0.00    3.65
 1995 308    84    81   79.1    0.0   79.1   0.00   2.41  118.3   61.0   18.1    2.4   2.41   1.04    0.00    3.85
 1995 309    85    82   80.9    0.0   80.9   0.00   2.22  120.2   60.2   20.7    2.2   2.22   1.03    0.00    4.05
 1995 310    86    83   82.5    0.0   82.5   0.00   2.08  121.9   59.6   22.9    2.1   2.08   1.03    0.00    4.25
 1995 311    87    84   84.0    0.0   84.0   0.00   2.05  123.5   60.4   23.6    2.0   2.05   1.03    0.00    4.45
 1995 312    88    85   85.0    0.0   85.0   0.00   2.00  124.6   60.5   24.5    2.0   2.00   1.04    0.00    4.65
 1995 313    89    86   85.9    0.0   85.9   0.00   1.95  125.5   60.2   25.6    2.0   1.95   1.04    0.00    4.86
 1995 314    90    87   86.7    0.0   86.7   0.00   1.87  126.4   59.3   27.4    1.9   1.87   1.03    0.00    5.06
 1995 315    91    88   87.5    0.0   87.5   0.00   1.80  127.3   58.5   29.0    1.8   1.80   1.00    0.00    5.26
 1995 316    92    89   88.5    0.0   88.5   0.00   1.75  128.3   58.1   30.4    1.7   1.75   0.99    0.00    5.46
 1995 317    93    90   89.2    0.0   89.2   0.00   1.69  129.2   57.4   31.8    1.7   1.69   0.96    0.00    5.66
 1995 318    94    91   89.8    0.0   89.8   0.00   1.63  129.9   56.5   33.3    1.6   1.63   0.94    0.00    5.87
 1995 319    95    92   90.4    0.0   90.4   0.00   1.57  130.6   55.6   34.8    1.6   1.57   0.93    0.00    6.07
 1995 320    96    93   91.5    0.0   91.5   0.00   1.54  131.9   55.3   36.2    1.5   1.54   0.93    0.00    6.28
 1995 321    97    94   92.5    0.0   92.5   0.00   1.52  132.9   55.0   37.4    1.5   1.52   0.92    0.00    6.48
 1995 322    98    95   93.5    0.0   93.5   0.00   1.49  134.2   54.9   38.7    1.5   1.49   0.90    0.00    6.69
 1995 323    99    96   94.8    0.0   94.8   0.00   1.47  135.6   54.8   40.0    1.5   1.47   0.87    0.00    6.89
 1995 324   100    97   95.9    0.0   95.9   0.00   1.45  137.0   54.6   41.3    1.5   1.45   0.85    0.00    7.10
 1995 325   101    98   96.9    0.0   96.9   0.00   1.42  138.3   54.2   42.7    1.4   1.42   0.84    0.00    7.31
 1995 326   102    99   97.9    0.0   97.9   0.00   1.39  139.4   53.9   44.0    1.4   1.39   0.85    0.00    7.52
 1995 327   103   100   98.8    0.0   98.8   0.00   1.37  140.5   53.6   45.3    1.4   1.37   0.84    0.00    7.73
 1995 328   104   101   99.7    0.0   99.7   0.00   1.35  141.6   53.3   46.4    1.3   1.35   0.83    0.00    7.94
 1995 329   105   102  100.6    0.0  100.6   0.00   1.33  142.6   53.1   47.4    1.3   1.33   0.82    0.00    8.15
 1995 330   106   103  101.4    0.0  101.4   0.00   1.30  143.6   52.7   48.6    1.3   1.30   0.81    0.00    8.36
 1995 331   107   104  102.1    0.0  102.1   0.00   1.29  144.5   52.7   49.4    1.3   1.29   0.79    0.00    8.57
 1995 332   108   105  102.8    0.0  102.8   0.00   1.41  145.4   57.2   45.6    1.4   1.41   0.77    0.00    8.79
 1995 333   109   106  103.4    0.0  103.4   0.00   1.42  146.3   56.9   46.5    1.4   1.42   0.75    0.00    9.00
 1995 334   110   107  104.0    0.0  104.0   0.00   1.42  147.1   56.4   47.7    1.4   1.42   0.74    0.00    9.22
 1995 335   111   108  104.6    0.0  104.6   0.00   1.43  147.9   55.9   48.7    1.4   1.43   0.75    0.00    9.43
 1995 336   112   109  105.2    0.0  105.2   0.00   1.43  148.7   55.3   49.9    1.4   1.43   0.74    0.00    9.65
 1995 337   113   110  105.8    0.0  105.8   0.00   1.44  149.7   54.7   51.2    1.4   1.44   0.74    0.00    9.87
 1995 338   114   111  106.5    0.0  106.5   0.00   1.44  150.7   54.0   52.5    1.4   1.44   0.73    0.00   10.09
 1995 339   115   112  107.2    0.0  107.2   0.00   1.45  151.7   53.3   53.9    1.4   1.45   0.73    0.00   10.31
 1995 340   116   113  107.7    0.0  107.7   0.00   1.45  152.6   52.4   55.3    1.4   1.45   0.72    0.00   10.54
 1995 341   117   114  108.4    0.0  108.4   0.00   1.46  153.8   51.6   56.8    1.5   1.46   0.72    0.00   10.76
 1995 342   118   115  108.9    0.0  108.9   0.00   1.47  154.7   50.9   58.0    1.5   1.47   0.71    0.00   10.99
 1995 343   119   116  109.5    0.0  109.5   0.00   1.48  155.8   50.3   59.2    1.5   1.48   0.70    0.00   11.22
 1995 344   120   117  110.0    3.2  106.8   1.39   1.44  156.7   49.0   57.7    1.4   1.44   0.70    0.00   11.45
 1995 345   121   118  110.5    6.7  103.8   1.38   1.40  157.6   47.7   56.2    1.4   1.40   0.71    0.00   11.69
 1995 346   122   119  111.0    9.1  101.9   1.37   1.38  158.5   46.8   55.1    1.4   1.38   0.71    0.00   11.92
 1995 347   123   120  111.4   12.8   98.6   1.36   1.33  159.2   45.3   53.3    1.3   1.33   0.71    0.00   12.16
 1995 348   124   121  112.0   16.4   95.6   1.35   1.29  160.2   43.9   51.7    1.3   1.29   0.71    0.00   12.40
 1995 349   125   122  112.5   19.8   92.6   1.34   1.25  161.0   42.5   50.1    1.3   1.25   0.71    0.00   12.64
 1995 350   126   123  113.0   23.7   89.3   1.33   1.21  161.9   41.0   48.3    1.2   1.21   0.72    0.00   12.88
 1995 351   127   124  113.6   27.4   86.1   1.32   1.16  162.8   39.6   46.6    1.2   1.16   0.72    0.00   13.13
 1995 352   128   125  114.1   31.2   82.9   1.32   1.12  163.7   38.1   44.8    1.1   1.12   0.72    0.00   13.37
 1995 353   129   126  114.6   34.8   79.8   1.31   1.08  164.6   36.7   43.2    1.1   1.08   0.72    0.00   13.62
 1995 354   130   127  115.3   38.2   77.1   1.29   1.04  165.6   35.4   41.7    1.0   1.04   0.73    0.00   13.87
 1995 355   131   128  115.8   41.8   74.0   1.29   1.00  166.5   34.0   40.0    1.0   1.00   0.73    0.00   14.12
 1995 356   132   129  116.5   45.1   71.4   1.27   0.97  167.5   32.8   38.6    1.0   0.97   0.74    0.00   14.37
 1995 357   133   130  116.9   47.9   69.0   1.26   0.95  168.2   32.2   36.8    0.9   0.95   0.75    0.00   14.63
 1995 358   134   131  117.3   50.8   66.5   1.25   0.93  168.8   31.6   34.9    0.9   0.93   0.76    0.00   14.88
 1995 359   135   132  117.6   53.7   63.9   1.23   0.91  169.4   30.9   33.1    0.9   0.91   0.76    0.00   15.14
 1995 360   136   133  118.2   56.5   61.6   1.22   0.86  170.2   29.4   32.2    0.9   0.86   0.77    0.00   15.39
 1995 361   137   134  118.6   59.1   59.5   1.21   0.82  170.9   28.0   31.5    0.8   0.82   0.77    0.00   15.65
 1995 362   138   135  119.3   61.7   57.6   1.20   0.79  171.9   26.8   30.7    0.8   0.79   0.77    0.00   15.91
 1995 363   139   136  119.8   64.3   55.5   1.18   0.76  172.8   25.7   29.8    0.8   0.76   0.78    0.00   16.17
 1995 364   140   137  120.4   66.8   53.6   1.17   0.73  173.6   24.7   28.9    0.7   0.73   0.78    0.00   16.44
 1995 365   141   138  121.0   69.1   51.9   1.15   0.70  174.5   23.9   28.1    0.7   0.70   0.79    0.00   16.70
 1996 001   142   139  121.7   71.3   50.3   1.14   0.68  175.4   23.1   27.2    0.7   0.68   0.80    0.00   16.97
 1996 002   143   140  122.3   73.7   48.6   1.12   0.66  176.3   22.3   26.3    0.7   0.66   0.80    0.00   17.23
 1996 003   144   141  122.9   76.0   47.0   1.11   0.64  177.2   21.6   25.3    0.6   0.64   0.81    0.00   17.50
 1996 004   145   142  123.6   78.1   45.5   1.09   0.63  178.1   21.4   24.0    0.6   0.63   0.82    0.00   17.77
 1996 005   146   143  124.2   80.2   44.0   1.08   0.61  178.9   20.9   23.1    0.6   0.61   0.83    0.00   18.04
 1996 006   147   144  124.9   81.9   43.0   1.07   0.60  179.9   20.5   22.6    0.6   0.60   0.83    0.00   18.31
 1996 007   148   145  125.4   83.6   41.9   1.05   0.59  180.7   20.0   21.9    0.6   0.59   0.84    0.00   18.58
 1996 008   149   146  126.2   85.5   40.7   1.04   0.58  181.6   19.6   21.1    0.6   0.58   0.85    0.00   18.85
 1996 009   150   147  127.0   87.4   39.6   1.03   0.57  182.4   19.5   20.1    0.6   0.57   0.85    0.00   19.13
 1996 010   151   148  127.7   89.2   38.5   1.01   0.57  183.0   19.3   19.2    0.6   0.57   0.85    0.00   19.40
 1996 011   152   149  128.6   91.0   37.6   1.00   0.57  183.8   19.5   18.1    0.6   0.57   0.85    0.00   19.67
 1996 012   153   150  129.5   92.8   36.6   0.99   0.57  184.4   19.4   17.2    0.6   0.57   0.86    0.00   19.94
 1996 013   154   151  130.7   94.7   36.0   0.98   0.57  185.4   19.5   16.5    0.6   0.57   0.86    0.00   20.21
 1996 014   155   152  131.4   96.3   35.1   0.97   0.56  186.3   19.2   15.9    0.6   0.56   0.86    0.00   20.48
 1996 015   156   153  131.4   96.3   35.1   0.97   0.56  187.1   19.2   15.9    0.6   0.56   0.86    0.00   20.48
 1996 016   157   154  131.4   96.3   35.1   0.97   0.56  187.9   19.2   15.9    0.6   0.56   0.86    0.00   20.48
 1996 017   158   155  131.4   96.3   35.1   0.97   0.56  188.7   19.2   15.9    0.6   0.56   0.86    0.00   20.48
 1996 018   159   156  131.4   96.3   35.1   0.97   0.56  189.5   19.2   15.9    0.6   0.56   0.86    0.00   20.48
