*WATER BALANCE OUTPUT FILE

*DSSAT Cropping System Model Ver. 4.0.2.000               Aug 11, 2016; 21:02:09

*RUN   1        : UYMZ                    
 MODEL          : MZCER040 - Maize           
 EXPERIMENT     : UYMZ0190 MZ    late to create DSS                             
 TREATMENT  1   : UYMZ                    


     WATER BALANCE PARAMETERS
     ========================                  --mm--

     Soil H20 (start) on Year/day 1992/224     490.84
     Soil H20 (final) on Year/day 1993/021     536.71
     Effective Irrigation                      228.33
     Precipitation                             532.30
     Drainage                                   76.80
     Runoff                                     17.35
     Soil Evaporation                          183.87
     Transpiration                             436.76
     Potential ET                              730.62

     Final Balance                             0.0001


*DSSAT Cropping System Model Ver. 4.0.2.000               Aug 11, 2016; 21:02:09

*RUN   2        : UYMZ                    
 MODEL          : MZCER040 - Maize           
 EXPERIMENT     : UYMZ0190 MZ    late to create DSS                             
 TREATMENT  1   : UYMZ                    


     WATER BALANCE PARAMETERS
     ========================                  --mm--

     Soil H20 (start) on Year/day 1993/224     490.84
     Soil H20 (final) on Year/day 1994/026     463.67
     Effective Irrigation                       76.78
     Precipitation                             654.10
     Drainage                                  131.69
     Runoff                                     12.52
     Soil Evaporation                          158.65
     Transpiration                             455.19
     Potential ET                              703.19

     Final Balance                             0.0000


*DSSAT Cropping System Model Ver. 4.0.2.000               Aug 11, 2016; 21:02:09

*RUN   3        : UYMZ                    
 MODEL          : MZCER040 - Maize           
 EXPERIMENT     : UYMZ0190 MZ    late to create DSS                             
 TREATMENT  1   : UYMZ                    


     WATER BALANCE PARAMETERS
     ========================                  --mm--

     Soil H20 (start) on Year/day 1994/224     490.84
     Soil H20 (final) on Year/day 1995/014     464.97
     Effective Irrigation                      235.08
     Precipitation                             443.90
     Drainage                                   97.90
     Runoff                                      1.14
     Soil Evaporation                          178.32
     Transpiration                             427.50
     Potential ET                              677.46

     Final Balance                             0.0002


*DSSAT Cropping System Model Ver. 4.0.2.000               Aug 11, 2016; 21:02:09

*RUN   4        : UYMZ                    
 MODEL          : MZCER040 - Maize           
 EXPERIMENT     : UYMZ0190 MZ    late to create DSS                             
 TREATMENT  1   : UYMZ                    


     WATER BALANCE PARAMETERS
     ========================                  --mm--

     Soil H20 (start) on Year/day 1995/224     490.84
     Soil H20 (final) on Year/day 1996/018     477.01
     Effective Irrigation                      226.98
     Precipitation                             458.10
     Drainage                                   55.00
     Runoff                                      2.64
     Soil Evaporation                          182.09
     Transpiration                             459.17
     Potential ET                              731.29

     Final Balance                             0.0001

