*GROWTH ASPECTS OUTPUT FILE

*DSSAT Cropping System Model Ver. 4.0.2.000               Aug 15, 2016; 16:22:36

*RUN   1        : UYMZ                    
 MODEL          : MZCER040 - Maize           
 EXPERIMENT     : UYMZ0213 MZ    late to create DSS                             
 TREATMENT  1   : UYMZ                    

@YEAR DOY   DAS   DAP   L#SD   GSTD   LAID   LWAD   SWAD   GWAD   RWAD   CWAD   G#AD   GWGD   HIAD   PWAD   P#AD   WSPD   WSGD   NSTD   EWSD   LN%D   SH%D   HIPD   PWDD   PWTD     SLAD   CHTD   CWID   RDPD   RL1D   RL2D   RL3D   RL4D   RL5D   RL6D   RL7D   RL8D   RL9D   RL10   CDAD   LDAD   SDAD   SNW0C   SNW1C
 1990 227     3     0    0.0      0   0.00      0      0      0      0      0      0    0.0  0.000      0      0  0.000  0.000  0.000  0.000   0.00   0.00   0.00      0      0      0.0   0.00   0.00   0.03   0.00   0.00   0.00   0.00   0.00   0.00   0.00   0.00   0.00   0.00      0      0      0       0       0
 1990 228     4     1    0.0      0   0.00      0      0      0      0      0      0    0.0  0.000      0      0  0.000  0.000  0.000  0.000   0.00   0.00   0.00      0      0      0.0   0.00   0.00   0.03   0.00   0.00   0.00   0.00   0.00   0.00   0.00   0.00   0.00   0.00      0      0      0       0       0
 1990 229     5     2    0.0      0   0.00      0      0      0      0      0      0    0.0  0.000      0      0  0.000  0.000  0.000  0.000   0.00   0.00   0.00      0      0      0.0   0.00   0.00   0.05   0.00   0.00   0.00   0.00   0.00   0.00   0.00   0.00   0.00   0.00      0      0      0       0       0
 1990 230     6     3    0.0      0   0.00      0      0      0      0      0      0    0.0  0.000      0      0  0.000  0.000  0.000  0.000   0.00   0.00   0.00      0      0      0.0   0.00   0.00   0.06   0.00   0.00   0.00   0.00   0.00   0.00   0.00   0.00   0.00   0.00      0      0      0       0       0
 1990 231     7     4    0.0      0   0.00      0      0      0      0      0      0    0.0  0.000      0      0  0.000  0.000  0.000  0.000   0.00   0.00   0.00      0      0      0.0   0.00   0.00   0.07   0.00   0.00   0.00   0.00   0.00   0.00   0.00   0.00   0.00   0.00      0      0      0       0       0
 1990 232     8     5    0.0      0   0.00      0      0      0      0      0      0    0.0  0.000      0      0  0.000  0.000  0.000  0.000   0.00   0.00   0.00      0      0      0.0   0.00   0.00   0.08   0.00   0.00   0.00   0.00   0.00   0.00   0.00   0.00   0.00   0.00      0      0      0       0       0
 1990 233     9     6    0.0      0   0.00      0      0      0      0      0      0    0.0  0.000      0      0  0.000  0.000  0.000  0.000   0.00   0.00   0.00      0      0      0.0   0.00   0.00   0.09   0.00   0.00   0.00   0.00   0.00   0.00   0.00   0.00   0.00   0.00      0      0      0       0       0
 1990 234    10     7    0.0      0   0.00      0      0      0      0      0      0    0.0  0.000      0      0  0.000  0.000  0.000  0.000   0.00   0.00   0.00      0      0      0.0   0.00   0.00   0.10   0.00   0.00   0.00   0.00   0.00   0.00   0.00   0.00   0.00   0.00      0      0      0       0       0
 1990 235    11     8    0.0      0   0.00      0      0      0      0      0      0    0.0  0.000      0      0  0.000  0.000  0.000  0.000   0.00   0.00   0.00      0      0      0.0   0.00   0.00   0.10   0.00   0.00   0.00   0.00   0.00   0.00   0.00   0.00   0.00   0.00      0      0      0       0       0
 1990 236    12     9    0.0      0   0.00      0      0      0      0      0      0    0.0  0.000      0      0  0.000  0.000  0.000  0.000   0.00   0.00   0.00      0      0      0.0   0.00   0.00   0.11   0.00   0.00   0.00   0.00   0.00   0.00   0.00   0.00   0.00   0.00      0      0      0       0       0
 1990 237    13    10    0.0      0   0.00      0      0      0      0      0      0    0.0  0.000      0      0  0.000  0.000  0.000  0.000   0.00   0.00   0.00      0      0      0.0   0.00   0.00   0.12   0.00   0.00   0.00   0.00   0.00   0.00   0.00   0.00   0.00   0.00      0      0      0       0       0
 1990 238    14    11    1.0      1   0.00     14     14      0     14     28      0    0.0  0.000      0      0  0.000  0.000  0.012  0.000   4.40   0.00   0.00      0      0     21.4   0.00   0.00   0.13   0.28   0.10   0.00   0.00   0.00   0.00   0.00   0.00   0.00   0.00      0      0      0       0       0
 1990 239    15    12    2.0      1   0.00     14     14      0     14     28      0    0.0  0.000      0      0  0.000  0.000  0.017  0.000   4.54   0.00   0.00      0      0     26.8   0.00   0.00   0.14   0.26   0.10   0.00   0.00   0.00   0.00   0.00   0.00   0.00   0.00      0      0      0       0       0
 1990 240    16    13    2.0      1   0.00     14     14      0     14     28      0    0.0  0.000      0      0  0.000  0.000  0.000  0.000   4.54   0.00   0.00      0      0     22.6   0.00   0.00   0.14   0.25   0.09   0.00   0.00   0.00   0.00   0.00   0.00   0.00   0.00      0      0      0       0       0
 1990 241    17    14    2.0      1   0.00     14     14      0     14     28      0    0.0  0.000      0      0  0.000  0.000  0.000  0.036   4.54   0.00   0.00      0      0     11.9   0.00   0.00   0.14   0.24   0.09   0.00   0.00   0.00   0.00   0.00   0.00   0.00   0.00      0      0      0       0       0
 1990 242    18    15    2.0      1   0.00     14     14      0     14     28      0    0.0  0.000      0      0  0.000  0.000  0.000  0.000   4.54   0.00   0.00      0      0     19.0   0.00   0.00   0.14   0.24   0.10   0.00   0.00   0.00   0.00   0.00   0.00   0.00   0.00      0      0      0       0       0
 1990 243    19    16    2.0      1   0.00     14     14      0     14     28      0    0.0  0.000      0      0  0.000  0.000  0.000  0.000   4.54   0.00   0.00      0      0     20.2   0.00   0.00   0.15   0.24   0.10   0.00   0.00   0.00   0.00   0.00   0.00   0.00   0.00      0      0      0       0       0
 1990 244    20    17    2.0      1   0.00     14     14      0     14     28      0    0.0  0.000      0      0  0.000  0.000  0.000  0.000   4.54   0.00   0.00      0      0     14.8   0.00   0.00   0.15   0.24   0.10   0.00   0.00   0.00   0.00   0.00   0.00   0.00   0.00      0      0      0       0       0
 1990 245    21    18    2.0      1   0.00     14     14      0     14     28      0    0.0  0.000      0      0  0.000  0.000  0.000  0.000   4.54   0.00   0.00      0      0      4.7   0.00   0.00   0.15   0.24   0.10   0.00   0.00   0.00   0.00   0.00   0.00   0.00   0.00      0      0      0       0       0
 1990 246    22    19    2.0      1   0.00     14     14      0     14     28      0    0.0  0.000      0      0  0.000  0.000  0.000  0.000   4.54   0.00   0.00      0      0      8.5   0.00   0.00   0.15   0.24   0.10   0.00   0.00   0.00   0.00   0.00   0.00   0.00   0.00      0      0      0       0       0
 1990 247    23    20    2.0      1   0.00     14     14      0     14     28      0    0.0  0.000      0      0  0.000  0.000  0.000  0.000   4.54   0.00   0.00      0      0     15.2   0.00   0.00   0.15   0.24   0.10   0.00   0.00   0.00   0.00   0.00   0.00   0.00   0.00      0      0      0       0       0
 1990 248    24    21    2.0      1   0.00     14     14      0     14     28      0    0.0  0.000      0      0  0.000  0.000  0.000  0.000   4.54   0.00   0.00      0      0     30.6   0.00   0.00   0.16   0.24   0.10   0.00   0.00   0.00   0.00   0.00   0.00   0.00   0.00      0      0      0       0       0
 1990 249    25    22    3.0      1   0.01     14     14      0     15     28      0    0.0  0.000      0      0  0.000  0.000  0.000  0.000   4.54   0.00   0.00      0      0     43.5   0.00   0.00   0.17   0.24   0.10   0.00   0.00   0.00   0.00   0.00   0.00   0.00   0.00      0      0      0       0       0
 1990 250    26    23    3.0      1   0.01     14     14      0     15     28      0    0.0  0.000      0      0  0.000  0.000  0.000  0.000   4.54   0.00   0.00      0      0     56.9   0.00   0.00   0.17   0.24   0.10   0.00   0.00   0.00   0.00   0.00   0.00   0.00   0.00      0      0      0       0       0
 1990 251    27    24    3.0      1   0.01     14     14      0     15     28      0    0.0  0.000      0      0  0.000  0.000  0.000  0.000   4.54   0.00   0.00      0      0     66.2   0.00   0.00   0.18   0.22   0.10   0.00   0.00   0.00   0.00   0.00   0.00   0.00   0.00      0      0      0       0       0
 1990 252    28    25    3.0      1   0.01     14     14      0     17     28      0    0.0  0.000      0      0  0.000  0.000  0.000  0.182   4.54   0.00   0.00      0      0     83.0   0.00   0.00   0.19   0.21   0.11   0.01   0.00   0.00   0.00   0.00   0.00   0.00   0.00      0      0      0       0       0
 1990 253    29    26    4.0      1   0.02     14     14      0     18     28      0    0.0  0.000      0      0  0.000  0.000  0.000  0.012   4.38   0.00   0.00      0      0    176.2   0.00   0.00   0.20   0.21   0.12   0.01   0.00   0.00   0.00   0.00   0.00   0.00   0.00      0      0      0       0       0
 1990 254    30    27    4.0      1   0.03     14     14      0     20     28      0    0.0  0.000      0      0  0.000  0.000  0.000  0.046   4.36   0.00   0.00      0      0    250.0   0.00   0.00   0.21   0.20   0.13   0.02   0.00   0.00   0.00   0.00   0.00   0.00   0.00      0      0      0       0       0
 1990 255    31    28    4.0      1   0.04     14     14      0     23     28      0    0.0  0.000      0      0  0.000  0.000  0.000  0.052   4.35   0.00   0.00      0      0    264.9   0.00   0.00   0.21   0.20   0.15   0.04   0.00   0.00   0.00   0.00   0.00   0.00   0.00      0      0      0       0       0
 1990 256    32    29    4.0      1   0.03     14     14      0     25     28      0    0.0  0.000      0      0  0.000  0.000  0.000  0.048   4.35   0.00   0.00      0      0    242.8   0.00   0.00   0.21   0.20   0.16   0.05   0.00   0.00   0.00   0.00   0.00   0.00   0.00      0      0      0       0       0
 1990 257    33    30    4.0      1   0.03     14     14      0     27     28      0    0.0  0.000      0      0  0.000  0.000  0.000  0.026   4.34   0.00   0.00      0      0    179.8   0.00   0.00   0.21   0.20   0.19   0.06   0.00   0.00   0.00   0.00   0.00   0.00   0.00      0      0      0       0       1
 1990 258    34    31    4.0      1   0.03     15     14      0     31     29      0    0.0  0.000      0      0  0.000  0.000  0.000  0.006   4.21   0.00   0.00      0      0    191.3   0.00   0.00   0.22   0.22   0.21   0.08   0.00   0.00   0.00   0.00   0.00   0.00   0.00      0      0      0       0       1
 1990 259    35    32    4.0      1   0.04     19     14      0     33     33      0    0.0  0.000      0      0  0.000  0.000  0.000  0.000   3.79   0.00   0.00      0      0    207.4   0.00   0.00   0.23   0.22   0.23   0.10   0.00   0.00   0.00   0.00   0.00   0.00   0.00      0      0      0       0       1
 1990 260    36    33    4.0      1   0.05     23     14      0     34     37      0    0.0  0.000      0      0  0.000  0.000  0.000  0.000   3.87   0.00   0.00      0      0    215.3   0.00   0.00   0.23   0.23   0.24   0.11   0.00   0.00   0.00   0.00   0.00   0.00   0.00      0      0      0       0       1
 1990 261    37    34    5.0      1   0.06     27     14      0     36     41      0    0.0  0.000      0      0  0.000  0.000  0.000  0.000   3.84   0.00   0.00      0      0    220.4   0.00   0.00   0.24   0.21   0.24   0.11   0.00   0.00   0.00   0.00   0.00   0.00   0.00      0      0      0       0       1
 1990 262    38    35    5.0      1   0.07     31     14      0     40     45      0    0.0  0.000      0      0  0.000  0.000  0.000  0.000   3.86   0.00   0.00      0      0    223.1   0.00   0.00   0.24   0.21   0.26   0.14   0.00   0.00   0.00   0.00   0.00   0.00   0.00      0      0      0       0       1
 1990 263    39    36    5.0      1   0.08     36     14      0     41     50      0    0.0  0.000      0      0  0.000  0.000  0.000  0.100   3.81   0.00   0.00      0      0    224.5   0.00   0.00   0.25   0.20   0.26   0.14   0.00   0.00   0.00   0.00   0.00   0.00   0.00      0      0      0       0       1
 1990 264    40    37    5.0      1   0.10     44     14      0     42     58      0    0.0  0.000      0      0  0.000  0.000  0.000  0.055   3.64   0.00   0.00      0      0    224.6   0.00   0.00   0.26   0.20   0.26   0.15   0.00   0.00   0.00   0.00   0.00   0.00   0.00      0      0      0       0       2
 1990 265    41    38    6.0      1   0.11     50     14      0     56     64      0    0.0  0.000      0      0  0.000  0.000  0.000  0.021   3.82   0.00   0.00      0      0    223.8   0.00   0.00   0.27   0.23   0.34   0.26   0.00   0.00   0.00   0.00   0.00   0.00   0.00      0      0      0       0       2
 1990 266    42    39    6.0      1   0.12     52     14      0     64     66      0    0.0  0.000      0      0  0.000  0.000  0.000  0.000   4.08   0.00   0.00      0      0    222.7   0.00   0.00   0.27   0.25   0.39   0.33   0.00   0.00   0.00   0.00   0.00   0.00   0.00      0      0      0       0       2
 1990 267    43    40    6.0      1   0.11     54     14      0     74     68      0    0.0  0.000      0      0  0.000  0.000  0.000  0.000   4.05   0.00   0.00      0      0    204.8   0.00   0.00   0.27   0.27   0.45   0.42   0.00   0.00   0.00   0.00   0.00   0.00   0.00      0      0      0       0       2
 1990 268    44    41    6.0      1   0.11     57     14      0     87     71      0    0.0  0.000      0      0  0.000  0.000  0.000  0.000   4.01   0.00   0.00      0      0    187.9   0.00   0.00   0.28   0.31   0.52   0.52   0.00   0.00   0.00   0.00   0.00   0.00   0.00      0      0      0       0       3
 1990 269    45    42    6.0      1   0.12     64     14      0    105     78      0    0.0  0.000      0      0  0.000  0.000  0.000  0.000   3.82   0.00   0.00      0      0    188.3   0.00   0.00   0.28   0.35   0.62   0.68   0.00   0.00   0.00   0.00   0.00   0.00   0.00      0      0      0       0       3
 1990 270    46    43    6.0      1   0.14     76     14      0    120     90      0    0.0  0.000      0      0  0.000  0.000  0.000  0.000   3.62   0.00   0.00      0      0    190.3   0.00   0.00   0.29   0.40   0.70   0.81   0.00   0.00   0.00   0.00   0.00   0.00   0.00      0      0      0       0       4
 1990 271    47    44    6.0      1   0.17     87     14      0    122    101      0    0.0  0.000      0      0  0.000  0.000  0.000  0.000   3.65   0.00   0.00      0      0    191.0   0.00   0.00   0.30   0.40   0.71   0.82   0.00   0.00   0.00   0.00   0.00   0.00   0.00      0      0      0       0       4
 1990 272    48    45    7.0      1   0.19    101     14      0    141    115      0    0.0  0.000      0      0  0.000  0.000  0.000  0.000   3.62   0.00   0.00      0      0    190.8   0.00   0.00   0.31   0.46   0.80   0.99   0.00   0.00   0.00   0.00   0.00   0.00   0.00      0      0      0       0       5
 1990 273    49    46    7.0      1   0.22    117     14      0    163    131      0    0.0  0.000      0      0  0.000  0.000  0.000  0.000   3.57   0.00   0.00      0      0    189.9   0.00   0.00   0.31   0.53   0.91   1.17   0.01   0.00   0.00   0.00   0.00   0.00   0.00      0      0      0       0       6
 1990 274    50    47    7.0      1   0.27    142     14      0    189    156      0    0.0  0.000      0      0  0.000  0.000  0.000  0.000   3.40   0.00   0.00      0      0    187.8   0.00   0.00   0.32   0.61   1.04   1.38   0.03   0.00   0.00   0.00   0.00   0.00   0.00      0      0      0       0       7
 1990 275    51    48    8.0      1   0.31    165     14      0    228    179      0    0.0  0.000      0      0  0.000  0.000  0.000  0.000   3.52   0.00   0.00      0      0    185.7   0.00   0.00   0.34   0.73   1.22   1.70   0.06   0.00   0.00   0.00   0.00   0.00   0.00      0      0      0       0       7
 1990 276    52    49    8.0      1   0.36    195     14      0    265    209      0    0.0  0.000      0      0  0.000  0.000  0.000  0.000   3.43   0.00   0.00      0      0    182.8   0.00   0.00   0.36   0.85   1.39   1.98   0.11   0.00   0.00   0.00   0.00   0.00   0.00      0      0      0       0       9
 1990 277    53    50    8.0      1   0.43    238     14      0    291    252      0    0.0  0.000      0      0  0.000  0.000  0.000  0.000   3.28   0.00   0.00      0      0    178.9   0.00   0.00   0.38   0.92   1.50   2.17   0.15   0.00   0.00   0.00   0.00   0.00   0.00      0      0      0       0      10
 1990 278    54    51    9.0      1   0.47    267     14      0    296    281      0    0.0  0.000      0      0  0.000  0.000  0.000  0.000   3.53   0.00   0.00      0      0    176.4   0.00   0.00   0.39   0.94   1.53   2.21   0.17   0.00   0.00   0.00   0.00   0.00   0.00      0      0      0       0      11
 1990 279    55    52    9.0      1   0.53    304     14      0    308    318      0    0.0  0.000      0      0  0.000  0.000  0.000  0.000   3.45   0.00   0.00      0      0    173.4   0.00   0.00   0.41   0.95   1.58   2.29   0.19   0.00   0.00   0.00   0.00   0.00   0.00      0      0      0       0      13
 1990 280    56    53    9.0      2   0.60    322     14      0    323    336      0    0.0  0.000      0      0  0.000  0.000  0.000  0.000   3.67   0.00   0.00      0      0    184.8   0.00   0.00   0.42   0.97   1.64   2.40   0.24   0.00   0.00   0.00   0.00   0.00   0.00      0      0      0       0      14
 1990 281    57    54    9.0      2   0.62    340     14      0    359    354      0    0.0  0.000      0      0  0.000  0.000  0.002  0.508   3.70   0.00   0.00      0      0    183.4   0.00   0.00   0.43   0.91   1.66   2.51   0.34   0.00   0.00   0.00   0.00   0.00   0.00      0      0      0       0      16
 1990 282    58    55   10.0      2   0.67    369     14      0    443    383      0    0.0  0.000      0      0  0.000  0.000  0.000  0.239   3.53   0.00   0.00      0      0    181.2   0.00   0.00   0.45   0.89   1.89   3.04   0.61   0.00   0.00   0.00   0.00   0.00   0.00      0      0      0       0      18
 1990 283    59    56   10.0      2   0.73    411     14      0    515    425      0    0.0  0.000      0      0  0.000  0.000  0.000  0.041   3.78   0.00   0.00      0      0    178.3   0.00   0.00   0.46   0.88   2.10   3.51   0.88   0.00   0.00   0.00   0.00   0.00   0.00      0      0      0       0      20
 1990 284    60    57   10.0      3   0.79    458     14      0    532    472      0    0.0  0.000      0      0  0.000  0.000  0.022  0.002   3.68   0.00   0.00      0      0    173.5   0.00   0.00   0.47   0.87   2.12   3.57   0.93   0.01   0.00   0.00   0.00   0.00   0.00      0      0      0       0      23
 1990 285    61    58   10.0      3   0.85    496     14      0    640    511      0    0.0  0.000      0      0  0.000  0.000  0.022  0.077   3.58   0.00   0.00      0      0    170.8   0.00   0.00   0.48   0.82   2.23   4.00   1.25   0.10   0.00   0.00   0.00   0.00   0.00      0      0      0       0      25
 1990 286    62    59   11.0      3   0.90    538     15      0    755    552      0    0.0  0.000      0      0  0.000  0.000  0.022  0.050   3.55   0.00   0.00      0      0    168.3   0.00   0.00   0.49   0.81   2.40   4.00   1.63   0.23   0.00   0.00   0.00   0.00   0.00      0      0      0       0      28
 1990 287    63    60   11.0      3   0.97    586     15      0    864    601      0    0.0  0.000      0      0  0.000  0.000  0.022  0.020   3.52   0.00   0.00      0      0    165.5   0.00   0.00   0.50   0.80   2.57   4.00   2.01   0.40   0.00   0.00   0.00   0.00   0.00      0      0      0       0      32
 1990 288    64    61   11.0      3   1.02    622     16      0    990    639      0    0.0  0.000      0      0  0.000  0.000  0.022  0.006   3.50   0.00   0.00      0      0    163.5   0.00   0.00   0.51   0.80   2.78   4.00   2.48   0.62   0.00   0.00   0.00   0.00   0.00      0      0      0       0      37
 1990 289    65    62   11.0      3   1.05    653     17      0   1127    670      0    0.0  0.000      0      0  0.000  0.000  0.022  0.004   3.48   0.00   0.00      0      0    160.7   0.00   0.00   0.52   0.82   3.03   4.00   3.02   0.92   0.00   0.00   0.00   0.00   0.00      0      0      0       0      42
 1990 290    66    63   11.0      3   1.11    696     19      0   1192    715      0    0.0  0.000      0      0  0.000  0.000  0.022  0.003   3.46   0.00   0.00      0      0    158.7   0.00   0.00   0.53   0.82   3.13   4.00   3.28   1.08   0.00   0.00   0.00   0.00   0.00      0      0      0       0      47
 1990 291    67    64   12.0      3   1.22    782     23      0   1296    805      0    0.0  0.000      0      0  0.000  0.000  0.022  0.000   3.43   0.00   0.00      0      0    155.5   0.00   0.00   0.54   0.83   3.32   4.00   3.70   1.39   0.00   0.00   0.00   0.00   0.00      0      0      0       0      53
 1990 292    68    65   12.0      3   1.33    871     30      0   1356    901      0    0.0  0.000      0      0  0.000  0.000  0.022  0.000   3.40   0.00   0.00      0      0    152.5   0.00   0.00   0.56   0.84   3.41   4.00   3.96   1.62   0.00   0.00   0.00   0.00   0.00      0      0      0       0      60
 1990 293    69    66   12.0      3   1.44    963     39      0   1414   1001      0    0.0  0.000      0      0  0.000  0.000  0.022  0.000   3.36   0.00   0.00      0      0    149.8   0.00   0.00   0.57   0.85   3.49   4.00   4.00   1.88   0.00   0.00   0.00   0.00   0.00      0      0      0       0      66
 1990 294    70    67   12.0      3   1.55   1051     49      0   1519   1101      0    0.0  0.000      0      0  0.000  0.000  0.022  0.000   3.33   0.00   0.00      0      0    147.3   0.00   0.00   0.59   0.87   3.59   4.00   4.00   2.42   0.00   0.00   0.00   0.00   0.00      0      0      0       0      73
 1990 295    71    68   13.0      3   1.65   1140     63      0   1665   1203      0    0.0  0.000      0      0  0.000  0.000  0.022  0.000   3.29   0.00   0.00      0      0    145.0   0.00   0.00   0.60   0.91   3.64   4.00   4.00   3.34   0.00   0.00   0.00   0.00   0.00      0      0      0       0      81
 1990 296    72    69   13.0      3   1.76   1234     80      0   1766   1314      0    0.0  0.000      0      0  0.000  0.000  0.022  0.000   3.25   0.00   0.00      0      0    142.8   0.00   0.00   0.61   0.94   3.66   4.00   4.00   4.00   0.00   0.00   0.00   0.00   0.00      0      0      0       0      89
 1990 297    73    70   13.0      3   1.86   1318     98      0   1873   1416      0    0.0  0.000      0      0  0.000  0.000  0.022  0.000   3.19   0.00   0.00      0      0    141.0   0.00   0.00   0.62   0.98   3.65   3.99   4.00   4.00   0.08   0.00   0.00   0.00   0.00      0      0      0       0      98
 1990 298    74    71   14.0      3   1.96   1406    120      0   1926   1525      0    0.0  0.000      0      0  0.000  0.000  0.022  0.001   3.19   0.00   0.00      0      0    139.2   0.00   0.00   0.64   0.99   3.63   3.96   4.00   4.00   0.15   0.00   0.00   0.00   0.00      0      0      0       0     108
 1990 299    75    72   14.0      3   2.09   1524    155      0   2050   1678      0    0.0  0.000      0      0  0.000  0.000  0.022  0.001   3.15   0.00   0.00      0      0    137.0   0.00   0.00   0.65   1.04   3.65   3.98   4.00   4.00   0.38   0.00   0.00   0.00   0.00      0      0      0       0     117
 1990 300    76    73   14.0      3   2.23   1652    200      0   2120   1852      0    0.0  0.000      0      0  0.000  0.000  0.022  0.002   3.11   0.00   0.00      0      0    134.9   0.00   0.00   0.67   1.08   3.66   3.99   4.00   4.00   0.56   0.00   0.00   0.00   0.00      0      0      0       0     127
 1990 301    77    74   15.0      3   2.33   1750    241      0   2117   1991      0    0.0  0.000      0      0  0.000  0.000  0.022  0.002   3.08   0.00   0.00      0      0    133.3   0.00   0.00   0.68   1.07   3.64   3.96   3.98   4.00   0.58   0.00   0.00   0.00   0.00      0      0      0       0     138
 1990 302    78    75   15.0      3   2.47   1881    305      0   2117   2186      0    0.0  0.000      0      0  0.000  0.000  0.022  0.001   3.03   0.00   0.00      0      0    131.4   0.00   0.00   0.70   1.07   3.62   3.94   3.97   4.00   0.61   0.00   0.00   0.00   0.00      0      0      0       0     149
 1990 303    79    76   15.0      3   2.62   2021    384      0   2236   2405      0    0.0  0.000      0      0  0.000  0.000  0.022  0.000   2.88   0.00   0.00      0      0    129.6   0.00   0.00   0.72   1.15   3.69   4.00   4.00   4.00   1.09   0.00   0.00   0.00   0.00      0      0      0       0     159
 1990 304    80    77   16.0      3   2.73   2128    450      0   2382   2578      0    0.0  0.000      0      0  0.000  0.000  0.022  0.020   2.79   0.00   0.00      0      0    128.2   0.00   0.00   0.73   1.27   3.79   4.00   4.00   4.00   1.74   0.00   0.00   0.00   0.00      0      0      0       0     170
 1990 305    81    78   16.0      3   2.84   2244    531      0   2486   2775      0    0.0  0.000      0      0  0.000  0.000  0.022  0.000   2.69   0.00   0.00      0      0    126.7   0.00   0.00   0.74   1.37   3.88   4.00   4.00   4.00   2.24   0.00   0.00   0.00   0.00      0      0      0       0     182
 1990 306    82    79   16.0      3   2.96   2364    623      0   2556   2987      0    0.0  0.000      0      0  0.000  0.000  0.022  0.000   2.58   0.00   0.00      0      0    125.3   0.00   0.00   0.76   1.45   3.95   4.00   4.00   4.00   2.61   0.00   0.00   0.00   0.00      0      0      0       0     195
 1990 307    83    80   17.0      3   3.07   2470    717      0   2554   3187      0    0.0  0.000      0      0  0.000  0.000  0.025  0.000   2.49   0.00   0.00      0      0    124.1   0.00   0.00   0.78   1.45   3.94   3.99   3.98   3.98   2.65   0.00   0.00   0.00   0.00      0      0      0       0     208
 1990 308    84    81   17.0      3   3.14   2551    791      0   2662   3342      0    0.0  0.000      0      0  0.000  0.000  0.029  0.000   2.42   0.00   0.00      0      0    123.0   0.00   0.00   0.79   1.61   4.00   4.00   4.00   4.00   3.20   0.00   0.00   0.00   0.00      0      0      0       0     220
 1990 309    85    82   17.0      3   3.17   2597    836      0   2868   3433      0    0.0  0.000      0      0  0.000  0.000  0.034  0.000   2.39   0.00   0.00      0      0    122.2   0.00   0.00   0.79   1.95   4.00   4.00   4.00   4.00   4.00   0.00   0.00   0.00   0.00      0      0      0       0     234
 1990 310    86    83   17.0      3   3.23   2666    907      0   2947   3573      0    0.0  0.000      0      0  0.000  0.000  0.038  0.046   2.33   0.00   0.00      0      0    121.1   0.00   0.00   0.80   2.12   4.00   4.00   4.00   4.00   4.00   0.00   0.00   0.00   0.00      0      0      0       0     248
 1990 311    87    84   18.0      3   3.31   2764   1014      0   3051   3778      0    0.0  0.000      0      0  0.000  0.000  0.039  0.016   2.23   0.00   0.00      0      0    119.9   0.00   0.00   0.81   2.36   4.00   4.00   4.00   4.00   4.00   0.00   0.00   0.00   0.00      0      0      0       0     263
 1990 312    88    85   18.0      3   3.36   2828   1087      0   3047   3915      0    0.0  0.000      0      0  0.000  0.000  0.042  0.016   2.18   0.00   0.00      0      0    118.8   0.00   0.00   0.82   2.38   4.00   4.00   3.99   3.99   4.00   0.00   0.00   0.00   0.00      0      0      0       0     278
 1990 313    89    86   18.0      3   3.44   2926   1208      0   3075   4134      0    0.0  0.000      0      0  0.000  0.000  0.048  0.002   2.09   0.00   0.00      0      0    117.5   0.00   0.00   0.83   2.50   4.00   4.00   4.00   4.00   4.00   0.00   0.00   0.00   0.00      0      0      0       0     293
 1990 314    90    87   18.0      3   3.66   3168   1326      0   3080   4494      0    0.0  0.000      0      0  0.000  0.000  0.050  0.000   1.94   0.00   0.00      0      0    115.5   0.00   0.00   0.85   2.56   4.00   4.00   4.00   4.00   4.00   0.00   0.00   0.00   0.00      0      0      0       0     309
 1990 315    91    88   19.0      3   3.81   3352   1515      0   3101   4867      0    0.0  0.000      0      0  0.000  0.000  0.056  0.000   1.81   0.00   0.00      0      0    113.8   0.00   0.00   0.86   2.69   4.00   4.00   4.00   4.00   4.00   0.00   0.00   0.00   0.00      0      0      0       0     324
 1990 316    92    89   19.0      3   3.87   3441   1632      0   3097   5073      0    0.0  0.000      0      0  0.000  0.000  0.070  0.000   1.75   0.00   0.00      0      0    112.4   0.00   0.00   0.87   2.72   4.00   4.00   4.00   4.00   3.99   0.00   0.00   0.00   0.00      0      0      0       0     339
 1990 317    93    90   19.0      3   3.97   3587   1879      0   3132   5467      0    0.0  0.000      0      0  0.000  0.000  0.083  0.000   1.63   0.00   0.00      0      0    110.6   0.00   0.00   0.89   2.90   4.00   4.00   4.00   4.00   4.00   0.00   0.00   0.00   0.00      0      0      0       0     355
 1990 318    94    91   20.0      3   4.01   3676   2055      0   3131   5731      0    0.0  0.000      0      0  0.000  0.000  0.086  0.000   1.57   0.00   0.00      0      0    109.1   0.00   0.00   0.92   2.94   4.00   4.00   4.00   4.00   4.00   0.00   0.00   0.00   0.00      0      0      0       0     371
 1990 319    95    92   20.0      3   4.00   3720   2152      0   3124   5872      0    0.0  0.000      0      0  0.000  0.000  0.101  0.000   1.54   0.00   0.00      0      0    107.6   0.00   0.00   0.93   2.94   4.00   4.00   3.99   3.99   3.98   0.03   0.00   0.00   0.00      0      0      0       0     386
 1990 320    96    93   20.0      3   3.99   3769   2263      0   3187   6032      0    0.0  0.000      0      0  0.000  0.000  0.110  0.000   1.52   0.00   0.00      0      0    106.0   0.00   0.00   0.94   3.08   4.00   4.00   4.00   4.00   3.99   0.39   0.00   0.00   0.00      0      0      0       0     402
 1990 321    97    94   21.0      3   3.98   3818   2380      0   3347   6198      0    0.0  0.000      0      0  0.000  0.000  0.111  0.000   1.50   0.00   0.00      0      0    104.4   0.00   0.00   0.95   3.42   4.00   4.00   4.00   4.00   4.00   1.26   0.00   0.00   0.00      0      0      0       0     418
 1990 322    98    95   21.0      3   4.00   3889   2563      0   3454   6452      0    0.0  0.000      0      0  0.000  0.000  0.110  0.022   1.47   0.00   0.00      0      0    102.8   0.00   0.00   0.96   3.64   4.00   4.00   4.00   4.00   4.00   1.92   0.00   0.00   0.00      0      0      0       0     435
 1990 323    99    96   22.0      3   4.03   3976   2804      0   3519   6780      0    0.0  0.000      0      0  0.000  0.000  0.106  0.000   1.42   0.00   0.00      0      0    101.3   0.00   0.00   0.98   3.76   4.00   4.00   4.00   4.00   4.00   2.38   0.00   0.00   0.00      0      0      0       0     452
 1990 324   100    97   22.0      3   4.02   4028   2950      0   3512   6978      0    0.0  0.000      0      0  0.000  0.000  0.109  0.000   1.40   0.00   0.00      0      0     99.8   0.00   0.00   0.99   3.76   4.00   4.00   3.99   3.99   3.99   2.44   0.00   0.00   0.00      0      0      0       0     469
 1990 325   101    98   22.0      3   4.03   4096   3137      0   3643   7233      0    0.0  0.000      0      0  0.000  0.000  0.116  0.000   1.37   0.00   0.00      0      0     98.3   0.00   0.00   1.01   4.00   4.00   4.00   4.00   4.00   4.00   3.30   0.00   0.00   0.00      0      0      0       0     487
 1990 326   102    99   22.0      3   4.02   4155   3298      0   3766   7453      0    0.0  0.000      0      0  0.000  0.000  0.118  0.000   1.35   0.00   0.00      0      0     96.8   0.00   0.00   1.02   4.00   4.00   4.00   4.00   4.00   4.00   4.00   0.00   0.00   0.00      0      0      0       0     505
 1990 327   103   100   22.0      3   4.01   4211   3452      0   3909   7663      0    0.0  0.000      0      0  0.000  0.000  0.122  0.000   1.33   0.00   0.00      0      0     95.3   0.00   0.00   1.04   4.00   4.00   4.00   4.00   4.00   4.00   4.00   0.00   0.00   0.00      0      0      0       0     524
 1990 328   104   101   22.0      3   4.01   4273   3622      0   4001   7895      0    0.0  0.000      0      0  0.000  0.000  0.124  0.000   1.30   0.00   0.00      0      0     93.8   0.00   0.00   1.05   4.00   4.00   4.00   4.00   4.00   4.00   4.00   0.00   0.00   0.00      0      0      0       0     544
 1990 329   105   102   22.0      3   4.00   4339   3802      0   4036   8141      0    0.0  0.000      0      0  0.000  0.000  0.126  0.000   1.27   0.00   0.00      0      0     92.3   0.00   0.00   1.06   4.00   4.00   4.00   4.00   4.00   4.00   4.00   0.00   0.00   0.00      0      0      0       0     564
 1990 330   106   103   22.0      4   3.94   4295   3219      0   4128   8277      0    0.0  0.000    764      0  0.000  0.000  0.129  0.000   1.39   0.00   0.09      0    764     91.7   0.00   0.00   1.08   4.00   4.00   4.00   4.00   4.00   4.00   4.00   0.00   0.00   0.00      0      0      0       0     584
 1990 331   107   104   22.0      4   3.87   4249   3250      0   4320   8340      0    0.0  0.000    842      0  0.000  0.000  0.133  0.000   1.40   0.00   0.10      0    842     91.2   0.00   0.00   1.08   4.00   4.00   4.00   4.00   4.00   4.00   4.00   0.00   0.00   0.00      0      0      0       0     604
 1990 332   108   105   22.0      4   3.82   4201   3290      0   4509   8434      0    0.0  0.000    942      0  0.000  0.000  0.102  0.000   1.42   0.00   0.11      0    942     91.0   0.00   0.00   1.09   4.00   4.00   4.00   4.00   4.00   4.00   4.00   0.10   0.00   0.00      0      0      0       0     626
 1990 333   109   106   22.0      4   3.78   4151   3345      0   4674   8575      0    0.0  0.000   1079      0  0.000  0.000  0.096  0.000   1.43   0.00   0.13      0   1079     91.0   0.00   0.00   1.10   4.00   4.00   4.00   4.00   4.00   4.00   4.00   0.27   0.00   0.00      0      0      0       0     649
 1990 334   110   107   22.0      4   3.74   4098   3406      0   4680   8737      0    0.0  0.000   1232      0  0.000  0.000  0.089  0.000   1.44   0.00   0.14      0   1232     91.2   0.00   0.00   1.11   4.00   4.00   4.00   4.00   4.00   4.00   4.00   0.31   0.00   0.00      0      0      0       0     672
 1990 335   111   108   22.0      4   3.70   4043   3467      0   4766   8895      0    0.0  0.000   1385      0  0.000  0.000  0.084  0.000   1.45   0.00   0.16      0   1385     91.5   0.00   0.00   1.12   4.00   4.00   4.00   4.00   4.00   4.00   4.00   0.51   0.00   0.00      0      0      0       0     695
 1990 336   112   109   22.0      4   3.66   3985   3511      0   4749   8991      0    0.0  0.000   1495      0  0.000  0.000  0.079  0.000   1.47   0.00   0.17      0   1495     91.9   0.00   0.00   1.12   4.00   4.00   4.00   3.99   3.99   3.99   3.98   0.52   0.00   0.00      0      0      0       0     719
 1990 337   113   110   22.0      4   3.63   3925   3557      0   4925   9092      0    0.0  0.000   1610      0  0.000  0.000  0.074  0.000   1.48   0.00   0.18      0   1610     92.4   0.00   0.00   1.13   4.00   4.00   4.00   4.00   4.00   4.00   4.00   0.96   0.00   0.00      0      0      0       0     743
 1990 338   114   111   22.0      4   3.60   3863   3614      0   5068   9230      0    0.0  0.000   1753      0  0.000  0.000  0.069  0.000   1.49   0.00   0.19      0   1753     93.1   0.00   0.00   1.14   4.00   4.00   4.00   4.00   4.00   4.00   4.00   1.36   0.00   0.00      0      0      0       0     767
 1990 339   115   112   22.0      4   3.57   3797   3697      0   5055   9455      0    0.0  0.000   1960      0  0.000  0.000  0.063  0.000   1.50   0.00   0.21      0   1960     93.9   0.00   0.00   1.15   4.00   4.00   4.00   3.99   3.99   3.99   3.99   1.38   0.00   0.00      0      0      0       0     793
 1990 340   116   113   22.0      4   3.54   3728   3769      0   5064   9636      0    0.0  0.000   2139      0  0.000  0.000  0.058  0.000   1.50   0.00   0.22      0   2139     95.0   0.00   0.00   1.16   4.00   4.00   4.00   4.00   4.00   4.00   3.99   1.47   0.00   0.00      0      0      0       0     818
 1990 341   117   114   22.0      4   3.52   3657   3836      0   5176   9799      0    0.0  0.000   2306      0  0.000  0.000  0.054  0.000   1.51   0.00   0.24      0   2306     96.2   0.00   0.00   1.17   4.00   4.00   4.00   4.00   4.00   4.00   3.98   1.80   0.00   0.00      0      0      0       0     843
 1990 342   118   115   22.0      4   3.49   3583   3892      0   5338   9922      0    0.0  0.000   2447      0  0.000  0.000  0.051  0.074   1.52   0.00   0.25      0   2447     97.5   0.00   0.00   1.17   4.00   4.00   4.00   4.00   4.00   4.00   4.00   2.23   0.00   0.00      0      0      0       0     869
 1990 343   119   116   22.0      4   3.47   3507   3937      0   5318  10004      0    0.0  0.000   2560      0  0.000  0.000  0.049  0.103   1.53   0.00   0.26      0   2560     99.0   0.00   0.00   1.18   4.00   4.00   4.00   3.99   3.99   3.99   3.98   2.23   0.00   0.00      0      0      0       0     896
 1990 344   120   117   22.0      4   3.45   3430   3966      0   5328  10028      0    0.0  0.000   2633      0  0.000  0.000  0.045  0.512   1.54   0.00   0.26      0   2633    100.7   0.00   0.00   1.19   3.89   3.89   3.89   3.82   3.81   3.80   3.79   2.14   0.00   0.00      0      0      0       0     923
 1990 345   121   118   22.0      5   3.42   3430   3966    201   5364  10230   3422    5.9  0.020   2834      7  0.000  0.000  0.075  0.262   1.51   7.10   0.28      0   2834     99.8   0.00   0.00   1.20   4.00   4.00   4.00   3.85   3.83   3.81   3.78   2.14   0.00   0.00      0      0      0       0     949
 1990 346   122   119   22.0      5   3.39   3430   3966    328   5373  10356   3422    9.6  0.032   2960      7  0.000  0.000  0.083  0.129   1.49  11.07   0.29      0   2960     98.7   0.00   0.00   1.20   4.00   4.00   4.00   3.88   3.86   3.83   3.79   2.14   0.00   0.00      0      0      0       0     976
 1990 347   123   120   22.0      5   3.35   3430   3966    514   5386  10543   3422   15.0  0.049   3147      7  0.000  0.000  0.084  0.044   1.46  16.34   0.30      0   3147     97.7   0.00   0.00   1.21   4.00   4.00   4.00   3.91   3.89   3.85   3.80   2.14   0.00   0.00      0      0      0       0    1003
 1990 348   124   121   22.0      5   3.31   3430   3966    637   5460  10666   3422   18.6  0.060   3270      7  0.000  0.000  0.089  0.003   1.44  19.49   0.31      0   3270     96.6   0.00   0.00   1.21   4.00   4.00   4.00   4.00   4.00   3.94   3.86   2.16   0.00   0.00      0      0      0       0    1030
 1990 349   125   122   22.0      5   3.28   3430   3966    823   5530  10851   3422   24.1  0.076   3456      7  0.000  0.000  0.089  0.000   1.41  23.82   0.32      0   3456     95.5   0.00   0.00   1.22   4.00   4.00   4.00   4.00   4.00   4.00   3.91   2.18   0.00   0.00      0      0      0       0    1057
 1990 350   126   123   22.0      5   3.24   3430   3966   1068   5569  11097   3422   31.2  0.096   3701      7  0.000  0.000  0.092  0.000   1.37  28.87   0.33      0   3701     94.4   0.00   0.00   1.23   4.00   4.00   4.00   4.00   4.00   4.00   3.95   2.19   0.00   0.00      0      0      0       0    1085
 1990 351   127   124   22.0      5   3.20   3430   3966   1325   5542  11353   3422   38.7  0.117   3957      7  0.000  0.000  0.097  0.000   1.33  33.48   0.35      0   3957     93.3   0.00   0.00   1.23   4.00   4.00   4.00   4.00   4.00   4.00   3.95   2.19   0.00   0.00      0      0      0       0    1113
 1990 352   128   125   22.0      5   3.16   3430   3966   1560   5576  11588   3422   45.6  0.135   4192      7  0.000  0.000  0.104  0.000   1.29  37.20   0.36      0   4192     92.1   0.00   0.00   1.24   4.00   4.00   4.00   4.00   4.00   4.00   3.98   2.21   0.00   0.00      0      0      0       0    1140
 1990 353   129   126   22.0      5   3.11   3430   3966   1764   5634  11792   3422   51.6  0.150   4397      7  0.000  0.000  0.111  0.000   1.26  40.12   0.37      0   4397     90.8   0.00   0.00   1.25   4.00   4.00   4.00   4.00   4.00   4.00   4.00   2.23   0.00   0.00      0      0      0       0    1168
 1990 354   130   127   22.0      5   3.07   3430   3966   1980   5688  12008   3422   57.9  0.165   4613      7  0.000  0.000  0.117  0.019   1.23  42.93   0.38      0   4613     89.5   0.00   0.00   1.25   4.00   4.00   4.00   4.00   4.00   4.00   4.00   2.25   0.00   0.00      0      0      0       0    1196
 1990 355   131   128   22.0      5   3.02   3430   3966   2237   5705  12265   3422   65.4  0.182   4869      7  0.000  0.000  0.121  0.000   1.19  45.93   0.40      0   4869     88.1   0.00   0.00   1.25   4.00   4.00   4.00   4.00   4.00   4.00   4.00   2.26   0.00   0.00      0      0      0       0    1225
 1990 356   132   129   22.0      5   2.97   3430   3882   2490   5677  12435   3422   72.8  0.200   5123      7  0.000  0.000  0.128  0.075   1.17  48.61   0.41      0   5123     86.7   0.00   0.00   1.25   4.00   4.00   4.00   4.00   4.00   4.00   4.00   2.26   0.00   0.00      0      0      0       0    1253
 1990 357   133   130   22.0      5   2.92   3430   3917   2747   5666  12726   3422   80.3  0.216   5379      7  0.000  0.000  0.136  0.048   1.12  51.06   0.42      0   5379     85.2   0.00   0.00   1.25   4.00   4.00   4.00   4.00   4.00   4.00   3.99   2.25   0.00   0.00      0      0      0       0    1282
 1990 358   134   131   22.0      5   2.87   3430   3924   2950   5641  12937   3422   86.2  0.228   5583      7  0.000  0.000  0.141  0.339   1.09  52.85   0.43      0   5583     83.7   0.00   0.00   1.25   3.99   3.99   3.99   3.98   3.98   3.98   3.97   2.24   0.00   0.00      0      0      0       0    1310
 1990 359   135   132   22.0      5   2.82   3430   3966   3138   5686  13166   3422   91.7  0.238   5771      7  0.000  0.000  0.150  0.152   1.13  54.38   0.44      0   5771     82.2   0.00   0.00   1.25   4.00   4.00   4.00   3.98   3.97   3.97   3.96   2.23   0.00   0.00      0      0      0       0    1338
 1990 360   136   133   22.0      5   2.77   3430   3966   3395   5725  13423   3422   99.2  0.253   6027      7  0.000  0.000  0.124  0.047   1.12  56.32   0.45      0   6027     80.9   0.00   0.00   1.25   4.00   4.00   4.00   3.97   3.97   3.96   3.95   2.23   0.00   0.00      0      0      0       0    1367
 1990 361   137   134   22.0      5   2.73   3430   3966   3651   5764  13680   3422  106.7  0.267   6284      7  0.000  0.000  0.123  0.005   1.09  58.11   0.46      0   6284     79.6   0.00   0.00   1.25   4.00   4.00   4.00   3.98   3.98   3.96   3.95   2.22   0.00   0.00      0      0      0       0    1395
 1990 362   138   135   22.0      5   2.69   3430   3966   3796   5828  13825   3422  110.9  0.275   6429      7  0.000  0.000  0.131  0.000   1.08  59.05   0.47      0   6429     78.3   0.00   0.00   1.25   4.00   4.00   4.00   4.00   4.00   4.00   4.00   2.25   0.00   0.00      0      0      0       0    1424
 1990 363   139   136   22.0      5   2.64   3430   3966   3925   5888  13953   3422  114.7  0.281   6557      7  0.000  0.000  0.133  0.000   1.06  59.85   0.47      0   6557     77.0   0.00   0.00   1.25   4.00   4.00   4.00   4.00   4.00   4.00   4.00   2.27   0.00   0.00      0      0      0       0    1453
 1990 364   140   137   22.0      5   2.60   3430   3966   4114   5937  14143   3422  120.2  0.291   6747      7  0.000  0.000  0.134  0.000   1.04  60.98   0.48      0   6747     75.7   0.00   0.00   1.25   4.00   4.00   4.00   4.00   4.00   4.00   4.00   2.29   0.00   0.00      0      0      0       0    1483
 1990 365   141   138   22.0      5   2.55   3430   3966   4363   5973  14391   3422  127.5  0.303   6995      7  0.000  0.000  0.138  0.000   1.00  62.37   0.49      0   6995     74.4   0.00   0.00   1.25   4.00   4.00   4.00   4.00   4.00   4.00   4.00   2.31   0.00   0.00      0      0      0       0    1512
 1991 001   142   139   22.0      5   2.51   3430   3966   4619   5975  14648   3422  135.0  0.315   7252      7  0.000  0.000  0.147  0.000   0.97  63.70   0.50      0   7252     73.1   0.00   0.00   1.25   4.00   4.00   4.00   4.00   4.00   4.00   4.00   2.31   0.00   0.00      0      0      0       0    1542
 1991 002   143   140   22.0      5   2.46   3430   3966   4876   5976  14904   3422  142.5  0.327   7509      7  0.000  0.000  0.156  0.000   0.93  64.94   0.50      0   7509     71.6   0.00   0.00   1.25   4.00   4.00   4.00   4.00   4.00   4.00   4.00   2.31   0.00   0.00      0      0      0       0    1572
 1991 003   144   141   22.0      5   2.41   3430   3966   5133   5985  15161   3422  150.0  0.339   7765      7  0.000  0.000  0.166  0.000   0.90  66.10   0.51      0   7765     70.2   0.00   0.00   1.25   4.00   4.00   4.00   4.00   4.00   4.00   4.00   2.31   0.00   0.00      0      0      0       0    1602
 1991 004   145   142   22.0      5   2.35   3430   3966   5358   6017  15386   3422  156.6  0.348   7991      7  0.000  0.000  0.177  0.000   0.87  67.05   0.52      0   7991     68.6   0.00   0.00   1.25   4.00   4.00   4.00   4.00   4.00   4.00   4.00   2.33   0.00   0.00      0      0      0       0    1632
 1991 005   146   143   22.0      5   2.30   3430   3966   5583   6047  15612   3422  163.2  0.358   8216      7  0.000  0.000  0.185  0.000   0.85  67.96   0.53      0   8216     67.0   0.00   0.00   1.25   4.00   4.00   4.00   4.00   4.00   4.00   4.00   2.34   0.00   0.00      0      0      0       0    1662
 1991 006   147   144   22.0      5   2.24   3430   3966   5821   6071  15850   3422  170.1  0.367   8454      7  0.000  0.000  0.193  0.000   0.82  68.86   0.53      0   8454     65.4   0.00   0.00   1.25   4.00   4.00   4.00   4.00   4.00   4.00   4.00   2.35   0.00   0.00      0      0      0       0    1692
 1991 007   148   145   22.0      5   2.19   3430   3966   6078   6082  16106   3422  177.6  0.377   8710      7  0.000  0.000  0.205  0.000   0.79  69.78   0.54      0   8710     63.8   0.00   0.00   1.25   4.00   4.00   4.00   4.00   4.00   4.00   4.00   2.35   0.00   0.00      0      0      0       0    1723
 1991 008   149   146   22.0      5   2.13   3430   3966   6334   6090  16363   3422  185.1  0.387   8967      7  0.000  0.000  0.232  0.000   0.76  70.64   0.55      0   8967     62.1   0.00   0.00   1.25   4.00   4.00   4.00   4.00   4.00   4.00   4.00   2.35   0.00   0.00      0      0      0       0    1753
 1991 009   150   147   22.0      5   2.07   3430   3838   6591   6060  16491   3422  192.6  0.400   9224      7  0.000  0.000  0.266  0.000   0.75  71.46   0.56      0   9224     60.4   0.00   0.00   1.25   4.00   4.00   4.00   4.00   4.00   4.00   4.00   2.35   0.00   0.00      0      0      0       0    1783
 1991 010   151   148   22.0      5   2.01   3430   3880   6848   6050  16790   3422  200.1  0.408   9480      7  0.000  0.000  0.299  0.014   0.72  72.23   0.56      0   9480     58.6   0.00   0.00   1.25   4.00   4.00   4.00   4.00   4.00   4.00   4.00   2.35   0.00   0.00      0      0      0       0    1814
 1991 011   152   149   22.0      5   1.95   3430   3909   7091   6035  17062   3422  207.2  0.416   9723      7  0.000  0.000  0.308  0.000   0.69  72.93   0.57      0   9723     56.9   0.00   0.00   1.25   4.00   4.00   4.00   4.00   4.00   3.99   3.99   2.34   0.00   0.00      0      0      0       0    1844
 1991 012   153   150   22.0      5   1.89   3430   3966   7289   6037  17317   3422  213.0  0.421   9922      7  0.000  0.000  0.349  0.000   0.67  73.47   0.57      0   9922     55.1   0.00   0.00   1.25   4.00   4.00   4.00   4.00   4.00   4.00   3.99   2.35   0.00   0.00      0      0      0       0    1874
 1991 013   154   151   22.0      5   1.83   3430   3966   7492   6007  17521   3422  219.0  0.428  10125      7  0.000  0.000  0.373  0.000   0.65  74.00   0.58      0  10125     53.3   0.00   0.00   1.25   3.98   3.98   3.98   3.98   3.98   3.98   3.97   2.33   0.00   0.00      0      0      0       0    1904
 1991 014   155   152   22.0      5   1.77   3430   3966   7724   5995  17752   3422  225.7  0.435  10357      7  0.000  0.000  0.404  0.000   0.63  74.58   0.58      0  10357     51.5   0.00   0.00   1.25   4.00   4.00   4.00   3.99   3.98   3.98   3.96   2.33   0.00   0.00      0      0      0       0    1934
 1991 015   156   153   22.0      5   1.71   3430   3966   7981   5971  18009   3422  233.2  0.443  10613      7  0.000  0.000  0.430  0.000   0.61  75.20   0.59      0  10613     49.8   0.00   0.00   1.25   4.00   4.00   4.00   3.97   3.97   3.96   3.95   2.32   0.00   0.00      0      0      0       0    1964
 1991 016   157   154   22.0      5   1.64   3430   3966   8138   5949  18167   3422  237.8  0.448  10771      7  0.000  0.000  0.465  0.000   0.60  75.56   0.59      0  10771     48.0   0.00   0.00   1.25   4.00   4.00   4.00   3.97   3.96   3.95   3.93   2.31   0.00   0.00      0      0      0       0    1994
 1991 017   158   155   22.0      5   1.58   3430   3966   8254   5953  18282   3422  241.2  0.451  10887      7  0.000  0.000  0.480  0.000   0.60  75.82   0.60      0  10887     46.2   0.00   0.00   1.25   4.00   4.00   4.00   3.99   3.98   3.97   3.94   2.31   0.00   0.00      0      0      0       0    2024
 1991 018   159   156   22.0      5   1.53   3430   3966   8445   5938  18473   3422  246.8  0.457  11077      7  0.000  0.000  0.483  0.000   0.58  76.24   0.60      0  11077     44.5   0.00   0.00   1.25   4.00   4.00   4.00   3.99   3.98   3.96   3.93   2.31   0.00   0.00      0      0      0       0    2054
 1991 019   160   157   22.0      5   1.47   3430   3958   8664   5908  18685   3422  253.2  0.464  11297      7  0.000  0.000  0.505  0.000   0.57  76.70   0.60      0  11297     42.8   0.00   0.00   1.25   4.00   4.00   4.00   3.99   3.98   3.96   3.93   2.31   0.00   0.00      0      0      0       0    2083
 1991 020   161   158   22.0      5   1.41   3430   3872   8908   5879  18842   3422  260.3  0.473  11541      7  0.000  0.000  0.528  0.000   0.56  77.19   0.61      0  11541     41.2   0.00   0.00   1.25   4.00   4.00   4.00   3.99   3.98   3.96   3.93   2.31   0.00   0.00      0      0      0       0    2113
 1991 021   162   159   22.0      5   1.41   3430   3872   8908   5879  18842   3422  260.3  0.473  11541      7  0.000  0.000  0.528  0.000   0.56  77.19   0.61      0  11541     41.2   0.00   0.00   1.25   4.00   4.00   4.00   3.99   3.98   3.96   3.93   2.31   0.00   0.00      0      0      0       0    2113
 1991 022   163   160   22.0      5   1.41   3430   3872   8908   5879  18842   3422  260.3  0.473  11541      7  0.000  0.000  0.528  0.000   0.56  77.19   0.61      0  11541     41.2   0.00   0.00   1.25   4.00   4.00   4.00   3.99   3.98   3.96   3.93   2.31   0.00   0.00      0      0      0       0    2113
 1991 023   164   161   22.0      5   1.41   3430   3872   8908   5879  18842   3422  260.3  0.473  11541      7  0.000  0.000  0.528  0.000   0.56  77.19   0.61      0  11541     41.2   0.00   0.00   1.25   4.00   4.00   4.00   3.99   3.98   3.96   3.93   2.31   0.00   0.00      0      0      0       0    2113
 1991 024   165   162   22.0      5   1.41   3430   3872   8908   5879  18842   3422  260.3  0.473  11541      7  0.000  0.000  0.528  0.000   0.56  77.19   0.61      0  11541     41.2   0.00   0.00   1.25   4.00   4.00   4.00   3.99   3.98   3.96   3.93   2.31   0.00   0.00      0      0      0       0    2113

*DSSAT Cropping System Model Ver. 4.0.2.000               Aug 15, 2016; 16:22:36

*RUN   2        : UYMZ                    
 MODEL          : MZCER040 - Maize           
 EXPERIMENT     : UYMZ0213 MZ    late to create DSS                             
 TREATMENT  1   : UYMZ                    

@YEAR DOY   DAS   DAP   L#SD   GSTD   LAID   LWAD   SWAD   GWAD   RWAD   CWAD   G#AD   GWGD   HIAD   PWAD   P#AD   WSPD   WSGD   NSTD   EWSD   LN%D   SH%D   HIPD   PWDD   PWTD     SLAD   CHTD   CWID   RDPD   RL1D   RL2D   RL3D   RL4D   RL5D   RL6D   RL7D   RL8D   RL9D   RL10   CDAD   LDAD   SDAD   SNW0C   SNW1C
 1991 227     3     0    0.0      0   0.00      0      0      0      0      0      0    0.0  0.000      0      0  0.000  0.000  0.000  0.000   0.00   0.00   0.00      0      0      0.0   0.00   0.00   0.03   0.00   0.00   0.00   0.00   0.00   0.00   0.00   0.00   0.00   0.00      0      0      0       0       0
 1991 228     4     1    0.0      0   0.00      0      0      0      0      0      0    0.0  0.000      0      0  0.000  0.000  0.000  0.000   0.00   0.00   0.00      0      0      0.0   0.00   0.00   0.05   0.00   0.00   0.00   0.00   0.00   0.00   0.00   0.00   0.00   0.00      0      0      0       0       0
 1991 229     5     2    0.0      0   0.00      0      0      0      0      0      0    0.0  0.000      0      0  0.000  0.000  0.000  0.000   0.00   0.00   0.00      0      0      0.0   0.00   0.00   0.06   0.00   0.00   0.00   0.00   0.00   0.00   0.00   0.00   0.00   0.00      0      0      0       0       0
 1991 230     6     3    0.0      0   0.00      0      0      0      0      0      0    0.0  0.000      0      0  0.000  0.000  0.000  0.000   0.00   0.00   0.00      0      0      0.0   0.00   0.00   0.08   0.00   0.00   0.00   0.00   0.00   0.00   0.00   0.00   0.00   0.00      0      0      0       0       0
 1991 231     7     4    0.0      0   0.00      0      0      0      0      0      0    0.0  0.000      0      0  0.000  0.000  0.000  0.000   0.00   0.00   0.00      0      0      0.0   0.00   0.00   0.09   0.00   0.00   0.00   0.00   0.00   0.00   0.00   0.00   0.00   0.00      0      0      0       0       0
 1991 232     8     5    0.0      0   0.00      0      0      0      0      0      0    0.0  0.000      0      0  0.000  0.000  0.000  0.000   0.00   0.00   0.00      0      0      0.0   0.00   0.00   0.11   0.00   0.00   0.00   0.00   0.00   0.00   0.00   0.00   0.00   0.00      0      0      0       0       0
 1991 233     9     6    0.0      0   0.00      0      0      0      0      0      0    0.0  0.000      0      0  0.000  0.000  0.000  0.000   0.00   0.00   0.00      0      0      0.0   0.00   0.00   0.13   0.00   0.00   0.00   0.00   0.00   0.00   0.00   0.00   0.00   0.00      0      0      0       0       0
 1991 234    10     7    1.0      1   0.00     14     14      0     14     28      0    0.0  0.000      0      0  0.000  0.000  0.012  0.000   4.40   0.00   0.00      0      0     24.3   0.00   0.00   0.14   0.28   0.11   0.00   0.00   0.00   0.00   0.00   0.00   0.00   0.00      0      0      0       0       0
 1991 235    11     8    2.0      1   0.01     14     14      0     14     28      0    0.0  0.000      0      0  0.000  0.000  0.015  0.000   4.52   0.00   0.00      0      0     41.8   0.00   0.00   0.15   0.28   0.12   0.00   0.00   0.00   0.00   0.00   0.00   0.00   0.00      0      0      0       0       0
 1991 236    12     9    2.0      1   0.01     14     14      0     15     28      0    0.0  0.000      0      0  0.000  0.000  0.000  0.000   4.50   0.00   0.00      0      0     56.2   0.00   0.00   0.16   0.29   0.13   0.00   0.00   0.00   0.00   0.00   0.00   0.00   0.00      0      0      0       0       0
 1991 237    13    10    2.0      1   0.01     14     14      0     16     28      0    0.0  0.000      0      0  0.000  0.000  0.000  0.000   4.47   0.00   0.00      0      0     77.4   0.00   0.00   0.17   0.29   0.14   0.00   0.00   0.00   0.00   0.00   0.00   0.00   0.00      0      0      0       0       0
 1991 238    14    11    3.0      1   0.01     14     14      0     17     28      0    0.0  0.000      0      0  0.000  0.000  0.000  0.000   4.47   0.00   0.00      0      0     90.7   0.00   0.00   0.18   0.29   0.15   0.00   0.00   0.00   0.00   0.00   0.00   0.00   0.00      0      0      0       0       0
 1991 239    15    12    3.0      1   0.01     14     14      0     17     28      0    0.0  0.000      0      0  0.000  0.000  0.000  0.000   4.47   0.00   0.00      0      0    101.9   0.00   0.00   0.18   0.30   0.15   0.00   0.00   0.00   0.00   0.00   0.00   0.00   0.00      0      0      0       0       0
 1991 240    16    13    3.0      1   0.02     14     14      0     18     28      0    0.0  0.000      0      0  0.000  0.000  0.000  0.000   4.42   0.00   0.00      0      0    122.6   0.00   0.00   0.19   0.31   0.17   0.01   0.00   0.00   0.00   0.00   0.00   0.00   0.00      0      0      0       0       0
 1991 241    17    14    3.0      1   0.02     14     14      0     20     28      0    0.0  0.000      0      0  0.000  0.000  0.000  0.000   4.39   0.00   0.00      0      0    149.2   0.00   0.00   0.20   0.31   0.18   0.01   0.00   0.00   0.00   0.00   0.00   0.00   0.00      0      0      0       0       0
 1991 242    18    15    4.0      1   0.04     14     14      0     21     28      0    0.0  0.000      0      0  0.000  0.000  0.000  0.000   4.36   0.00   0.00      0      0    252.5   0.00   0.00   0.22   0.32   0.19   0.02   0.00   0.00   0.00   0.00   0.00   0.00   0.00      0      0      0       0       0
 1991 243    19    16    4.0      1   0.04     14     14      0     23     28      0    0.0  0.000      0      0  0.000  0.000  0.000  0.000   4.35   0.00   0.00      0      0    305.2   0.00   0.00   0.22   0.33   0.21   0.03   0.00   0.00   0.00   0.00   0.00   0.00   0.00      0      0      0       0       1
 1991 244    20    17    4.0      1   0.05     14     14      0     25     28      0    0.0  0.000      0      0  0.000  0.000  0.000  0.000   4.35   0.00   0.00      0      0    343.5   0.00   0.00   0.23   0.34   0.23   0.04   0.00   0.00   0.00   0.00   0.00   0.00   0.00      0      0      0       0       1
 1991 245    21    18    4.0      1   0.06     17     14      0     26     31      0    0.0  0.000      0      0  0.000  0.000  0.000  0.000   3.88   0.00   0.00      0      0    328.8   0.00   0.00   0.23   0.34   0.23   0.04   0.00   0.00   0.00   0.00   0.00   0.00   0.00      0      0      0       0       1
 1991 246    22    19    5.0      1   0.07     24     14      0     27     38      0    0.0  0.000      0      0  0.000  0.000  0.000  0.000   3.56   0.00   0.00      0      0    308.4   0.00   0.00   0.24   0.35   0.25   0.05   0.00   0.00   0.00   0.00   0.00   0.00   0.00      0      0      0       0       1
 1991 247    23    20    5.0      1   0.09     33     14      0     34     47      0    0.0  0.000      0      0  0.000  0.000  0.000  0.000   3.46   0.00   0.00      0      0    289.2   0.00   0.00   0.26   0.38   0.31   0.09   0.00   0.00   0.00   0.00   0.00   0.00   0.00      0      0      0       0       1
 1991 248    24    21    5.0      1   0.12     44     14      0     44     58      0    0.0  0.000      0      0  0.000  0.000  0.000  0.000   3.40   0.00   0.00      0      0    272.1   0.00   0.00   0.27   0.42   0.38   0.15   0.00   0.00   0.00   0.00   0.00   0.00   0.00      0      0      0       0       1
 1991 249    25    22    6.0      1   0.14     55     14      0     45     69      0    0.0  0.000      0      0  0.000  0.000  0.000  0.000   3.55   0.00   0.00      0      0    260.2   0.00   0.00   0.28   0.43   0.39   0.16   0.00   0.00   0.00   0.00   0.00   0.00   0.00      0      0      0       0       1
 1991 250    26    23    6.0      1   0.16     62     14      0     47     76      0    0.0  0.000      0      0  0.000  0.000  0.000  0.000   3.79   0.00   0.00      0      0    253.7   0.00   0.00   0.29   0.44   0.41   0.18   0.00   0.00   0.00   0.00   0.00   0.00   0.00      0      0      0       0       2
 1991 251    27    24    6.0      1   0.17     68     14      0     51     82      0    0.0  0.000      0      0  0.000  0.000  0.000  0.000   3.85   0.00   0.00      0      0    248.5   0.00   0.00   0.29   0.45   0.43   0.21   0.00   0.00   0.00   0.00   0.00   0.00   0.00      0      0      0       0       2
 1991 252    28    25    6.0      1   0.19     76     14      0     69     90      0    0.0  0.000      0      0  0.000  0.000  0.000  0.000   3.78   0.00   0.00      0      0    242.8   0.00   0.00   0.30   0.52   0.55   0.33   0.00   0.00   0.00   0.00   0.00   0.00   0.00      0      0      0       0       2
 1991 253    29    26    6.0      1   0.21     88     14      0     90    102      0    0.0  0.000      0      0  0.000  0.000  0.000  0.000   3.66   0.00   0.00      0      0    235.9   0.00   0.00   0.31   0.59   0.69   0.49   0.00   0.00   0.00   0.00   0.00   0.00   0.00      0      0      0       0       2
 1991 254    30    27    7.0      1   0.24    104     14      0    116    118      0    0.0  0.000      0      0  0.000  0.000  0.000  0.000   3.55   0.00   0.00      0      0    227.8   0.00   0.00   0.32   0.69   0.87   0.67   0.01   0.00   0.00   0.00   0.00   0.00   0.00      0      0      0       0       3
 1991 255    31    28    7.0      1   0.28    128     14      0    141    142      0    0.0  0.000      0      0  0.000  0.000  0.000  0.000   3.40   0.00   0.00      0      0    218.5   0.00   0.00   0.33   0.79   1.04   0.85   0.02   0.00   0.00   0.00   0.00   0.00   0.00      0      0      0       0       3
 1991 256    32    29    7.0      1   0.33    159     14      0    159    173      0    0.0  0.000      0      0  0.000  0.000  0.000  0.000   3.30   0.00   0.00      0      0    208.7   0.00   0.00   0.35   0.85   1.15   0.97   0.03   0.00   0.00   0.00   0.00   0.00   0.00      0      0      0       0       4
 1991 257    33    30    8.0      1   0.36    173     14      0    167    187      0    0.0  0.000      0      0  0.000  0.000  0.000  0.000   3.73   0.00   0.00      0      0    205.2   0.00   0.00   0.36   0.88   1.20   1.02   0.04   0.00   0.00   0.00   0.00   0.00   0.00      0      0      0       0       5
 1991 258    34    31    8.0      1   0.36    178     14      0    171    192      0    0.0  0.000      0      0  0.000  0.000  0.000  0.000   3.92   0.00   0.00      0      0    204.0   0.00   0.00   0.36   0.88   1.22   1.05   0.04   0.00   0.00   0.00   0.00   0.00   0.00      0      0      0       0       6
 1991 259    35    32    8.0      1   0.40    202     14      0    190    216      0    0.0  0.000      0      0  0.000  0.000  0.000  0.000   3.55   0.00   0.00      0      0    198.7   0.00   0.00   0.37   0.93   1.34   1.17   0.06   0.00   0.00   0.00   0.00   0.00   0.00      0      0      0       0       7
 1991 260    36    33    8.0      1   0.45    230     14      0    194    244      0    0.0  0.000      0      0  0.000  0.000  0.000  0.000   3.51   0.00   0.00      0      0    193.4   0.00   0.00   0.39   0.93   1.37   1.20   0.07   0.00   0.00   0.00   0.00   0.00   0.00      0      0      0       0       8
 1991 261    37    34    8.0      1   0.48    251     14      0    245    265      0    0.0  0.000      0      0  0.000  0.000  0.000  0.167   3.65   0.00   0.00      0      0    190.0   0.00   0.00   0.40   0.88   1.54   1.48   0.16   0.00   0.00   0.00   0.00   0.00   0.00      0      0      0       0       8
 1991 262    38    35    9.0      1   0.50    267     14      0    301    281      0    0.0  0.000      0      0  0.000  0.000  0.000  0.000   3.70   0.00   0.00      0      0    187.5   0.00   0.00   0.41   0.85   1.77   1.83   0.27   0.00   0.00   0.00   0.00   0.00   0.00      0      0      0       0      10
 1991 263    39    36    9.0      1   0.54    290     14      0    335    304      0    0.0  0.000      0      0  0.000  0.000  0.000  0.069   3.62   0.00   0.00      0      0    184.3   0.00   0.00   0.42   0.85   1.91   2.04   0.34   0.00   0.00   0.00   0.00   0.00   0.00      0      0      0       0      11
 1991 264    40    37    9.0      2   0.61    312     14      0    364    326      0    0.0  0.000      0      0  0.000  0.000  0.000  0.005   3.63   0.00   0.00      0      0    193.8   0.00   0.00   0.43   0.86   2.04   2.23   0.41   0.00   0.00   0.00   0.00   0.00   0.00      0      0      0       0      13
 1991 265    41    38    9.0      2   0.65    344     14      0    431    358      0    0.0  0.000      0      0  0.000  0.000  0.001  0.000   3.56   0.00   0.00      0      0    190.0   0.00   0.00   0.44   0.92   2.36   2.70   0.59   0.00   0.00   0.00   0.00   0.00   0.00      0      0      0       0      15
 1991 266    42    39    9.0      2   0.62    357     14      0    490    371      0    0.0  0.000      0      0  0.000  0.000  0.000  0.000   3.68   0.00   0.00      0      0    174.0   0.00   0.00   0.45   0.99   2.63   3.10   0.75   0.00   0.00   0.00   0.00   0.00   0.00      0      0      0       0      17
 1991 267    43    40   10.0      2   0.65    378     14      0    562    392      0    0.0  0.000      0      0  0.000  0.000  0.000  0.000   3.80   0.00   0.00      0      0    170.8   0.00   0.00   0.45   1.08   2.96   3.59   0.96   0.00   0.00   0.00   0.00   0.00   0.00      0      0      0       0      19
 1991 268    44    41   10.0      3   0.69    411     14      0    632    425      0    0.0  0.000      0      0  0.000  0.000  0.022  0.000   3.68   0.00   0.00      0      0    167.5   0.00   0.00   0.46   1.17   3.26   4.00   1.15   0.01   0.00   0.00   0.00   0.00   0.00      0      0      0       0      22
 1991 269    45    42   10.0      3   0.74    450     14      0    709    465      0    0.0  0.000      0      0  0.000  0.000  0.022  0.000   3.57   0.00   0.00      0      0    165.4   0.00   0.00   0.48   1.28   3.58   4.00   1.35   0.05   0.00   0.00   0.00   0.00   0.00      0      0      0       0      25
 1991 270    46    43   10.0      3   0.84    516     15      0    758    531      0    0.0  0.000      0      0  0.000  0.000  0.022  0.000   3.53   0.00   0.00      0      0    162.4   0.00   0.00   0.49   1.35   3.77   4.00   1.48   0.08   0.00   0.00   0.00   0.00   0.00      0      0      0       0      29
 1991 271    47    44   10.0      3   0.87    542     15      0    835    557      0    0.0  0.000      0      0  0.000  0.000  0.022  0.000   3.55   0.00   0.00      0      0    161.0   0.00   0.00   0.50   1.46   4.00   4.00   1.68   0.14   0.00   0.00   0.00   0.00   0.00      0      0      0       0      33
 1991 272    48    45   11.0      3   0.91    572     16      0    924    587      0    0.0  0.000      0      0  0.000  0.000  0.022  0.000   3.51   0.00   0.00      0      0    159.5   0.00   0.00   0.51   1.60   4.00   4.00   1.92   0.22   0.00   0.00   0.00   0.00   0.00      0      0      0       0      37
 1991 273    49    46   11.0      3   0.96    609     17      0   1018    626      0    0.0  0.000      0      0  0.000  0.000  0.022  0.000   3.47   0.00   0.00      0      0    157.8   0.00   0.00   0.52   1.75   4.00   4.00   2.17   0.31   0.00   0.00   0.00   0.00   0.00      0      0      0       0      41
 1991 274    50    47   11.0      3   1.00    636     18      0   1104    654      0    0.0  0.000      0      0  0.000  0.000  0.022  0.000   3.46   0.00   0.00      0      0    156.6   0.00   0.00   0.52   1.90   4.00   4.00   2.40   0.41   0.00   0.00   0.00   0.00   0.00      0      0      0       0      47
 1991 275    51    48   11.0      3   1.03    662     19      0   1202    681      0    0.0  0.000      0      0  0.000  0.000  0.022  0.000   3.45   0.00   0.00      0      0    155.4   0.00   0.00   0.53   2.06   4.00   4.00   2.66   0.53   0.00   0.00   0.00   0.00   0.00      0      0      0       0      52
 1991 276    52    49   11.0      3   1.01    690     20      0   1313    710      0    0.0  0.000      0      0  0.000  0.000  0.022  0.000   3.43   0.00   0.00      0      0    147.1   0.00   0.00   0.53   2.25   4.00   4.00   2.97   0.68   0.00   0.00   0.00   0.00   0.00      0      0      0       0      58
 1991 277    53    50   11.0      3   1.06    728     23      0   1401    751      0    0.0  0.000      0      0  0.000  0.000  0.022  0.000   3.40   0.00   0.00      0      0    146.0   0.00   0.00   0.54   2.26   4.00   4.00   3.21   0.81   0.00   0.00   0.00   0.00   0.00      0      0      0       0      65
 1991 278    54    51   11.0      3   1.09    754     24      0   1409    778      0    0.0  0.000      0      0  0.000  0.000  0.022  0.000   3.45   0.00   0.00      0      0    145.2   0.00   0.00   0.55   2.26   4.00   4.00   3.24   0.83   0.00   0.00   0.00   0.00   0.00      0      0      0       0      72
 1991 279    55    52   11.0      3   1.11    766     25      0   1436    791      0    0.0  0.000      0      0  0.000  0.000  0.022  0.085   3.44   0.00   0.00      0      0    144.6   0.00   0.00   0.55   2.24   4.00   4.00   3.30   0.88   0.00   0.00   0.00   0.00   0.00      0      0      0       0      79
 1991 280    56    53   12.0      3   1.08    781     26      0   1471    807      0    0.0  0.000      0      0  0.000  0.000  0.022  0.141   3.44   0.00   0.00      0      0    138.6   0.00   0.00   0.55   2.10   3.84   4.00   3.22   0.90   0.00   0.00   0.00   0.00   0.00      0      0      0       0      86
 1991 281    57    54   12.0      3   1.06    801     28      0   1562    829      0    0.0  0.000      0      0  0.000  0.000  0.022  0.261   3.40   0.00   0.00      0      0    132.3   0.00   0.00   0.56   2.03   3.93   4.00   3.38   1.05   0.00   0.00   0.00   0.00   0.00      0      0      0       0      93
 1991 282    58    55   12.0      3   1.12    849     32      0   1653    881      0    0.0  0.000      0      0  0.000  0.000  0.022  0.054   3.35   0.00   0.00      0      0    131.9   0.00   0.00   0.56   1.99   4.00   4.00   3.60   1.24   0.00   0.00   0.00   0.00   0.00      0      0      0       0     101
 1991 283    59    56   12.0      3   1.19    905     38      0   1768    943      0    0.0  0.000      0      0  0.000  0.000  0.022  0.009   3.33   0.00   0.00      0      0    131.3   0.00   0.00   0.57   1.97   4.00   4.00   3.93   1.50   0.00   0.00   0.00   0.00   0.00      0      0      0       0     109
 1991 284    60    57   12.0      3   1.27    975     47      0   1879   1022      0    0.0  0.000      0      0  0.000  0.000  0.022  0.002   3.30   0.00   0.00      0      0    130.7   0.00   0.00   0.58   1.97   4.00   4.00   4.00   1.80   0.00   0.00   0.00   0.00   0.00      0      0      0       0     118
 1991 285    61    58   13.0      3   1.40   1077     63      0   1977   1140      0    0.0  0.000      0      0  0.000  0.000  0.022  0.000   3.27   0.00   0.00      0      0    129.8   0.00   0.00   0.60   1.97   4.00   4.00   4.00   2.11   0.00   0.00   0.00   0.00   0.00      0      0      0       0     127
 1991 286    62    59   13.0      3   1.58   1228     96      0   2033   1324      0    0.0  0.000      0      0  0.000  0.000  0.022  0.000   3.21   0.00   0.00      0      0    128.5   0.00   0.00   0.62   1.97   4.00   4.00   4.00   2.34   0.00   0.00   0.00   0.00   0.00      0      0      0       0     137
 1991 287    63    60   13.0      3   1.72   1354    132      0   2032   1486      0    0.0  0.000      0      0  0.000  0.000  0.022  0.000   3.16   0.00   0.00      0      0    127.2   0.00   0.00   0.64   1.94   3.95   3.98   3.97   2.33   0.00   0.00   0.00   0.00   0.00      0      0      0       0     148
 1991 288    64    61   14.0      3   1.81   1435    158      0   2027   1593      0    0.0  0.000      0      0  0.000  0.000  0.022  0.000   3.11   0.00   0.00      0      0    126.4   0.00   0.00   0.66   1.90   3.87   3.91   3.91   2.31   0.01   0.00   0.00   0.00   0.00      0      0      0       0     158
 1991 289    65    62   14.0      3   1.87   1493    179      0   2039   1671      0    0.0  0.000      0      0  0.000  0.000  0.022  0.001   3.05   0.00   0.00      0      0    125.6   0.00   0.00   0.66   1.78   3.62   3.71   3.72   2.24   0.03   0.00   0.00   0.00   0.00      0      0      0       0     168
 1991 290    66    63   14.0      3   1.90   1515    187      0   2113   1702      0    0.0  0.000      0      0  0.000  0.000  0.022  0.415   3.09   0.00   0.00      0      0    125.1   0.00   0.00   0.67   1.72   3.48   3.79   3.83   2.48   0.11   0.00   0.00   0.00   0.00      0      0      0       0     178
 1991 291    67    64   14.0      3   1.95   1569    209      0   2282   1779      0    0.0  0.000      0      0  0.000  0.000  0.022  0.150   3.06   0.00   0.00      0      0    124.4   0.00   0.00   0.68   1.73   3.43   4.00   4.00   3.10   0.37   0.00   0.00   0.00   0.00      0      0      0       0     189
 1991 292    68    65   15.0      3   2.05   1656    248      0   2428   1904      0    0.0  0.000      0      0  0.000  0.000  0.022  0.019   3.03   0.00   0.00      0      0    123.6   0.00   0.00   0.69   1.77   3.43   4.00   4.00   3.68   0.67   0.00   0.00   0.00   0.00      0      0      0       0     200
 1991 293    69    66   15.0      3   2.15   1751    296      0   2568   2047      0    0.0  0.000      0      0  0.000  0.000  0.022  0.009   2.99   0.00   0.00      0      0    122.7   0.00   0.00   0.70   1.82   3.46   4.00   4.00   4.00   1.03   0.00   0.00   0.00   0.00      0      0      0       0     212
 1991 294    70    67   15.0      3   2.28   1876    367      0   2668   2243      0    0.0  0.000      0      0  0.000  0.000  0.022  0.008   2.89   0.00   0.00      0      0    121.6   0.00   0.00   0.72   1.87   3.49   4.00   4.00   4.00   1.34   0.00   0.00   0.00   0.00      0      0      0       0     225
 1991 295    71    68   16.0      3   2.44   2030    469      0   2704   2499      0    0.0  0.000      0      0  0.000  0.000  0.022  0.004   2.73   0.00   0.00      0      0    120.3   0.00   0.00   0.73   1.90   3.50   4.00   4.00   4.00   1.49   0.00   0.00   0.00   0.00      0      0      0       0     238
 1991 296    72    69   16.0      3   2.52   2103    521      0   2703   2623      0    0.0  0.000      0      0  0.000  0.000  0.022  0.002   2.72   0.00   0.00      0      0    119.6   0.00   0.00   0.74   1.90   3.50   3.99   3.99   4.00   1.53   0.00   0.00   0.00   0.00      0      0      0       0     252
 1991 297    73    70   16.0      3   2.57   2156    561      0   2710   2717      0    0.0  0.000      0      0  0.000  0.000  0.023  0.000   2.72   0.00   0.00      0      0    119.0   0.00   0.00   0.75   1.92   3.50   3.99   3.98   4.00   1.60   0.00   0.00   0.00   0.00      0      0      0       0     265
 1991 298    74    71   16.0      3   2.64   2228    619      0   2703   2847      0    0.0  0.000      0      0  0.000  0.000  0.023  0.000   2.67   0.00   0.00      0      0    118.3   0.00   0.00   0.76   1.92   3.50   3.98   3.96   3.99   1.62   0.00   0.00   0.00   0.00      0      0      0       0     279
 1991 299    75    72   17.0      3   2.75   2347    724      0   2787   3071      0    0.0  0.000      0      0  0.000  0.000  0.023  0.000   2.53   0.00   0.00      0      0    117.3   0.00   0.00   0.78   2.08   3.65   4.00   4.00   4.00   1.99   0.00   0.00   0.00   0.00      0      0      0       0     292
 1991 300    76    73   17.0      3   2.85   2451    824      0   2784   3274      0    0.0  0.000      0      0  0.000  0.000  0.024  0.000   2.42   0.00   0.00      0      0    116.5   0.00   0.00   0.79   2.10   3.66   4.00   3.99   3.99   2.02   0.00   0.00   0.00   0.00      0      0      0       0     306
 1991 301    77    74   17.0      3   2.91   2516    891      0   2778   3408      0    0.0  0.000      0      0  0.000  0.000  0.030  0.000   2.36   0.00   0.00      0      0    115.7   0.00   0.00   0.80   2.10   3.66   4.00   3.98   3.98   2.04   0.00   0.00   0.00   0.00      0      0      0       0     320
 1991 302    78    75   17.0      3   2.97   2580    961      0   2771   3541      0    0.0  0.000      0      0  0.000  0.000  0.035  0.000   2.30   0.00   0.00      0      0    114.9   0.00   0.00   0.81   2.11   3.66   4.00   3.97   3.96   2.05   0.00   0.00   0.00   0.00      0      0      0       0     334
 1991 303    79    76   17.0      3   3.04   2663   1014      0   2765   3677      0    0.0  0.000      0      0  0.000  0.000  0.038  0.000   2.24   0.00   0.00      0      0    114.0   0.00   0.00   0.82   2.13   3.67   4.00   3.96   3.95   2.05   0.00   0.00   0.00   0.00      0      0      0       0     348
 1991 304    80    77   18.0      3   3.09   2730   1082      0   2759   3812      0    0.0  0.000      0      0  0.000  0.000  0.041  0.000   2.18   0.00   0.00      0      0    113.2   0.00   0.00   0.83   2.15   3.68   4.00   3.95   3.94   2.04   0.00   0.00   0.00   0.00      0      0      0       0     362
 1991 305    81    78   18.0      3   3.19   2844   1231      0   2780   4075      0    0.0  0.000      0      0  0.000  0.000  0.043  0.012   2.06   0.00   0.00      0      0    112.1   0.00   0.00   0.84   2.27   3.80   4.00   3.99   3.98   2.07   0.00   0.00   0.00   0.00      0      0      0       0     376
 1991 306    82    79   18.0      3   3.26   2934   1368      0   2891   4303      0    0.0  0.000      0      0  0.000  0.000  0.047  0.000   1.97   0.00   0.00      0      0    111.2   0.00   0.00   0.85   2.75   4.00   4.00   4.00   4.00   2.19   0.00   0.00   0.00   0.00      0      0      0       0     390
 1991 307    83    80   18.0      3   3.32   3017   1509      0   2958   4527      0    0.0  0.000      0      0  0.000  0.000  0.056  0.000   1.88   0.00   0.00      0      0    110.1   0.00   0.00   0.86   3.05   4.00   4.00   4.00   4.00   2.26   0.00   0.00   0.00   0.00      0      0      0       0     404
 1991 308    84    81   19.0      3   3.37   3095   1657      0   3089   4752      0    0.0  0.000      0      0  0.000  0.000  0.063  0.000   1.81   0.00   0.00      0      0    109.0   0.00   0.00   0.87   3.60   4.00   4.00   4.00   4.00   2.41   0.00   0.00   0.00   0.00      0      0      0       0     419
 1991 309    85    82   19.0      3   3.42   3173   1816      0   3148   4989      0    0.0  0.000      0      0  0.000  0.000  0.070  0.000   1.73   0.00   0.00      0      0    107.8   0.00   0.00   0.89   3.86   4.00   4.00   4.00   4.00   2.49   0.00   0.00   0.00   0.00      0      0      0       0     434
 1991 310    86    83   19.0      3   3.45   3232   1948      0   3143   5180      0    0.0  0.000      0      0  0.000  0.000  0.077  0.000   1.68   0.00   0.00      0      0    106.6   0.00   0.00   0.90   3.88   4.00   4.00   4.00   3.99   2.49   0.00   0.00   0.00   0.00      0      0      0       0     450
 1991 311    87    84   20.0      3   3.47   3289   2083      0   3226   5372      0    0.0  0.000      0      0  0.000  0.000  0.085  0.000   1.63   0.00   0.00      0      0    105.4   0.00   0.00   0.91   4.00   4.00   4.00   4.00   4.00   2.60   0.00   0.00   0.00   0.00      0      0      0       0     466
 1991 312    88    85   20.0      3   3.47   3335   2199      0   3310   5533      0    0.0  0.000      0      0  0.000  0.000  0.091  0.000   1.59   0.00   0.00      0      0    104.1   0.00   0.00   0.92   4.00   4.00   4.00   4.00   4.00   2.67   0.26   0.00   0.00   0.00      0      0      0       0     482
 1991 313    89    86   20.0      3   3.47   3377   2307      0   3463   5684      0    0.0  0.000      0      0  0.000  0.000  0.096  0.000   1.57   0.00   0.00      0      0    102.8   0.00   0.00   0.93   4.00   4.00   4.00   4.00   4.00   2.80   0.84   0.00   0.00   0.00      0      0      0       0     498
 1991 314    90    87   20.0      3   3.48   3426   2440      0   3512   5867      0    0.0  0.000      0      0  0.000  0.000  0.097  0.000   1.55   0.00   0.00      0      0    101.5   0.00   0.00   0.94   4.00   4.00   4.00   4.00   4.00   2.84   1.09   0.00   0.00   0.00      0      0      0       0     516
[...]
 1992 325   101    98   21.0      3   3.43   3870   2726      0   5347   6596      0    0.0  0.000      0      0  0.000  0.000  0.102  0.000   1.49   0.00   0.00      0      0     88.7   0.00   0.00   0.95   4.00   4.00   4.00   4.00   4.00   3.51   1.52   0.00   0.00   0.00      0      0      0       0     701
 1992 326   102    99   21.0      3   3.42   3907   2828      0   5328   6735      0    0.0  0.000      0      0  0.000  0.000  0.106  0.000   1.47   0.00   0.00      0      0     87.6   0.00   0.00   0.96   4.00   4.00   4.00   3.99   3.99   3.50   1.53   0.00   0.00   0.00      0      0      0       0     728
 1992 327   103   100   21.0      3   3.40   3935   2908      0   5474   6843      0    0.0  0.000      0      0  0.000  0.000  0.112  0.000   1.45   0.00   0.00      0      0     86.4   0.00   0.00   0.97   4.00   4.00   4.00   4.00   4.00   3.65   1.90   0.00   0.00   0.00      0      0      0       0     755
 1992 328   104   101   22.0      3   3.37   3958   2976      0   5595   6934      0    0.0  0.000      0      0  0.000  0.000  0.115  0.000   1.44   0.00   0.00      0      0     85.2   0.00   0.00   0.97   4.00   4.00   4.00   4.00   4.00   3.78   2.16   0.00   0.00   0.00      0      0      0       0     782
 1992 329   105   102   22.0      3   3.37   4002   3102      0   5693   7104      0    0.0  0.000      0      0  0.000  0.000  0.115  0.000   1.42   0.00   0.00      0      0     84.1   0.00   0.00   0.98   4.00   4.00   4.00   4.00   4.00   3.89   2.35   0.00   0.00   0.00      0      0      0       0     810
 1992 330   106   103   22.0      3   3.36   4050   3241      0   5762   7291      0    0.0  0.000      0      0  0.000  0.000  0.115  0.000   1.39   0.00   0.00      0      0     83.0   0.00   0.00   1.00   4.00   4.00   4.00   4.00   4.00   3.97   2.46   0.00   0.00   0.00      0      0      0       0     839
 1992 331   107   104   22.0      3   3.36   4100   3385      0   5803   7485      0    0.0  0.000      0      0  0.000  0.000  0.117  0.000   1.36   0.00   0.00      0      0     81.9   0.00   0.00   1.01   4.00   4.00   4.00   4.00   4.00   4.00   2.50   0.00   0.00   0.00      0      0      0       0     867
 1992 332   108   105   22.0      3   3.35   4149   3525      0   5941   7674      0    0.0  0.000      0      0  0.000  0.000  0.121  0.000   1.34   0.00   0.00      0      0     80.9   0.00   0.00   1.02   4.00   4.00   4.00   4.00   4.00   4.00   2.58   0.00   0.00   0.00      0      0      0       0     896
 1992 333   109   106   22.0      3   3.35   4200   3671      0   5995   7870      0    0.0  0.000      0      0  0.000  0.000  0.124  0.000   1.31   0.00   0.00      0      0     79.8   0.00   0.00   1.03   4.00   4.00   4.00   4.00   4.00   4.00   2.61   0.00   0.00   0.00      0      0      0       0     926
 1992 334   110   107   22.0      3   3.35   4262   3846      0   6017   8107      0    0.0  0.000      0      0  0.000  0.000  0.127  0.000   1.28   0.00   0.00      0      0     78.7   0.00   0.00   1.05   4.00   4.00   4.00   4.00   4.00   4.00   2.63   0.00   0.00   0.00      0      0      0       0     956
 1992 335   111   108   22.0      4   3.30   4219   3267      0   6065   8289      0    0.0  0.000    802      0  0.000  0.000  0.130  0.000   1.39   0.00   0.10      0    802     78.2   0.00   0.00   1.06   4.00   4.00   4.00   4.00   4.00   4.00   2.68   0.00   0.00   0.00      0      0      0       0     986
 1992 336   112   109   22.0      4   3.24   4175   3312      0   6208   8401      0    0.0  0.000    914      0  0.000  0.000  0.134  0.000   1.40   0.00   0.11      0    914     77.7   0.00   0.00   1.07   4.00   4.00   4.00   4.00   4.00   4.00   2.80   0.00   0.00   0.00      0      0      0       0    1016
 1992 337   113   110   22.0      4   3.20   4128   3353      0   6373   8496      0    0.0  0.000   1015      0  0.000  0.000  0.104  0.000   1.41   0.00   0.12      0   1015     77.6   0.00   0.00   1.08   4.00   4.00   4.00   4.00   4.00   4.00   2.94   0.00   0.00   0.00      0      0      0       0    1048
 1992 338   114   111   22.0      4   3.16   4079   3402      0   6488   8618      0    0.0  0.000   1137      0  0.000  0.000  0.099  0.000   1.42   0.00   0.13      0   1137     77.5   0.00   0.00   1.09   4.00   4.00   4.00   4.00   4.00   4.00   3.05   0.00   0.00   0.00      0      0      0       0    1079
 1992 339   115   112   22.0      4   3.13   4028   3464      0   6615   8787      0    0.0  0.000   1294      0  0.000  0.000  0.093  0.000   1.42   0.00   0.15      0   1294     77.6   0.00   0.00   1.10   4.00   4.00   4.00   4.00   4.00   4.00   3.15   0.09   0.00   0.00      0      0      0       0    1112
 1992 340   116   113   22.0      4   3.09   3974   3527      0   6640   8951      0    0.0  0.000   1450      0  0.000  0.000  0.088  0.000   1.43   0.00   0.16      0   1450     77.8   0.00   0.00   1.11   4.00   4.00   4.00   4.00   4.00   4.00   3.18   0.14   0.00   0.00      0      0      0       0    1145
 1992 341   117   114   22.0      4   3.06   3916   3606      0   6694   9172      0    0.0  0.000   1649      0  0.000  0.000  0.082  0.000   1.43   0.00   0.18      0   1649     78.1   0.00   0.00   1.12   4.00   4.00   4.00   4.00   4.00   4.00   3.23   0.24   0.00   0.00      0      0      0       0    1178
 1992 342   118   115   22.0      4   3.03   3856   3670      0   6758   9336      0    0.0  0.000   1809      0  0.000  0.000  0.078  0.000   1.43   0.00   0.19      0   1809     78.6   0.00   0.00   1.13   4.00   4.00   4.00   4.00   4.00   4.00   3.28   0.36   0.00   0.00      0      0      0       0    1212
 1992 343   119   116   22.0      4   3.00   3793   3737      0   6835   9507      0    0.0  0.000   1977      0  0.000  0.000  0.074  0.000   1.44   0.00   0.21      0   1977     79.1   0.00   0.00   1.14   4.00   4.00   4.00   4.00   4.00   4.00   3.34   0.51   0.00   0.00      0      0      0       0    1245
 1992 344   120   117   22.0      4   2.98   3727   3807      0   6870   9684      0    0.0  0.000   2150      0  0.000  0.000  0.069  0.000   1.45   0.00   0.22      0   2150     79.8   0.00   0.00   1.15   4.00   4.00   4.00   4.00   4.00   4.00   3.37   0.60   0.00   0.00      0      0      0       0    1280
 1992 345   121   118   22.0      4   2.95   3658   3883      0   6908   9881      0    0.0  0.000   2340      0  0.000  0.000  0.064  0.000   1.45   0.00   0.24      0   2340     80.7   0.00   0.00   1.16   4.00   4.00   4.00   4.00   4.00   4.00   3.41   0.70   0.00   0.00      0      0      0       0    1314
 1992 346   122   119   22.0      4   2.93   3587   3951      0   6964  10050      0    0.0  0.000   2512      0  0.000  0.000  0.060  0.000   1.46   0.00   0.25      0   2512     81.7   0.00   0.00   1.17   4.00   4.00   4.00   4.00   4.00   4.00   3.45   0.81   0.00   0.00      0      0      0       0    1348
 1992 347   123   120   22.0      4   2.91   3512   4017      0   7084  10204      0    0.0  0.000   2675      0  0.000  0.000  0.056  0.000   1.47   0.00   0.26      0   2675     82.8   0.00   0.00   1.17   4.00   4.00   4.00   4.00   4.00   4.00   3.55   1.00   0.00   0.00      0      0      0       0    1383
 1992 348   124   121   22.0      5   2.87   3512   4017    281   7113  10485   3557    7.9  0.027   2956      7  0.000  0.000  0.100  0.000   1.42   9.49   0.28      0   2956     81.8   0.00   0.00   1.18   4.00   4.00   4.00   4.00   4.00   4.00   3.58   1.06   0.00   0.00      0      0      0       0    1419
 1992 349   125   122   22.0      5   2.83   3512   4017    538   7136  10742   3557   15.1  0.050   3213      7  0.000  0.000  0.110  0.000   1.38  16.73   0.30      0   3213     80.7   0.00   0.00   1.19   4.00   4.00   4.00   4.00   4.00   4.00   3.60   1.11   0.00   0.00      0      0      0       0    1454
 1992 350   126   123   22.0      5   2.79   3512   4017    728   7181  10933   3557   20.5  0.067   3404      7  0.000  0.000  0.117  0.000   1.35  21.40   0.31      0   3404     79.5   0.00   0.00   1.20   4.00   4.00   4.00   4.00   4.00   4.00   3.64   1.17   0.00   0.00      0      0      0       0    1490
 1992 351   127   124   22.0      5   2.75   3512   4017    966   7190  11170   3557   27.2  0.086   3641      7  0.000  0.000  0.120  0.000   1.32  26.53   0.33      0   3641     78.3   0.00   0.00   1.21   4.00   4.00   4.00   4.00   4.00   4.00   3.66   1.19   0.00   0.00      0      0      0       0    1526
 1992 352   128   125   22.0      5   2.71   3512   4017   1233   7168  11437   3557   34.7  0.108   3908      7  0.000  0.000  0.124  0.000   1.28  31.54   0.34      0   3908     77.1   0.00   0.00   1.22   4.00   4.00   4.00   4.00   4.00   3.99   3.65   1.18   0.00   0.00      0      0      0       0    1562
 1992 353   129   126   22.0      5   2.66   3512   4017   1498   7188  11703   3557   42.1  0.128   4174      7  0.000  0.000  0.131  0.000   1.24  35.90   0.36      0   4174     75.8   0.00   0.00   1.23   4.00   4.00   4.00   4.00   4.00   4.00   3.68   1.20   0.00   0.00      0      0      0       0    1598
 1992 354   130   127   22.0      5   2.62   3512   4017   1765   7159  11970   3557   49.6  0.147   4440      7  0.000  0.000  0.137  0.000   1.20  39.75   0.37      0   4440     74.5   0.00   0.00   1.24   4.00   4.00   4.00   3.99   3.99   3.99   3.66   1.19   0.00   0.00      0      0      0       0    1634
 1992 355   131   128   22.0      5   2.57   3512   4017   2032   7185  12236   3557   57.1  0.166   4707      7  0.000  0.000  0.143  0.000   1.17  43.17   0.38      0   4707     73.2   0.00   0.00   1.25   4.00   4.00   4.00   4.00   4.00   4.00   3.69   1.21   0.00   0.00      0      0      0       0    1669
 1992 356   132   129   22.0      5   2.52   3512   4017   2299   7184  12503   3557   64.6  0.184   4974      7  0.000  0.000  0.149  0.000   1.13  46.22   0.40      0   4974     71.8   0.00   0.00   1.25   4.00   4.00   4.00   4.00   4.00   4.00   3.70   1.22   0.00   0.00      0      0      0       0    1705
 1992 357   133   130   22.0      5   2.47   3512   3926   2566   7148  12679   3557   72.1  0.202   5241      7  0.000  0.000  0.156  0.000   1.10  48.95   0.41      0   5241     70.4   0.00   0.00   1.25   4.00   4.00   4.00   4.00   4.00   4.00   3.70   1.22   0.00   0.00      0      0      0       0    1741
 1992 358   134   131   22.0      5   2.42   3512   3832   2832   7112  12853   3557   79.6  0.220   5508      7  0.000  0.000  0.163  0.000   1.08  51.43   0.43      0   5508     69.0   0.00   0.00   1.25   4.00   4.00   4.00   4.00   4.00   4.00   3.70   1.22   0.00   0.00      0      0      0       0    1777
 1992 359   135   132   22.0      5   2.37   3512   3912   3099   7116  13199   3557   87.1  0.235   5774      7  0.000  0.000  0.166  0.000   1.11  53.67   0.44      0   5774     67.5   0.00   0.00   1.25   4.00   3.99   3.99   3.99   3.98   3.98   3.68   1.21   0.00   0.00      0      0      0       0    1813
 1992 360   136   133   22.0      5   2.33   3512   3972   3339   7111  13499   3557   93.9  0.247   6014      7  0.000  0.000  0.141  0.000   1.09  55.52   0.45      0   6014     66.3   0.00   0.00   1.25   4.00   3.99   3.99   3.97   3.97   3.97   3.67   1.21   0.00   0.00      0      0      0       0    1848
 1992 361   137   134   22.0      5   2.29   3512   4017   3558   7143  13762   3557  100.0  0.259   6233      7  0.000  0.000  0.144  0.000   1.06  57.08   0.45      0   6233     65.2   0.00   0.00   1.25   4.00   4.00   4.00   3.98   3.98   3.97   3.67   1.21   0.00   0.00      0      0      0       0    1884
 1992 362   138   135   22.0      5   2.25   3512   4017   3777   7171  13981   3557  106.2  0.270   6452      7  0.000  0.000  0.150  0.000   1.04  58.54   0.46      0   6452     63.9   0.00   0.00   1.25   4.00   4.00   4.00   4.00   4.00   4.00   3.70   1.23   0.00   0.00      0      0      0       0    1919
 1992 363   139   136   22.0      5   2.20   3512   4017   4044   7182  14248   3557  113.7  0.284   6719      7  0.000  0.000  0.157  0.000   1.00  60.18   0.47      0   6719     62.7   0.00   0.00   1.25   4.00   4.00   4.00   4.00   4.00   4.00   3.71   1.24   0.00   0.00      0      0      0       0    1955
 1992 364   140   137   22.0      5   2.16   3512   3885   4310   7146  14384   3557  121.2  0.300   6986      7  0.000  0.000  0.166  0.000   0.98  61.70   0.49      0   6986     61.4   0.00   0.00   1.25   4.00   4.00   4.00   4.00   4.00   4.00   3.71   1.24   0.00   0.00      0      0      0       0    1991
 1992 365   141   138   22.0      5   2.11   3512   3774   4554   7111  14517   3557  128.0  0.314   7230      7  0.000  0.000  0.176  0.000   0.97  63.00   0.50      0   7230     60.0   0.00   0.00   1.25   4.00   4.00   4.00   4.00   4.00   4.00   3.71   1.24   0.00   0.00      0      0      0       0    2027
 1992 366   142   139   22.0      5   2.06   3512   3700   4761   7075  14648   3557  133.8  0.325   7436      7  0.000  0.000  0.177  0.000   0.95  64.02   0.51      0   7436     58.7   0.00   0.00   1.25   4.00   4.00   4.00   4.00   4.00   4.00   3.71   1.24   0.00   0.00      0      0      0       0    2062
 1993 001   143   140   22.0      5   2.02   3512   3609   4982   7040  14779   3557  140.1  0.337   7657      7  0.000  0.000  0.178  0.000   0.93  65.06   0.52      0   7657     57.4   0.00   0.00   1.25   4.00   4.00   4.00   4.00   4.00   4.00   3.71   1.24   0.00   0.00      0      0      0       0    2098
 1993 002   144   141   22.0      5   1.97   3512   3512   5207   7004  14907   3557  146.4  0.349   7883      7  0.000  0.000  0.183  0.292   0.91  66.06   0.53      0   7883     56.1   0.00   0.00   1.25   4.00   4.00   4.00   4.00   4.00   4.00   3.71   1.24   0.00   0.00      0      0      0       0    2133
 1993 003   145   142   22.0      5   1.92   3512   3409   5437   6969  15034   3557  152.9  0.362   8112      7  0.000  0.000  0.188  0.578   0.89  67.02   0.54      0   8112     54.8   0.00   0.00   1.25   4.00   4.00   4.00   4.00   4.00   4.00   3.71   1.24   0.00   0.00      0      0      0       0    2168
 1993 004   146   143   22.0      5   1.88   3512   3347   5704   6935  15239   3557  160.4  0.374   8379      7  0.000  0.000  0.192  0.551   0.86  68.07   0.55      0   8379     53.4   0.00   0.00   1.25   4.00   4.00   4.00   4.00   4.00   4.00   3.71   1.24   0.00   0.00      0      0      0       0    2203
 1993 005   147   144   22.0      5   1.83   3512   3373   5971   6913  15531   3557  167.9  0.384   8646      7  0.000  0.000  0.197  0.269   0.82  69.06   0.56      0   8646     52.1   0.00   0.00   1.25   3.95   3.95   3.95   3.92   3.92   3.92   3.64   1.22   0.00   0.00      0      0      0       0    2238
 1993 006   148   145   22.0      5   1.78   3512   3434   6238   6909  15860   3557  175.4  0.393   8913      7  0.000  0.000  0.217  0.069   0.78  69.98   0.56      0   8913     50.8   0.00   0.00   1.25   4.00   4.00   4.00   3.95   3.94   3.93   3.64   1.22   0.00   0.00      0      0      0       0    2272
 1993 007   149   146   22.0      5   1.73   3512   3321   6504   6875  16013   3557  182.9  0.406   9180      7  0.000  0.000  0.257  0.035   0.76  70.86   0.57      0   9180     49.4   0.00   0.00   1.25   4.00   4.00   4.00   3.95   3.94   3.93   3.64   1.22   0.00   0.00      0      0      0       0    2307
 1993 008   150   147   22.0      5   1.68   3512   3283   6771   6840  16242   3557  190.4  0.417   9446      7  0.000  0.000  0.304  0.193   0.74  71.68   0.58      0   9446     47.9   0.00   0.00   1.25   4.00   4.00   4.00   3.95   3.94   3.93   3.64   1.22   0.00   0.00      0      0      0       0    2341
 1993 009   151   148   22.0      5   1.63   3512   3329   7015   6829  16532   3557  197.2  0.424   9690      7  0.000  0.000  0.321  0.094   0.70  72.39   0.59      0   9690     46.5   0.00   0.00   1.25   4.00   4.00   4.00   3.96   3.95   3.94   3.64   1.23   0.00   0.00      0      0      0       0    2375
 1993 010   152   149   22.0      5   1.58   3512   3355   7282   6808  16824   3557  204.7  0.433   9957      7  0.000  0.000  0.349  0.035   0.68  73.13   0.59      0   9957     45.0   0.00   0.00   1.25   4.00   4.00   4.00   3.96   3.95   3.93   3.63   1.23   0.00   0.00      0      0      0       0    2409
 1993 011   153   150   22.0      5   1.53   3512   3371   7549   6782  17108   3557  212.2  0.441  10224      7  0.000  0.000  0.388  0.000   0.65  73.83   0.60      0  10224     43.6   0.00   0.00   1.25   4.00   4.00   4.00   3.95   3.94   3.92   3.62   1.22   0.00   0.00      0      0      0       0    2443
 1993 012   154   151   22.0      5   1.48   3512   3375   7816   6750  17378   3557  219.7  0.450  10491      7  0.000  0.000  0.421  0.000   0.63  74.50   0.60      0  10491     42.1   0.00   0.00   1.25   3.99   3.99   3.99   3.94   3.92   3.90   3.60   1.22   0.00   0.00      0      0      0       0    2477
 1993 013   155   152   22.0      5   1.43   3512   3297   8082   6716  17567   3557  227.2  0.460  10758      7  0.000  0.000  0.450  0.000   0.62  75.13   0.61      0  10758     40.6   0.00   0.00   1.25   3.99   3.99   3.99   3.94   3.92   3.90   3.60   1.22   0.00   0.00      0      0      0       0    2511
 1993 014   156   153   22.0      5   1.37   3512   3165   8349   6683  17702   3557  234.7  0.472  11024      7  0.000  0.000  0.479  0.000   0.61  75.73   0.62      0  11024     39.1   0.00   0.00   1.25   3.99   3.99   3.99   3.94   3.92   3.90   3.60   1.22   0.00   0.00      0      0      0       0    2545
 1993 015   157   154   22.0      5   1.32   3512   3098   8616   6649  17901   3557  242.2  0.481  11291      7  0.000  0.000  0.492  0.000   0.60  76.31   0.63      0  11291     37.7   0.00   0.00   1.25   3.99   3.99   3.99   3.94   3.92   3.90   3.60   1.22   0.00   0.00      0      0      0       0    2578
 1993 016   158   155   22.0      5   1.27   3512   2956   8883   6616  18027   3557  249.7  0.493  11558      7  0.000  0.000  0.498  0.000   0.59  76.85   0.64      0  11558     36.2   0.00   0.00   1.25   3.99   3.99   3.99   3.94   3.92   3.90   3.60   1.22   0.00   0.00      0      0      0       0    2611
 1993 017   159   156   22.0      5   1.22   3512   2930   9094   6583  18212   3557  255.7  0.499  11769      7  0.000  0.000  0.528  0.067   0.58  77.27   0.65      0  11769     34.8   0.00   0.00   1.25   3.99   3.99   3.99   3.94   3.92   3.90   3.60   1.22   0.00   0.00      0      0      0       0    2644
 1993 018   160   157   22.0      5   1.18   3512   2920   9269   6550  18376   3557  260.6  0.504  11944      7  0.000  0.000  0.523  0.016   0.57  77.60   0.65      0  11944     33.5   0.00   0.00   1.25   3.99   3.99   3.99   3.94   3.92   3.90   3.60   1.22   0.00   0.00      0      0      0       0    2677
 1993 019   161   158   22.0      5   1.18   3512   2920   9269   6550  18376   3557  260.6  0.504  11944      7  0.000  0.000  0.523  0.016   0.57  77.60   0.65      0  11944     33.5   0.00   0.00   1.25   3.99   3.99   3.99   3.94   3.92   3.90   3.60   1.22   0.00   0.00      0      0      0       0    2677
 1993 020   162   159   22.0      5   1.18   3512   2920   9269   6550  18376   3557  260.6  0.504  11944      7  0.000  0.000  0.523  0.016   0.57  77.60   0.65      0  11944     33.5   0.00   0.00   1.25   3.99   3.99   3.99   3.94   3.92   3.90   3.60   1.22   0.00   0.00      0      0      0       0    2677
 1993 021   163   160   22.0      5   1.18   3512   2920   9269   6550  18376   3557  260.6  0.504  11944      7  0.000  0.000  0.523  0.016   0.57  77.60   0.65      0  11944     33.5   0.00   0.00   1.25   3.99   3.99   3.99   3.94   3.92   3.90   3.60   1.22   0.00   0.00      0      0      0       0    2677
