*PLANT N OUTPUT FILE

*DSSAT Cropping System Model Ver. 4.0.2.000               Aug 15, 2016; 16:22:36

*RUN   1        : UYMZ                    
 MODEL          : MZCER040 - Maize           
 EXPERIMENT     : UYMZ0213 MZ    late to create DSS                             
 TREATMENT  1   : UYMZ                    

@YEAR DOY   DAS   DAP   CNAD   GNAD   VNAD   GN%D   VN%D   NUPC   LNAD   SNAD   LN%D   SN%D   RN%D   SNN0C   SNN1C
 1990 227     3     0    0.0    0.0    0.0   0.00   0.00    0.0    0.0    0.0    0.0   0.00   0.00    0.00    0.00
 1990 228     4     1    0.0    0.0    0.0   0.00   0.00    0.0    0.0    0.0    0.0   0.00   0.00    0.00    0.00
 1990 229     5     2    0.0    0.0    0.0   0.00   0.00    0.0    0.0    0.0    0.0   0.00   0.00    0.00    0.00
 1990 230     6     3    0.0    0.0    0.0   0.00   0.00    0.0    0.0    0.0    0.0   0.00   0.00    0.00    0.00
 1990 231     7     4    0.0    0.0    0.0   0.00   0.00    0.0    0.0    0.0    0.0   0.00   0.00    0.00    0.00
 1990 232     8     5    0.0    0.0    0.0   0.00   0.00    0.0    0.0    0.0    0.0   0.00   0.00    0.00    0.00
 1990 233     9     6    0.0    0.0    0.0   0.00   0.00    0.0    0.0    0.0    0.0   0.00   0.00    0.00    0.00
 1990 234    10     7    0.0    0.0    0.0   0.00   0.00    0.0    0.0    0.0    0.0   0.00   0.00    0.00    0.00
 1990 235    11     8    0.0    0.0    0.0   0.00   0.00    0.0    0.0    0.0    0.0   0.00   0.00    0.00    0.00
 1990 236    12     9    0.0    0.0    0.0   0.00   0.00    0.0    0.0    0.0    0.0   0.00   0.00    0.00    0.00
 1990 237    13    10    0.0    0.0    0.0   0.00   0.00    0.0    0.0    0.0    0.0   0.00   0.00    0.00    0.00
 1990 238    14    11    1.2    0.0    1.2   0.00   4.40    0.0    0.6    0.6    4.4   4.40   0.00    0.00    0.00
 1990 239    15    12    1.3    0.0    1.3   0.00   4.54    0.2    0.6    0.6    4.5   4.54   1.08    0.00    0.00
 1990 240    16    13    1.3    0.0    1.3   0.00   4.54    0.2    0.6    0.6    4.5   4.54   1.15    0.00    0.00
 1990 241    17    14    1.3    0.0    1.3   0.00   4.54    0.2    0.6    0.6    4.5   4.54   1.14    0.00    0.00
 1990 242    18    15    1.3    0.0    1.3   0.00   4.54    0.2    0.6    0.6    4.5   4.54   1.13    0.00    0.00
 1990 243    19    16    1.3    0.0    1.3   0.00   4.54    0.2    0.6    0.6    4.5   4.54   1.13    0.00    0.00
 1990 244    20    17    1.3    0.0    1.3   0.00   4.54    0.2    0.6    0.6    4.5   4.54   1.13    0.00    0.00
 1990 245    21    18    1.3    0.0    1.3   0.00   4.54    0.2    0.6    0.6    4.5   4.54   1.13    0.00    0.00
 1990 246    22    19    1.3    0.0    1.3   0.00   4.54    0.2    0.6    0.6    4.5   4.54   1.13    0.00    0.00
 1990 247    23    20    1.3    0.0    1.3   0.00   4.54    0.2    0.6    0.6    4.5   4.54   1.13    0.00    0.00
 1990 248    24    21    1.3    0.0    1.3   0.00   4.54    0.2    0.6    0.6    4.5   4.54   1.13    0.00    0.00
 1990 249    25    22    1.3    0.0    1.3   0.00   4.54    0.2    0.6    0.6    4.5   4.54   1.12    0.00    0.00
 1990 250    26    23    1.3    0.0    1.3   0.00   4.54    0.2    0.6    0.6    4.5   4.54   1.11    0.00    0.00
 1990 251    27    24    1.3    0.0    1.3   0.00   4.54    0.2    0.6    0.6    4.5   4.54   1.09    0.00    0.00
 1990 252    28    25    1.3    0.0    1.3   0.00   4.54    0.2    0.6    0.6    4.5   4.54   0.99    0.00    0.00
 1990 253    29    26    1.2    0.0    1.2   0.00   4.38    0.2    0.6    0.6    4.4   4.38   1.16    0.00    0.00
 1990 254    30    27    1.2    0.0    1.2   0.00   4.36    0.2    0.6    0.6    4.4   4.36   1.18    0.00    0.00
 1990 255    31    28    1.2    0.0    1.2   0.00   4.35    0.3    0.6    0.6    4.4   4.35   1.43    0.00    0.00
 1990 256    32    29    1.2    0.0    1.2   0.00   4.35    0.4    0.6    0.6    4.3   4.35   1.51    0.00    0.01
 1990 257    33    30    1.2    0.0    1.2   0.00   4.34    0.4    0.6    0.6    4.3   4.34   1.44    0.00    0.01
 1990 258    34    31    1.2    0.0    1.2   0.00   4.21    0.4    0.6    0.6    4.2   4.21   1.28    0.00    0.01
 1990 259    35    32    1.2    0.0    1.2   0.00   3.79    0.4    0.7    0.5    3.8   3.79   1.14    0.00    0.01
 1990 260    36    33    1.4    0.0    1.4   0.00   3.87    0.6    0.9    0.5    3.9   3.87   1.12    0.00    0.01
 1990 261    37    34    1.6    0.0    1.6   0.00   3.84    0.7    1.0    0.5    3.8   3.84   1.12    0.00    0.01
 1990 262    38    35    1.7    0.0    1.7   0.00   3.86    1.0    1.2    0.5    3.9   3.86   1.20    0.00    0.02
 1990 263    39    36    1.9    0.0    1.9   0.00   3.81    1.1    1.4    0.5    3.8   3.81   1.10    0.00    0.02
 1990 264    40    37    2.1    0.0    2.1   0.00   3.64    1.3    1.6    0.5    3.6   3.64   1.09    0.00    0.02
 1990 265    41    38    2.5    0.0    2.5   0.00   3.82    2.0    1.9    0.5    3.8   3.82   1.34    0.00    0.02
 1990 266    42    39    2.7    0.0    2.7   0.00   4.08    2.4    2.1    0.6    4.1   4.08   1.46    0.00    0.03
 1990 267    43    40    2.8    0.0    2.8   0.00   4.05    2.6    2.2    0.6    4.1   4.05   1.47    0.00    0.03
 1990 268    44    41    2.9    0.0    2.9   0.00   4.01    2.8    2.3    0.6    4.0   4.01   1.39    0.00    0.04
 1990 269    45    42    3.0    0.0    3.0   0.00   3.82    3.1    2.4    0.5    3.8   3.82   1.25    0.00    0.04
 1990 270    46    43    3.2    0.0    3.2   0.00   3.62    3.5    2.7    0.5    3.6   3.62   1.21    0.00    0.05
 1990 271    47    44    3.7    0.0    3.7   0.00   3.65    3.8    3.2    0.5    3.7   3.65   1.08    0.00    0.06
 1990 272    48    45    4.2    0.0    4.2   0.00   3.62    4.7    3.7    0.5    3.6   3.62   1.21    0.00    0.06
 1990 273    49    46    4.7    0.0    4.7   0.00   3.57    5.4    4.2    0.5    3.6   3.57   1.21    0.00    0.07
 1990 274    50    47    5.3    0.0    5.3   0.00   3.40    6.4    4.8    0.5    3.4   3.40   1.21    0.00    0.08
 1990 275    51    48    6.3    0.0    6.3   0.00   3.52    7.9    5.8    0.5    3.5   3.52   1.25    0.00    0.09
 1990 276    52    49    7.1    0.0    7.1   0.00   3.43    9.1    6.7    0.5    3.4   3.43   1.21    0.00    0.11
 1990 277    53    50    8.3    0.0    8.3   0.00   3.28   10.4    7.8    0.5    3.3   3.28   1.16    0.00    0.12
 1990 278    54    51    9.9    0.0    9.9   0.00   3.53   11.9    9.4    0.5    3.5   3.53   1.09    0.00    0.14
 1990 279    55    52   11.0    0.0   11.0   0.00   3.45   13.2   10.5    0.5    3.4   3.45   1.11    0.00    0.16
 1990 280    56    53   12.3    0.0   12.3   0.00   3.67   14.7   11.8    0.5    3.7   3.67   1.12    0.00    0.17
 1990 281    57    54   13.1    0.0   13.1   0.00   3.70   16.1   12.6    0.5    3.7   3.70   1.18    0.00    0.19
 1990 282    58    55   13.5    0.0   13.5   0.00   3.53   17.9   13.0    0.5    3.5   3.53   1.27    0.00    0.21
 1990 283    59    56   16.1    0.0   16.1   0.00   3.78   21.1   15.5    0.5    3.8   3.78   1.22    0.00    0.24
 1990 284    60    57   17.4    0.0   17.4   0.00   3.68   22.0   16.8    0.5    3.7   3.68   1.11    0.00    0.27
 1990 285    61    58   18.3    0.0   18.3   0.00   3.58   25.1   17.8    0.5    3.6   3.58   1.26    0.00    0.30
 1990 286    62    59   19.6    0.0   19.6   0.00   3.55   27.8   19.1    0.5    3.6   3.55   1.24    0.00    0.34
 1990 287    63    60   21.2    0.0   21.2   0.00   3.52   30.4   20.6    0.5    3.5   3.52   1.21    0.00    0.39
 1990 288    64    61   22.4    0.0   22.4   0.00   3.50   33.1   21.8    0.6    3.5   3.50   1.21    0.00    0.44
 1990 289    65    62   23.3    0.0   23.3   0.00   3.48   35.7   22.8    0.6    3.5   3.48   1.20    0.00    0.50
 1990 290    66    63   24.8    0.0   24.8   0.00   3.46   37.1   24.1    0.6    3.5   3.46   1.13    0.00    0.57
 1990 291    67    64   27.6    0.0   27.6   0.00   3.43   41.4   26.8    0.8    3.4   3.43   1.16    0.00    0.63
 1990 292    68    65   30.6    0.0   30.6   0.00   3.40   44.6   29.6    1.0    3.4   3.40   1.12    0.00    0.71
 1990 293    69    66   33.6    0.0   33.6   0.00   3.36   48.3   32.3    1.3    3.4   3.36   1.12    0.00    0.79
 1990 294    70    67   36.6    0.0   36.6   0.00   3.33   52.9   35.0    1.6    3.3   3.33   1.15    0.00    0.86
 1990 295    71    68   39.6    0.0   39.6   0.00   3.29   57.9   37.6    2.1    3.3   3.29   1.17    0.00    0.95
 1990 296    72    69   42.7    0.0   42.7   0.00   3.25   61.6   40.1    2.6    3.3   3.25   1.13    0.00    1.05
 1990 297    73    70   45.2    0.0   45.2   0.00   3.19   65.1   42.1    3.1    3.2   3.19   1.12    0.00    1.15
 1990 298    74    71   48.6    0.0   48.6   0.00   3.19   68.7   44.8    3.8    3.2   3.19   1.10    0.00    1.25
 1990 299    75    72   52.8    0.0   52.8   0.00   3.15   74.9   47.9    4.9    3.1   3.15   1.13    0.00    1.36
 1990 300    76    73   57.6    0.0   57.6   0.00   3.11   80.0   51.4    6.2    3.1   3.11   1.11    0.00    1.48
 1990 301    77    74   61.3    0.0   61.3   0.00   3.08   82.9   53.9    7.4    3.1   3.08   1.07    0.00    1.59
 1990 302    78    75   66.3    0.0   66.3   0.00   3.03   87.9   57.1    9.2    3.0   3.03   1.07    0.00    1.71
 1990 303    79    76   69.4    0.0   69.4   0.00   2.88   92.3   58.3   11.1    2.9   2.88   1.07    0.00    1.82
 1990 304    80    77   72.0    0.0   72.0   0.00   2.79   96.1   59.4   12.6    2.8   2.79   1.05    0.00    1.94
 1990 305    81    78   74.7    0.0   74.7   0.00   2.69   99.5   60.4   14.3    2.7   2.69   1.04    0.00    2.07
 1990 306    82    79   77.1    0.0   77.1   0.00   2.58  102.4   61.0   16.1    2.6   2.58   1.03    0.00    2.19
 1990 307    83    80   79.4    0.0   79.4   0.00   2.49  104.9   61.5   17.9    2.5   2.49   1.04    0.00    2.33
 1990 308    84    81   80.9    0.0   80.9   0.00   2.42  106.7   61.8   19.2    2.4   2.42   1.01    0.00    2.46
 1990 309    85    82   82.0    0.0   82.0   0.00   2.39  108.3   62.0   20.0    2.4   2.39   0.95    0.00    2.59
 1990 310    86    83   83.2    0.0   83.2   0.00   2.33  109.8   62.1   21.1    2.3   2.33   0.93    0.00    2.73
 1990 311    87    84   84.3    0.0   84.3   0.00   2.23  111.2   61.6   22.6    2.2   2.23   0.91    0.00    2.87
 1990 312    88    85   85.3    0.0   85.3   0.00   2.18  112.4   61.6   23.7    2.2   2.18   0.92    0.00    3.01
 1990 313    89    86   86.2    0.0   86.2   0.00   2.09  113.5   61.0   25.2    2.1   2.09   0.92    0.00    3.15
 1990 314    90    87   87.1    0.0   87.1   0.00   1.94  114.5   61.4   25.7    1.9   1.94   0.92    0.00    3.29
 1990 315    91    88   87.9    0.0   87.9   0.00   1.81  115.4   60.5   27.3    1.8   1.81   0.92    0.00    3.43
 1990 316    92    89   88.6    0.0   88.6   0.00   1.75  116.3   60.1   28.5    1.7   1.75   0.92    0.00    3.57
 1990 317    93    90   89.3    0.0   89.3   0.00   1.63  117.0   58.6   30.7    1.6   1.63   0.91    0.00    3.71
 1990 318    94    91   90.0    0.0   90.0   0.00   1.57  117.7   57.7   32.3    1.6   1.57   0.91    0.00    3.86
 1990 319    95    92   90.7    0.0   90.7   0.00   1.54  118.5   57.5   33.2    1.5   1.54   0.92    0.00    4.00
 1990 320    96    93   91.6    0.0   91.6   0.00   1.52  119.5   57.2   34.4    1.5   1.52   0.90    0.00    4.14
 1990 321    97    94   93.0    0.0   93.0   0.00   1.50  121.2   57.3   35.7    1.5   1.50   0.86    0.00    4.29
 1990 322    98    95   94.6    0.0   94.6   0.00   1.47  123.0   57.0   37.6    1.5   1.47   0.84    0.00    4.43
 1990 323    99    96   96.2    0.0   96.2   0.00   1.42  124.8   56.4   39.8    1.4   1.42   0.83    0.00    4.58
 1990 324   100    97   97.7    0.0   97.7   0.00   1.40  126.5   56.4   41.3    1.4   1.40   0.84    0.00    4.72
 1990 325   101    98   99.1    0.0   99.1   0.00   1.37  128.1   56.1   43.0    1.4   1.37   0.82    0.00    4.87
 1990 326   102    99  100.3    0.0  100.3   0.00   1.35  129.6   55.9   44.4    1.3   1.35   0.80    0.00    5.02
 1990 327   103   100  101.5    0.0  101.5   0.00   1.33  131.0   55.8   45.7    1.3   1.33   0.77    0.00    5.17
 1990 328   104   101  102.7    0.0  102.7   0.00   1.30  132.3   55.6   47.1    1.3   1.30   0.76    0.00    5.32
 1990 329   105   102  103.7    0.0  103.7   0.00   1.27  133.5   55.3   48.4    1.3   1.27   0.76    0.00    5.47
 1990 330   106   103  104.6    0.0  104.6   0.00   1.39  134.7   59.8   44.8    1.4   1.39   0.74    0.00    5.62
 1990 331   107   104  105.4    0.0  105.4   0.00   1.40  135.6   59.7   45.7    1.4   1.40   0.72    0.00    5.78
 1990 332   108   105  106.2    0.0  106.2   0.00   1.42  136.8   59.6   46.6    1.4   1.42   0.69    0.00    5.93
 1990 333   109   106  107.1    0.0  107.1   0.00   1.43  138.0   59.3   47.8    1.4   1.43   0.67    0.00    6.09
 1990 334   110   107  108.1    0.0  108.1   0.00   1.44  139.3   59.0   49.1    1.4   1.44   0.68    0.00    6.25
 1990 335   111   108  109.0    0.0  109.0   0.00   1.45  140.6   58.7   50.3    1.5   1.45   0.68    0.00    6.41
 1990 336   112   109  109.8    0.0  109.8   0.00   1.47  141.8   58.4   51.4    1.5   1.47   0.69    0.00    6.57
 1990 337   113   110  110.6    0.0  110.6   0.00   1.48  143.0   58.0   52.6    1.5   1.48   0.67    0.00    6.73
 1990 338   114   111  111.3    0.0  111.3   0.00   1.49  144.0   57.5   53.8    1.5   1.49   0.66    0.00    6.89
 1990 339   115   112  112.1    0.0  112.1   0.00   1.50  145.2   56.8   55.3    1.5   1.50   0.67    0.00    7.06
 1990 340   116   113  112.7    0.0  112.7   0.00   1.50  146.3   56.1   56.7    1.5   1.50   0.67    0.00    7.23
 1990 341   117   114  113.1    0.0  113.1   0.00   1.51  147.0   55.2   57.9    1.5   1.51   0.66    0.00    7.40
 1990 342   118   115  113.5    0.0  113.5   0.00   1.52  147.8   54.4   59.1    1.5   1.52   0.65    0.00    7.57
 1990 343   119   116  114.1    0.0  114.1   0.00   1.53  148.8   53.7   60.3    1.5   1.53   0.66    0.00    7.74
 1990 344   120   117  114.3    0.0  114.3   0.00   1.54  149.2   53.0   61.3    1.5   1.54   0.66    0.00    7.92
 1990 345   121   118  114.5    2.9  111.6   1.46   1.51  149.7   51.7   59.8    1.5   1.51   0.66    0.00    8.10
 1990 346   122   119  114.9    4.7  110.1   1.45   1.49  150.3   51.1   59.1    1.5   1.49   0.67    0.00    8.28
 1990 347   123   120  115.2    7.4  107.8   1.44   1.46  151.0   50.0   57.8    1.5   1.46   0.67    0.00    8.45
 1990 348   124   121  115.6    9.1  106.5   1.43   1.44  151.7   49.4   57.1    1.4   1.44   0.67    0.00    8.64
 1990 349   125   122  116.1   11.8  104.3   1.43   1.41  152.6   48.4   55.9    1.4   1.41   0.67    0.00    8.82
 1990 350   126   123  116.5   15.2  101.4   1.42   1.37  153.4   47.0   54.4    1.4   1.37   0.67    0.00    9.00
 1990 351   127   124  117.0   18.7   98.3   1.41   1.33  154.2   45.6   52.7    1.3   1.33   0.68    0.00    9.19
 1990 352   128   125  117.5   21.9   95.5   1.41   1.29  155.0   44.3   51.2    1.3   1.29   0.68    0.00    9.38
 1990 353   129   126  117.8   24.7   93.1   1.40   1.26  155.6   43.2   49.9    1.3   1.26   0.68    0.00    9.56
 1990 354   130   127  118.3   27.5   90.8   1.39   1.23  156.5   42.1   48.7    1.2   1.23   0.68    0.00    9.76
 1990 355   131   128  118.9   30.9   88.0   1.38   1.19  157.4   40.8   47.2    1.2   1.19   0.68    0.00    9.95
 1990 356   132   129  119.3   34.1   85.2   1.37   1.17  158.2   40.0   45.2    1.2   1.17   0.69    0.00   10.14
 1990 357   133   130  119.7   37.4   82.3   1.36   1.12  158.8   38.4   43.9    1.1   1.12   0.69    0.00   10.34
 1990 358   134   131  120.0   39.9   80.1   1.35   1.09  159.4   37.4   42.7    1.1   1.09   0.70    0.00   10.53
 1990 359   135   132  125.8   42.2   83.7   1.34   1.13  168.8   38.8   44.9    1.1   1.13   0.76    0.00   10.73
 1990 360   136   133  128.3   45.5   82.8   1.34   1.12  172.7   38.4   44.4    1.1   1.12   0.78    0.00   10.95
 1990 361   137   134  129.5   48.8   80.7   1.34   1.09  174.6   37.4   43.3    1.1   1.09   0.78    0.00   11.17
 1990 362   138   135  130.4   50.7   79.7   1.34   1.08  176.0   36.9   42.7    1.1   1.08   0.78    0.00   11.40
 1990 363   139   136  130.9   52.3   78.6   1.33   1.06  176.9   36.4   42.2    1.1   1.06   0.78    0.00   11.62
 1990 364   140   137  131.5   54.7   76.7   1.33   1.04  177.8   35.6   41.2    1.0   1.04   0.78    0.00   11.86
 1990 365   141   138  132.0   57.8   74.2   1.33   1.00  178.6   34.4   39.8    1.0   1.00   0.78    0.00   12.09
 1991 001   142   139  132.5   61.0   71.5   1.32   0.97  179.5   33.2   38.4    1.0   0.97   0.79    0.00   12.32
 1991 002   143   140  133.0   64.0   69.0   1.31   0.93  180.3   32.0   37.0    0.9   0.93   0.79    0.00   12.56
 1991 003   144   141  133.6   67.0   66.6   1.31   0.90  181.1   30.9   35.7    0.9   0.90   0.79    0.00   12.79
 1991 004   145   142  134.1   69.5   64.6   1.30   0.87  182.0   29.9   34.6    0.9   0.87   0.79    0.00   13.03
 1991 005   146   143  134.6   72.0   62.6   1.29   0.85  182.8   29.0   33.6    0.8   0.85   0.80    0.00   13.27
 1991 006   147   144  135.2   74.6   60.6   1.28   0.82  183.6   28.1   32.5    0.8   0.82   0.80    0.00   13.51
 1991 007   148   145  135.7   77.2   58.4   1.27   0.79  184.4   27.1   31.3    0.8   0.79   0.80    0.00   13.75
 1991 008   149   146  136.2   79.9   56.3   1.26   0.76  185.2   26.1   30.2    0.8   0.76   0.80    0.00   13.99
 1991 009   150   147  136.6   82.4   54.2   1.25   0.75  185.9   25.6   28.6    0.7   0.75   0.81    0.00   14.24
 1991 010   151   148  137.2   84.8   52.4   1.24   0.72  186.8   24.6   27.8    0.7   0.72   0.82    0.00   14.48
 1991 011   152   149  137.7   87.1   50.6   1.23   0.69  187.5   23.7   27.0    0.7   0.69   0.82    0.00   14.73
 1991 012   153   150  138.4   88.9   49.5   1.22   0.67  188.5   22.9   26.5    0.7   0.67   0.83    0.00   14.98
 1991 013   154   151  138.9   90.6   48.3   1.21   0.65  189.3   22.4   25.9    0.7   0.65   0.83    0.00   15.23
 1991 014   155   152  139.4   92.6   46.9   1.20   0.63  190.0   21.7   25.1    0.6   0.63   0.84    0.00   15.48
 1991 015   156   153  140.0   94.6   45.4   1.19   0.61  190.8   21.0   24.3    0.6   0.61   0.85    0.00   15.73
 1991 016   157   154  140.5   95.8   44.7   1.18   0.60  191.5   20.7   24.0    0.6   0.60   0.85    0.00   15.98
 1991 017   158   155  141.0   96.7   44.3   1.17   0.60  192.2   20.5   23.8    0.6   0.60   0.85    0.00   16.23
 1991 018   159   156  141.4   98.1   43.3   1.16   0.58  192.8   20.1   23.2    0.6   0.58   0.86    0.00   16.49
 1991 019   160   157  141.9   99.7   42.3   1.15   0.57  193.5   19.6   22.6    0.6   0.57   0.87    0.00   16.74
 1991 020   161   158  142.5  101.4   41.1   1.14   0.56  194.3   19.3   21.8    0.6   0.56   0.87    0.00   17.00
 1991 021   162   159  142.5  101.4   41.1   1.14   0.56  195.0   19.3   21.8    0.6   0.56   0.87    0.00   17.00
 1991 022   163   160  142.5  101.4   41.1   1.14   0.56  195.8   19.3   21.8    0.6   0.56   0.87    0.00   17.00
 1991 023   164   161  142.5  101.4   41.1   1.14   0.56  196.5   19.3   21.8    0.6   0.56   0.87    0.00   17.00
 1991 024   165   162  142.5  101.4   41.1   1.14   0.56  197.3   19.3   21.8    0.6   0.56   0.87    0.00   17.00

*DSSAT Cropping System Model Ver. 4.0.2.000               Aug 15, 2016; 16:22:36

*RUN   2        : UYMZ                    
 MODEL          : MZCER040 - Maize           
 EXPERIMENT     : UYMZ0213 MZ    late to create DSS                             
 TREATMENT  1   : UYMZ                    

@YEAR DOY   DAS   DAP   CNAD   GNAD   VNAD   GN%D   VN%D   NUPC   LNAD   SNAD   LN%D   SN%D   RN%D   SNN0C   SNN1C
 1991 227     3     0    0.0    0.0    0.0   0.00   0.00    0.0    0.0    0.0    0.0   0.00   0.00    0.00    0.00
 1991 228     4     1    0.0    0.0    0.0   0.00   0.00    0.0    0.0    0.0    0.0   0.00   0.00    0.00    0.00
 1991 229     5     2    0.0    0.0    0.0   0.00   0.00    0.0    0.0    0.0    0.0   0.00   0.00    0.00    0.00
 1991 230     6     3    0.0    0.0    0.0   0.00   0.00    0.0    0.0    0.0    0.0   0.00   0.00    0.00    0.00
 1991 231     7     4    0.0    0.0    0.0   0.00   0.00    0.0    0.0    0.0    0.0   0.00   0.00    0.00    0.00
 1991 232     8     5    0.0    0.0    0.0   0.00   0.00    0.0    0.0    0.0    0.0   0.00   0.00    0.00    0.00
 1991 233     9     6    0.0    0.0    0.0   0.00   0.00    0.0    0.0    0.0    0.0   0.00   0.00    0.00    0.00
 1991 234    10     7    1.2    0.0    1.2   0.00   4.40    0.0    0.6    0.6    4.4   4.40   0.00    0.00    0.00
 1991 235    11     8    1.3    0.0    1.3   0.00   4.52    0.2    0.6    0.6    4.5   4.52   1.10    0.00    0.00
 1991 236    12     9    1.3    0.0    1.3   0.00   4.50    0.2    0.6    0.6    4.5   4.50   1.12    0.00    0.00
 1991 237    13    10    1.3    0.0    1.3   0.00   4.47    0.2    0.6    0.6    4.5   4.47   1.13    0.00    0.00
 1991 238    14    11    1.3    0.0    1.3   0.00   4.47    0.2    0.6    0.6    4.5   4.47   1.10    0.00    0.00
 1991 239    15    12    1.3    0.0    1.3   0.00   4.47    0.2    0.6    0.6    4.5   4.47   1.08    0.00    0.00
 1991 240    16    13    1.2    0.0    1.2   0.00   4.42    0.2    0.6    0.6    4.4   4.42   1.15    0.00    0.00
 1991 241    17    14    1.2    0.0    1.2   0.00   4.39    0.2    0.6    0.6    4.4   4.39   1.15    0.00    0.00
 1991 242    18    15    1.2    0.0    1.2   0.00   4.36    0.2    0.6    0.6    4.4   4.36   1.13    0.00    0.00
 1991 243    19    16    1.2    0.0    1.2   0.00   4.35    0.2    0.6    0.6    4.3   4.35   1.16    0.00    0.01
 1991 244    20    17    1.2    0.0    1.2   0.00   4.35    0.3    0.6    0.6    4.3   4.35   1.25    0.00    0.01
 1991 245    21    18    1.2    0.0    1.2   0.00   3.88    0.3    0.7    0.5    3.9   3.88   1.23    0.00    0.01
 1991 246    22    19    1.3    0.0    1.3   0.00   3.56    0.4    0.8    0.5    3.6   3.56   1.14    0.00    0.01
 1991 247    23    20    1.6    0.0    1.6   0.00   3.46    0.8    1.1    0.5    3.5   3.46   1.28    0.00    0.01
 1991 248    24    21    2.0    0.0    2.0   0.00   3.40    1.3    1.5    0.5    3.4   3.40   1.29    0.00    0.01
 1991 249    25    22    2.4    0.0    2.4   0.00   3.55    1.7    1.9    0.5    3.5   3.55   1.10    0.00    0.02
 1991 250    26    23    2.9    0.0    2.9   0.00   3.79    2.2    2.3    0.5    3.8   3.79   1.14    0.00    0.02
 1991 251    27    24    3.2    0.0    3.2   0.00   3.85    2.5    2.6    0.5    3.8   3.85   1.17    0.00    0.02
 1991 252    28    25    3.4    0.0    3.4   0.00   3.78    3.1    2.9    0.5    3.8   3.78   1.34    0.00    0.02
 1991 253    29    26    3.7    0.0    3.7   0.00   3.66    3.7    3.2    0.5    3.7   3.66   1.31    0.00    0.03
 1991 254    30    27    4.2    0.0    4.2   0.00   3.55    4.5    3.7    0.5    3.5   3.55   1.31    0.00    0.03
 1991 255    31    28    4.8    0.0    4.8   0.00   3.40    5.4    4.3    0.5    3.4   3.40   1.26    0.00    0.04
 1991 256    32    29    5.7    0.0    5.7   0.00   3.30    6.4    5.3    0.5    3.3   3.30   1.19    0.00    0.05
 1991 257    33    30    7.0    0.0    7.0   0.00   3.73    7.6    6.5    0.5    3.7   3.73   1.12    0.00    0.06
 1991 258    34    31    7.5    0.0    7.5   0.00   3.92    8.3    7.0    0.5    3.9   3.92   1.17    0.00    0.07
 1991 259    35    32    7.7    0.0    7.7   0.00   3.55    8.7    7.2    0.5    3.6   3.55   1.17    0.00    0.08
 1991 260    36    33    8.6    0.0    8.6   0.00   3.51    9.5    8.1    0.5    3.5   3.51   1.09    0.00    0.09
 1991 261    37    34    9.7    0.0    9.7   0.00   3.65   11.6    9.1    0.5    3.6   3.65   1.29    0.00    0.10
 1991 262    38    35   10.4    0.0   10.4   0.00   3.70   13.2    9.9    0.5    3.7   3.70   1.33    0.00    0.12
 1991 263    39    36   11.0    0.0   11.0   0.00   3.62   13.7   10.5    0.5    3.6   3.62   1.18    0.00    0.14
 1991 264    40    37   11.8    0.0   11.8   0.00   3.63   14.8   11.3    0.5    3.6   3.63   1.15    0.00    0.16
 1991 265    41    38   12.7    0.0   12.7   0.00   3.56   16.8   12.2    0.5    3.6   3.56   1.24    0.00    0.18
 1991 266    42    39   13.7    0.0   13.7   0.00   3.68   18.8   13.1    0.5    3.7   3.68   1.30    0.00    0.20
 1991 267    43    40   14.9    0.0   14.9   0.00   3.80   20.7   14.4    0.5    3.8   3.80   1.24    0.00    0.24
 1991 268    44    41   15.6    0.0   15.6   0.00   3.68   22.0   15.1    0.5    3.7   3.68   1.19    0.00    0.27
 1991 269    45    42   16.6    0.0   16.6   0.00   3.57   23.8   16.1    0.5    3.6   3.57   1.19    0.00    0.31
 1991 270    46    43   18.8    0.0   18.8   0.00   3.53   26.2   18.2    0.5    3.5   3.53   1.14    0.00    0.35
 1991 271    47    44   19.8    0.0   19.8   0.00   3.55   28.8   19.2    0.5    3.6   3.55   1.22    0.00    0.39
 1991 272    48    45   20.6    0.0   20.6   0.00   3.51   30.5   20.1    0.6    3.5   3.51   1.20    0.00    0.44
 1991 273    49    46   21.7    0.0   21.7   0.00   3.47   32.5   21.1    0.6    3.5   3.47   1.17    0.00    0.50
 1991 274    50    47   22.7    0.0   22.7   0.00   3.46   34.4   22.0    0.6    3.5   3.46   1.17    0.00    0.56
 1991 275    51    48   23.5    0.0   23.5   0.00   3.45   36.5   22.9    0.7    3.5   3.45   1.18    0.00    0.62
 1991 276    52    49   24.4    0.0   24.4   0.00   3.43   38.6   23.7    0.7    3.4   3.43   1.17    0.00    0.70
 1991 277    53    50   25.6    0.0   25.6   0.00   3.40   40.4   24.8    0.8    3.4   3.40   1.14    0.00    0.77
 1991 278    54    51   26.9    0.0   26.9   0.00   3.45   41.1   26.0    0.8    3.5   3.45   1.09    0.00    0.85
 1991 279    55    52   27.2    0.0   27.2   0.00   3.44   42.5   26.4    0.9    3.4   3.44   1.15    0.00    0.93
 1991 280    56    53   27.7    0.0   27.7   0.00   3.44   43.5   26.8    0.9    3.4   3.44   1.15    0.00    1.01
 1991 281    57    54   28.2    0.0   28.2   0.00   3.40   45.5   27.2    0.9    3.4   3.40   1.18    0.00    1.10
 1991 282    58    55   29.5    0.0   29.5   0.00   3.35   47.1   28.4    1.1    3.3   3.35   1.13    0.00    1.19
 1991 283    59    56   31.4    0.0   31.4   0.00   3.33   50.5   30.1    1.3    3.3   3.33   1.14    0.00    1.28
 1991 284    60    57   33.7    0.0   33.7   0.00   3.30   54.0   32.2    1.6    3.3   3.30   1.14    0.00    1.38
 1991 285    61    58   37.2    0.0   37.2   0.00   3.27   58.4   35.2    2.1    3.3   3.27   1.12    0.00    1.49
 1991 286    62    59   42.5    0.0   42.5   0.00   3.21   63.8   39.5    3.1    3.2   3.21   1.10    0.00    1.60
 1991 287    63    60   46.9    0.0   46.9   0.00   3.16   67.6   42.7    4.2    3.2   3.16   1.07    0.00    1.71
 1991 288    64    61   49.6    0.0   49.6   0.00   3.11   70.2   44.7    4.9    3.1   3.11   1.07    0.00    1.82
 1991 289    65    62   51.0    0.0   51.0   0.00   3.05   71.8   45.5    5.5    3.1   3.05   1.07    0.00    1.93
 1991 290    66    63   52.7    0.0   52.7   0.00   3.09   75.5   46.9    5.8    3.1   3.09   1.13    0.00    2.04
 1991 291    67    64   54.5    0.0   54.5   0.00   3.06   79.7   48.1    6.4    3.1   3.06   1.15    0.00    2.16
 1991 292    68    65   57.7    0.0   57.7   0.00   3.03   84.3   50.2    7.5    3.0   3.03   1.13    0.00    2.29
 1991 293    69    66   61.3    0.0   61.3   0.00   2.99   89.2   52.4    8.9    3.0   2.99   1.13    0.00    2.43
 1991 294    70    67   64.9    0.0   64.9   0.00   2.89   93.3   54.3   10.6    2.9   2.89   1.10    0.00    2.57
 1991 295    71    68   68.3    0.0   68.3   0.00   2.73   96.8   55.5   12.8    2.7   2.73   1.09    0.00    2.72
 1991 296    72    69   71.4    0.0   71.4   0.00   2.72   99.7   57.3   14.2    2.7   2.72   1.08    0.00    2.86
 1991 297    73    70   74.0    0.0   74.0   0.00   2.72  102.2   58.7   15.3    2.7   2.72   1.08    0.00    3.01
 1991 298    74    71   76.1    0.0   76.1   0.00   2.67  104.3   59.6   16.5    2.7   2.67   1.08    0.00    3.16
 1991 299    75    72   77.7    0.0   77.7   0.00   2.53  106.1   59.4   18.3    2.5   2.53   1.05    0.00    3.30
 1991 300    76    73   79.2    0.0   79.2   0.00   2.42  107.6   59.2   19.9    2.4   2.42   1.05    0.00    3.45
 1991 301    77    74   80.4    0.0   80.4   0.00   2.36  108.9   59.4   21.0    2.4   2.36   1.06    0.00    3.60
 1991 302    78    75   81.5    0.0   81.5   0.00   2.30  110.0   59.4   22.1    2.3   2.30   1.06    0.00    3.74
 1991 303    79    76   82.5    0.0   82.5   0.00   2.24  111.0   59.7   22.7    2.2   2.24   1.06    0.00    3.89
 1991 304    80    77   83.3    0.0   83.3   0.00   2.18  111.8   59.6   23.6    2.2   2.18   1.07    0.00    4.04
 1991 305    81    78   84.0    0.0   84.0   0.00   2.06  112.6   58.6   25.4    2.1   2.06   1.06    0.00    4.18
 1991 306    82    79   84.6    0.0   84.6   0.00   1.97  113.3   57.7   26.9    2.0   1.97   1.02    0.00    4.33
 1991 307    83    80   85.3    0.0   85.3   0.00   1.88  114.0   56.8   28.4    1.9   1.88   1.00    0.00    4.48
 1991 308    84    81   85.8    0.0   85.8   0.00   1.81  114.6   55.9   29.9    1.8   1.81   0.96    0.00    4.62
 1991 309    85    82   86.4    0.0   86.4   0.00   1.73  115.2   54.9   31.4    1.7   1.73   0.94    0.00    4.77
 1991 310    86    83   87.0    0.0   87.0   0.00   1.68  115.9   54.3   32.7    1.7   1.68   0.94    0.00    4.92
 1991 311    87    84   87.5    0.0   87.5   0.00   1.63  116.5   53.6   33.9    1.6   1.63   0.92    0.00    5.07
 1991 312    88    85   88.1    0.0   88.1   0.00   1.59  117.2   53.1   35.0    1.6   1.59   0.90    0.00    5.22
 1991 313    89    86   89.4    0.0   89.4   0.00   1.57  118.8   53.1   36.3    1.6   1.57   0.87    0.00    5.37
 1991 314    90    87   90.8    0.0   90.8   0.00   1.55  120.4   53.0   37.8    1.5   1.55   0.86    0.00    5.52
 1991 315    91    88   92.1    0.0   92.1   0.00   1.54  121.8   53.2   38.9    1.5   1.54   0.84    0.00    5.67
 1991 316    92    89   93.1    0.0   93.1   0.00   1.54  123.2   53.4   39.7    1.5   1.54   0.81    0.00    5.82
 1991 317    93    90   94.1    0.0   94.1   0.00   1.52  124.4   53.4   40.7    1.5   1.52   0.80    0.00    5.97
 1991 318    94    91   95.1    0.0   95.1   0.00   1.51  125.5   53.3   41.7    1.5   1.51   0.80    0.00    6.13
 1991 319    95    92   95.9    0.0   95.9   0.00   1.48  126.5   53.0   42.9    1.5   1.48   0.81    0.00    6.28
 1991 320    96    93   96.7    0.0   96.7   0.00   1.46  127.4   52.7   43.9    1.5   1.46   0.79    0.00    6.44
 1991 321    97    94   97.4    0.0   97.4   0.00   1.43  128.3   52.5   44.9    1.4   1.43   0.78    0.00    6.60
 1991 322    98    95   98.0    0.0   98.0   0.00   1.40  129.1   52.0   46.0    1.4   1.40   0.77    0.00    6.75
 1991 323    99    96   98.7    0.0   98.7   0.00   1.38  130.0   51.8   46.9    1.4   1.38   0.74    0.00    6.91
 1991 324   100    97   99.4    0.0   99.4   0.00   1.36  130.8   51.6   47.8    1.4   1.36   0.73    0.00    7.07
 1991 325   101    98  100.1    0.0  100.1   0.00   1.33  131.7   51.2   48.9    1.3   1.33   0.71    0.00    7.23
 1991 326   102    99  100.7    0.0  100.7   0.00   1.45  132.5   55.3   45.4    1.5   1.45   0.69    0.00    7.39
 1991 327   103   100  101.3    0.0  101.3   0.00   1.45  133.3   54.7   46.6    1.5   1.45   0.69    0.00    7.55
 1991 328   104   101  101.9    0.0  101.9   0.00   1.46  134.2   54.4   47.5    1.5   1.46   0.70    0.00    7.71
 1991 329   105   102  102.4    0.0  102.4   0.00   1.47  134.8   54.0   48.4    1.5   1.47   0.70    0.00    7.88
 1991 330   106   103  102.7    0.0  102.7   0.00   1.48  135.3   53.6   49.2    1.5   1.48   0.70    0.00    8.04
 1991 331   107   104  103.1    0.0  103.1   0.00   1.48  135.9   53.1   50.1    1.5   1.48   0.69    0.00    8.21
 1991 332   108   105  103.6    0.0  103.6   0.00   1.49  136.6   52.4   51.2    1.5   1.49   0.69    0.00    8.37
 1991 333   109   106  104.2    0.0  104.2   0.00   1.49  137.5   51.8   52.4    1.5   1.49   0.69    0.00    8.54
 1991 334   110   107  104.8    0.0  104.8   0.00   1.50  138.4   51.1   53.8    1.5   1.50   0.68    0.00    8.71
 1991 335   111   108  105.6    0.0  105.6   0.00   1.51  139.7   50.5   55.1    1.5   1.51   0.68    0.00    8.88
 1991 336   112   109  106.3    0.0  106.3   0.00   1.51  140.9   49.7   56.5    1.5   1.51   0.68    0.00    9.05
 1991 337   113   110  107.0    0.0  107.0   0.00   1.52  142.1   49.0   58.0    1.5   1.52   0.69    0.00    9.22
 1991 338   114   111  107.6    0.0  107.6   0.00   1.53  143.2   48.1   59.5    1.5   1.53   0.68    0.00    9.40
 1991 339   115   112  108.2    3.5  104.6   1.44   1.48  144.2   46.8   57.9    1.5   1.48   0.69    0.00    9.58
 1991 340   116   113  108.7    7.0  101.7   1.43   1.44  145.0   45.5   56.2    1.4   1.44   0.69    0.00    9.76
 1991 341   117   114  109.4   10.4   99.0   1.42   1.40  146.2   44.3   54.7    1.4   1.40   0.71    0.00    9.95
 1991 342   118   115  110.0   13.7   96.3   1.41   1.37  147.3   43.0   53.2    1.4   1.37   0.71    0.00   10.13
 1991 343   119   116  110.6   16.6   94.0   1.40   1.34  148.3   42.4   51.6    1.3   1.34   0.72    0.00   10.32
 1991 344   120   117  111.0   19.9   91.1   1.39   1.29  149.0   40.7   50.4    1.3   1.29   0.72    0.00   10.51
 1991 345   121   118  111.5   23.1   88.4   1.39   1.25  149.8   39.5   48.9    1.3   1.25   0.73    0.00   10.70
 1991 346   122   119  112.2   25.7   86.5   1.38   1.23  150.9   38.9   47.6    1.2   1.23   0.74    0.00   10.89
 1991 347   123   120  112.7   28.7   84.0   1.37   1.19  151.7   37.6   46.5    1.2   1.19   0.74    0.00   11.08
 1991 348   124   121  113.1   31.0   82.2   1.36   1.17  152.4   36.9   45.3    1.2   1.17   0.75    0.00   11.28
 1991 349   125   122  113.5   33.4   80.1   1.35   1.15  153.0   36.2   43.9    1.1   1.15   0.75    0.00   11.48
 1991 350   126   123  113.9   36.3   77.6   1.34   1.11  153.6   34.8   42.8    1.1   1.11   0.76    0.00   11.67
 1991 351   127   124  114.4   39.3   75.1   1.33   1.07  154.3   33.6   41.5    1.1   1.07   0.76    0.00   11.87
 1991 352   128   125  115.1   42.2   72.9   1.32   1.03  155.4   32.6   40.3    1.0   1.03   0.76    0.00   12.07
 1991 353   129   126  115.7   45.1   70.6   1.31   1.00  156.3   31.6   39.0    1.0   1.00   0.77    0.00   12.28
 1991 354   130   127  116.1   47.9   68.3   1.30   0.97  156.9   30.5   37.7    1.0   0.97   0.77    0.00   12.48
 1991 355   131   128  116.8   50.7   66.2   1.29   0.94  157.9   29.6   36.6    0.9   0.94   0.78    0.00   12.68
 1991 356   132   129  117.5   53.3   64.1   1.28   0.92  158.9   29.0   35.1    0.9   0.92   0.78    0.00   12.89
 1991 357   133   130  118.1   56.0   62.1   1.27   0.88  159.8   27.9   34.2    0.9   0.88   0.79    0.00   13.09
 1991 358   134   131  118.6   58.6   60.0   1.26   0.85  160.5   26.8   33.2    0.9   0.85   0.79    0.00   13.30
 1991 359   135   132  125.5   60.9   64.5   1.25   0.92  170.2   28.9   35.7    0.9   0.92   0.85    0.00   13.51
 1991 360   136   133  127.6   62.7   64.9   1.25   0.92  173.2   29.0   35.9    0.9   0.92   0.86    0.00   13.73
 1991 361   137   134  129.4   64.7   64.7   1.24   0.92  175.8   28.9   35.8    0.9   0.92   0.87    0.00   13.96
 1991 362   138   135  130.5   67.2   63.3   1.24   0.90  177.3   28.3   35.0    0.9   0.90   0.87    0.00   14.19
 1991 363   139   136  131.2   69.9   61.3   1.24   0.87  178.4   27.4   33.9    0.9   0.87   0.87    0.00   14.43
 1991 364   140   137  131.8   72.6   59.2   1.23   0.84  179.3   26.5   32.7    0.8   0.84   0.88    0.00   14.66
 1991 365   141   138  132.4   75.4   57.0   1.23   0.81  180.1   25.5   31.5    0.8   0.81   0.89    0.00   14.90
 1992 001   142   139  133.1   78.0   55.1   1.22   0.79  181.1   25.0   30.1    0.8   0.79   0.89    0.00   15.13
 1992 002   143   140  133.8   80.6   53.2   1.22   0.77  181.9   24.1   29.1    0.8   0.77   0.90    0.00   15.37
 1992 003   144   141  134.3   82.3   52.0   1.21   0.74  182.6   23.3   28.7    0.7   0.74   0.90    0.00   15.61
 1992 004   145   142  135.0   84.4   50.6   1.21   0.72  183.6   22.6   28.0    0.7   0.72   0.90    0.00   15.85
 1992 005   146   143  135.7   86.5   49.2   1.20   0.70  184.5   22.0   27.2    0.7   0.70   0.91    0.00   16.09
 1992 006   147   144  136.4   88.5   47.8   1.19   0.68  185.4   21.4   26.4    0.7   0.68   0.91    0.00   16.34
 1992 007   148   145  137.0   90.7   46.3   1.18   0.66  186.2   20.7   25.6    0.7   0.66   0.92    0.00   16.58
 1992 008   149   146  137.7   92.9   44.8   1.17   0.64  187.1   20.0   24.8    0.6   0.64   0.93    0.00   16.82
 1992 009   150   147  138.4   94.9   43.4   1.16   0.62  187.9   19.5   23.9    0.6   0.62   0.94    0.00   17.07
 1992 010   151   148  139.1   96.9   42.2   1.15   0.61  188.8   19.1   23.0    0.6   0.61   0.94    0.00   17.31
 1992 011   152   149  139.1   96.9   42.2   1.15   0.61  189.7   19.1   23.0    0.6   0.61   0.94    0.00   17.31
 1992 012   153   150  139.1   96.9   42.2   1.15   0.61  190.6   19.1   23.0    0.6   0.61   0.94    0.00   17.31
 1992 013   154   151  139.1   96.9   42.2   1.15   0.61  191.5   19.1   23.0    0.6   0.61   0.94    0.00   17.31
 1992 014   155   152  139.1   96.9   42.2   1.15   0.61  192.3   19.1   23.0    0.6   0.61   0.94    0.00   17.31

*DSSAT Cropping System Model Ver. 4.0.2.000               Aug 15, 2016; 16:22:36

*RUN   3        : UYMZ                    
 MODEL          : MZCER040 - Maize           
 EXPERIMENT     : UYMZ0213 MZ    late to create DSS                             
 TREATMENT  1   : UYMZ                    

@YEAR DOY   DAS   DAP   CNAD   GNAD   VNAD   GN%D   VN%D   NUPC   LNAD   SNAD   LN%D   SN%D   RN%D   SNN0C   SNN1C
 1992 227     3     0    0.0    0.0    0.0   0.00   0.00    0.0    0.0    0.0    0.0   0.00   0.00    0.00    0.00
 1992 228     4     1    0.0    0.0    0.0   0.00   0.00    0.0    0.0    0.0    0.0   0.00   0.00    0.00    0.00
 1992 229     5     2    0.0    0.0    0.0   0.00   0.00    0.0    0.0    0.0    0.0   0.00   0.00    0.00    0.00
 1992 230     6     3    0.0    0.0    0.0   0.00   0.00    0.0    0.0    0.0    0.0   0.00   0.00    0.00    0.00
 1992 231     7     4    0.0    0.0    0.0   0.00   0.00    0.0    0.0    0.0    0.0   0.00   0.00    0.00    0.00
 1992 232     8     5    0.0    0.0    0.0   0.00   0.00    0.0    0.0    0.0    0.0   0.00   0.00    0.00    0.00
 1992 233     9     6    0.0    0.0    0.0   0.00   0.00    0.0    0.0    0.0    0.0   0.00   0.00    0.00    0.00
 1992 234    10     7    0.0    0.0    0.0   0.00   0.00    0.0    0.0    0.0    0.0   0.00   0.00    0.00    0.00
 1992 235    11     8    0.0    0.0    0.0   0.00   0.00    0.0    0.0    0.0    0.0   0.00   0.00    0.00    0.00
 1992 236    12     9    1.2    0.0    1.2   0.00   4.40    0.0    0.6    0.6    4.4   4.40   0.00    0.00    0.00
 1992 237    13    10    1.3    0.0    1.3   0.00   4.55    0.2    0.6    0.6    4.5   4.55   1.09    0.00    0.00
 1992 238    14    11    1.3    0.0    1.3   0.00   4.53    0.2    0.6    0.6    4.5   4.53   1.11    0.00    0.00
 1992 239    15    12    1.3    0.0    1.3   0.00   4.52    0.2    0.6    0.6    4.5   4.52   1.12    0.00    0.00
 1992 240    16    13    1.3    0.0    1.3   0.00   4.49    0.2    0.6    0.6    4.5   4.49   1.13    0.00    0.00
 1992 241    17    14    1.3    0.0    1.3   0.00   4.47    0.2    0.6    0.6    4.5   4.47   1.12    0.00    0.00
 1992 242    18    15    1.2    0.0    1.2   0.00   4.45    0.2    0.6    0.6    4.4   4.45   1.14    0.00    0.00
 1992 243    19    16    1.2    0.0    1.2   0.00   4.45    0.2    0.6    0.6    4.4   4.45   1.11    0.00    0.00
 1992 244    20    17    1.2    0.0    1.2   0.00   4.41    0.2    0.6    0.6    4.4   4.41   1.15    0.00    0.01
 1992 245    21    18    1.2    0.0    1.2   0.00   4.40    0.2    0.6    0.6    4.4   4.40   1.16    0.00    0.01
 1992 246    22    19    1.2    0.0    1.2   0.00   4.40    0.2    0.6    0.6    4.4   4.40   1.12    0.00    0.01
 1992 247    23    20    1.2    0.0    1.2   0.00   4.38    0.3    0.6    0.6    4.4   4.38   1.21    0.00    0.01
 1992 248    24    21    1.2    0.0    1.2   0.00   4.37    0.3    0.6    0.6    4.4   4.37   1.25    0.00    0.01
 1992 249    25    22    1.2    0.0    1.2   0.00   4.35    0.4    0.6    0.6    4.4   4.35   1.24    0.00    0.01
 1992 250    26    23    1.2    0.0    1.2   0.00   4.28    0.5    0.6    0.6    4.3   4.28   1.25    0.00    0.01
 1992 251    27    24    1.2    0.0    1.2   0.00   3.76    0.5    0.7    0.5    3.8   3.76   1.20    0.00    0.02
 1992 252    28    25    1.4    0.0    1.4   0.00   3.68    0.6    0.9    0.5    3.7   3.68   1.08    0.00    0.02
 1992 253    29    26    1.6    0.0    1.6   0.00   3.68    1.0    1.1    0.5    3.7   3.68   1.15    0.00    0.02
 1992 254    30    27    1.9    0.0    1.9   0.00   3.63    1.3    1.4    0.5    3.6   3.63   1.18    0.00    0.02
 1992 255    31    28    2.2    0.0    2.2   0.00   3.60    1.6    1.7    0.5    3.6   3.60   1.13    0.00    0.03
 1992 256    32    29    2.5    0.0    2.5   0.00   3.72    2.2    2.0    0.5    3.7   3.72   1.27    0.00    0.03
 1992 257    33    30    2.9    0.0    2.9   0.00   3.90    2.6    2.3    0.5    3.9   3.90   1.21    0.00    0.03
 1992 258    34    31    3.1    0.0    3.1   0.00   3.83    3.1    2.5    0.5    3.8   3.83   1.27    0.00    0.04
 1992 259    35    32    3.3    0.0    3.3   0.00   3.71    3.6    2.8    0.5    3.7   3.71   1.27    0.00    0.04
 1992 260    36    33    3.7    0.0    3.7   0.00   3.60    4.0    3.2    0.5    3.6   3.60   1.17    0.00    0.05
 1992 261    37    34    4.2    0.0    4.2   0.00   3.42    4.7    3.7    0.5    3.4   3.42   1.18    0.00    0.06
 1992 262    38    35    5.1    0.0    5.1   0.00   3.81    6.1    4.5    0.5    3.8   3.81   1.31    0.00    0.07
 1992 263    39    36    5.4    0.0    5.4   0.00   3.80    6.9    4.9    0.5    3.8   3.80   1.28    0.00    0.08
 1992 264    40    37    5.8    0.0    5.8   0.00   3.60    7.6    5.2    0.5    3.6   3.60   1.23    0.00    0.09
 1992 265    41    38    6.4    0.0    6.4   0.00   3.40    8.6    5.9    0.5    3.4   3.40   1.20    0.00    0.11
 1992 266    42    39    7.6    0.0    7.6   0.00   3.89    9.6    7.0    0.5    3.9   3.89   1.13    0.00    0.12
 1992 267    43    40    7.8    0.0    7.8   0.00   3.77   10.4    7.3    0.5    3.8   3.77   1.20    0.00    0.14
 1992 268    44    41    8.3    0.0    8.3   0.00   3.83   10.7    7.7    0.5    3.8   3.83   1.11    0.00    0.16
 1992 269    45    42    8.6    0.0    8.6   0.00   3.95   12.1    8.1    0.6    4.0   3.95   1.36    0.00    0.18
 1992 270    46    43    8.7    0.0    8.7   0.00   3.92   12.4    8.1    0.5    3.9   3.92   1.31    0.00    0.20
 1992 271    47    44    8.8    0.0    8.8   0.00   3.75   12.4    8.3    0.5    3.7   3.75   1.18    0.00    0.23
 1992 272    48    45    9.3    0.0    9.3   0.00   3.67   13.4    8.8    0.5    3.7   3.67   1.17    0.00    0.25
 1992 273    49    46   10.0    0.0   10.0   0.00   3.60   14.6    9.5    0.5    3.6   3.60   1.17    0.00    0.28
 1992 274    50    47   10.8    0.0   10.8   0.00   3.46   15.9   10.4    0.5    3.5   3.46   1.15    0.00    0.31
 1992 275    51    48   12.2    0.0   12.2   0.00   3.68   17.4   11.7    0.5    3.7   3.68   1.12    0.00    0.34
 1992 276    52    49   12.9    0.0   12.9   0.00   3.49   18.2   12.4    0.5    3.5   3.49   1.10    0.00    0.37
 1992 277    53    50   14.1    0.0   14.1   0.00   3.48   20.3   13.6    0.5    3.5   3.48   1.15    0.00    0.40
 1992 278    54    51   17.3    0.0   17.3   0.00   3.78   23.9   16.8    0.5    3.8   3.78   1.14    0.00    0.44
 1992 279    55    52   18.0    0.0   18.0   0.00   3.68   24.4   17.5    0.5    3.7   3.68   1.09    0.00    0.48
 1992 280    56    53   18.6    0.0   18.6   0.00   3.64   27.0   18.1    0.5    3.6   3.64   1.25    0.00    0.52
 1992 281    57    54   19.1    0.0   19.1   0.00   3.63   28.1   18.6    0.5    3.6   3.63   1.23    0.00    0.56
 1992 282    58    55   19.7    0.0   19.7   0.00   3.58   29.6   19.2    0.5    3.6   3.58   1.21    0.00    0.62
 1992 283    59    56   20.8    0.0   20.8   0.00   3.54   31.5   20.3    0.5    3.5   3.54   1.17    0.00    0.67
 1992 284    60    57   22.3    0.0   22.3   0.00   3.51   34.1   21.7    0.5    3.5   3.51   1.17    0.00    0.73
 1992 285    61    58   24.2    0.0   24.2   0.00   3.48   36.1   23.6    0.6    3.5   3.48   1.12    0.00    0.80
 1992 286    62    59   26.2    0.0   26.2   0.00   3.45   39.4   25.6    0.7    3.5   3.45   1.15    0.00    0.86
 1992 287    63    60   28.5    0.0   28.5   0.00   3.42   43.1   27.7    0.8    3.4   3.42   1.16    0.00    0.93
 1992 288    64    61   31.7    0.0   31.7   0.00   3.39   47.2   30.7    1.0    3.4   3.39   1.14    0.00    1.01
 1992 289    65    62   34.3    0.0   34.3   0.00   3.34   48.7   33.0    1.3    3.3   3.34   1.07    0.00    1.09
 1992 290    66    63   37.0    0.0   37.0   0.00   3.31   51.7   35.4    1.6    3.3   3.31   1.08    0.00    1.17
 1992 291    67    64   39.3    0.0   39.3   0.00   3.28   56.5   37.4    1.9    3.3   3.28   1.15    0.00    1.25
 1992 292    68    65   41.1    0.0   41.1   0.00   3.26   60.3   38.9    2.2    3.3   3.26   1.17    0.00    1.34
 1992 293    69    66   43.2    0.0   43.2   0.00   3.24   61.3   40.6    2.6    3.2   3.24   1.08    0.00    1.44
 1992 294    70    67   45.1    0.0   45.1   0.00   3.22   66.0   42.1    2.9    3.2   3.22   1.15    0.00    1.54
 1992 295    71    68   46.8    0.0   46.8   0.00   3.20   69.7   43.5    3.3    3.2   3.20   1.16    0.00    1.65
 1992 296    72    69   49.2    0.0   49.2   0.00   3.18   73.5   45.4    3.8    3.2   3.18   1.14    0.00    1.77
 1992 297    73    70   52.8    0.0   52.8   0.00   3.15   78.3   48.1    4.7    3.1   3.15   1.13    0.00    1.90
 1992 298    74    71   57.6    0.0   57.6   0.00   3.11   84.0   51.5    6.1    3.1   3.11   1.12    0.00    2.03
 1992 299    75    72   61.3    0.0   61.3   0.00   3.07   86.5   54.0    7.3    3.1   3.07   1.07    0.00    2.17
 1992 300    76    73   66.4    0.0   66.4   0.00   3.03   94.3   57.3    9.1    3.0   3.03   1.12    0.00    2.30
 1992 301    77    74   71.9    0.0   71.9   0.00   2.99  101.1   60.6   11.3    3.0   2.99   1.12    0.00    2.44
 1992 302    78    75   73.6    0.0   73.6   0.00   3.00  102.5   61.7   11.8    3.0   3.00   1.10    0.00    2.59
 1992 303    79    76   75.1    0.0   75.1   0.00   2.96  107.5   62.4   12.6    3.0   2.96   1.14    0.00    2.74
 1992 304    80    77   77.4    0.0   77.4   0.00   2.94  111.4   63.7   13.7    2.9   2.94   1.13    0.00    2.91
 1992 305    81    78   79.8    0.0   79.8   0.00   2.90  115.3   64.9   14.9    2.9   2.90   1.12    0.00    3.08
 1992 306    82    79   82.1    0.0   82.1   0.00   2.82  118.4   65.7   16.4    2.8   2.82   1.09    0.00    3.26
 1992 307    83    80   84.2    0.0   84.2   0.00   2.67  121.0   65.7   18.4    2.7   2.67   1.07    0.00    3.45
 1992 308    84    81   85.7    0.0   85.7   0.00   2.62  123.0   66.2   19.5    2.6   2.62   1.04    0.00    3.64
 1992 309    85    82   86.8    0.0   86.8   0.00   2.62  124.7   66.7   20.1    2.6   2.62   1.03    0.00    3.83
 1992 310    86    83   87.9    0.0   87.9   0.00   2.61  126.4   67.2   20.7    2.6   2.61   1.02    0.00    4.02
 1992 311    87    84   88.7    0.0   88.7   0.00   2.57  127.8   67.3   21.4    2.6   2.57   0.99    0.00    4.22
 1992 312    88    85   89.4    0.0   89.4   0.00   2.50  129.0   67.1   22.4    2.5   2.50   0.96    0.00    4.42
 1992 313    89    86   90.0    0.0   90.0   0.00   2.40  129.8   66.4   23.6    2.4   2.40   0.93    0.00    4.62
 1992 314    90    87   90.5    0.0   90.5   0.00   2.27  130.6   65.3   25.2    2.3   2.27   0.91    0.00    4.82
 1992 315    91    88   91.0    0.0   91.0   0.00   2.20  131.2   65.6   25.4    2.2   2.20   0.92    0.00    5.03
 1992 316    92    89   91.5    0.0   91.5   0.00   2.02  131.9   64.2   27.4    2.0   2.02   0.92    0.00    5.23
 1992 317    93    90   92.1    0.0   92.1   0.00   1.88  132.6   62.6   29.5    1.9   1.88   0.91    0.00    5.44
 1992 318    94    91   92.7    0.0   92.7   0.00   1.79  133.3   61.4   31.2    1.8   1.79   0.90    0.00    5.64
 1992 319    95    92   93.2    0.0   93.2   0.00   1.70  134.0   60.1   33.1    1.7   1.70   0.90    0.00    5.85
 1992 320    96    93   93.8    0.0   93.8   0.00   1.63  134.7   59.1   34.7    1.6   1.63   0.89    0.00    6.06
 1992 321    97    94   94.2    0.0   94.2   0.00   1.60  135.2   58.6   35.6    1.6   1.60   0.86    0.00    6.27
 1992 322    98    95   95.3    0.0   95.3   0.00   1.58  136.5   58.7   36.6    1.6   1.58   0.84    0.00    6.47
 1992 323    99    96   96.3    0.0   96.3   0.00   1.56  137.7   58.6   37.6    1.6   1.56   0.82    0.00    6.68
 1992 324   100    97   97.1    0.0   97.1   0.00   1.53  138.9   58.1   39.0    1.5   1.53   0.80    0.00    6.89
 1992 325   101    98   98.0    0.0   98.0   0.00   1.49  139.9   57.5   40.5    1.5   1.49   0.79    0.00    7.10
 1992 326   102    99   98.8    0.0   98.8   0.00   1.47  140.9   57.3   41.5    1.5   1.47   0.80    0.00    7.32
 1992 327   103   100   99.5    0.0   99.5   0.00   1.45  141.8   57.2   42.3    1.5   1.45   0.78    0.00    7.53
 1992 328   104   101  100.2    0.0  100.2   0.00   1.44  142.7   57.2   43.0    1.4   1.44   0.77    0.00    7.74
 1992 329   105   102  100.7    0.0  100.7   0.00   1.42  143.4   56.7   44.0    1.4   1.42   0.76    0.00    7.96
 1992 330   106   103  101.4    0.0  101.4   0.00   1.39  144.3   56.3   45.1    1.4   1.39   0.75    0.00    8.17
 1992 331   107   104  102.0    0.0  102.0   0.00   1.36  145.1   55.9   46.1    1.4   1.36   0.75    0.00    8.39
 1992 332   108   105  102.5    0.0  102.5   0.00   1.34  145.8   55.4   47.1    1.3   1.34   0.73    0.00    8.61
 1992 333   109   106  103.1    0.0  103.1   0.00   1.31  146.6   55.0   48.1    1.3   1.31   0.73    0.00    8.83
 1992 334   110   107  103.7    0.0  103.7   0.00   1.28  147.3   54.5   49.2    1.3   1.28   0.73    0.00    9.04
 1992 335   111   108  104.3    0.0  104.3   0.00   1.39  148.1   58.8   45.5    1.4   1.39   0.73    0.00    9.26
 1992 336   112   109  104.8    0.0  104.8   0.00   1.40  148.7   58.4   46.3    1.4   1.40   0.71    0.00    9.49
 1992 337   113   110  105.4    0.0  105.4   0.00   1.41  149.6   58.2   47.2    1.4   1.41   0.70    0.00    9.71
 1992 338   114   111  105.9    0.0  105.9   0.00   1.42  150.4   57.7   48.1    1.4   1.42   0.69    0.00    9.93
 1992 339   115   112  106.4    0.0  106.4   0.00   1.42  151.1   57.2   49.2    1.4   1.42   0.68    0.00   10.15
 1992 340   116   113  106.9    0.0  106.9   0.00   1.43  152.0   56.7   50.3    1.4   1.43   0.68    0.00   10.38
 1992 341   117   114  107.5    0.0  107.5   0.00   1.43  152.8   56.0   51.5    1.4   1.43   0.68    0.00   10.60
 1992 342   118   115  107.9    0.0  107.9   0.00   1.43  153.6   55.3   52.6    1.4   1.43   0.68    0.00   10.83
 1992 343   119   116  108.6    0.0  108.6   0.00   1.44  154.7   54.7   53.9    1.4   1.44   0.68    0.00   11.06
 1992 344   120   117  109.1    0.0  109.1   0.00   1.45  155.6   54.0   55.1    1.4   1.45   0.68    0.00   11.29
 1992 345   121   118  109.7    0.0  109.7   0.00   1.45  156.5   53.2   56.5    1.5   1.45   0.68    0.00   11.52
 1992 346   122   119  110.1    0.0  110.1   0.00   1.46  157.4   52.4   57.7    1.5   1.46   0.68    0.00   11.76
 1992 347   123   120  110.6    0.0  110.6   0.00   1.47  158.3   51.6   59.0    1.5   1.47   0.67    0.00   12.00
 1992 348   124   121  111.0    3.9  107.2   1.38   1.42  159.1   50.0   57.2    1.4   1.42   0.68    0.00   12.23
 1992 349   125   122  111.5    7.3  104.2   1.36   1.38  159.9   48.6   55.6    1.4   1.38   0.68    0.00   12.48
 1992 350   126   123  111.8    9.8  102.0   1.35   1.35  160.6   47.6   54.4    1.4   1.35   0.68    0.00   12.72
 1992 351   127   124  112.4   12.9   99.4   1.34   1.32  161.5   46.4   53.0    1.3   1.32   0.68    0.00   12.96
 1992 352   128   125  112.8   16.4   96.4   1.33   1.28  162.3   45.0   51.4    1.3   1.28   0.69    0.00   13.21
 1992 353   129   126  113.3   19.8   93.5   1.32   1.24  163.2   43.6   49.9    1.2   1.24   0.69    0.00   13.45
 1992 354   130   127  113.8   23.1   90.6   1.31   1.20  164.0   42.3   48.4    1.2   1.20   0.70    0.00   13.70
 1992 355   131   128  114.2   26.5   87.7   1.30   1.17  164.7   40.9   46.8    1.2   1.17   0.70    0.00   13.95
 1992 356   132   129  114.7   29.7   85.0   1.29   1.13  165.5   39.6   45.3    1.1   1.13   0.71    0.00   14.20
 1992 357   133   130  115.0   32.9   82.1   1.28   1.10  166.1   38.8   43.3    1.1   1.10   0.71    0.00   14.46
 1992 358   134   131  115.4   36.0   79.4   1.27   1.08  166.8   38.0   41.4    1.1   1.08   0.72    0.00   14.71
 1992 359   135   132  121.3   39.1   82.2   1.26   1.11  176.5   38.9   43.3    1.1   1.11   0.77    0.00   14.97
 1992 360   136   133  123.6   42.1   81.5   1.26   1.09  180.1   38.3   43.3    1.1   1.09   0.79    0.00   15.24
 1992 361   137   134  124.8   44.8   80.0   1.26   1.06  181.9   37.3   42.7    1.1   1.06   0.80    0.00   15.52
 1992 362   138   135  125.5   47.4   78.0   1.26   1.04  183.1   36.4   41.6    1.0   1.04   0.80    0.00   15.81
 1992 363   139   136  125.9   50.6   75.3   1.25   1.00  183.8   35.1   40.2    1.0   1.00   0.80    0.00   16.09
 1992 364   140   137  126.5   53.7   72.8   1.25   0.98  184.7   34.5   38.2    1.0   0.98   0.81    0.00   16.38
 1992 365   141   138  126.9   56.5   70.4   1.24   0.97  185.3   34.0   36.5    1.0   0.97   0.82    0.00   16.67
 1992 366   142   139  127.3   58.8   68.5   1.23   0.95  185.9   33.4   35.1    0.9   0.95   0.82    0.00   16.96
 1993 001   143   140  127.4   61.3   66.2   1.23   0.93  186.2   32.6   33.5    0.9   0.93   0.83    0.00   17.25
 1993 002   144   141  127.6   63.7   63.9   1.22   0.91  186.6   32.0   32.0    0.9   0.91   0.83    0.00   17.54
 1993 003   145   142  127.9   66.2   61.6   1.22   0.89  186.9   31.3   30.3    0.9   0.89   0.84    0.00   17.83
 1993 004   146   143  128.1   69.1   59.0   1.21   0.86  187.3   30.2   28.8    0.9   0.86   0.85    0.00   18.13
 1993 005   147   144  128.4   72.0   56.4   1.21   0.82  187.8   28.8   27.6    0.8   0.82   0.85    0.00   18.42
 1993 006   148   145  129.0   74.8   54.2   1.20   0.78  188.7   27.4   26.8    0.8   0.78   0.85    0.00   18.71
 1993 007   149   146  129.5   77.4   52.1   1.19   0.76  189.4   26.8   25.3    0.8   0.76   0.86    0.00   19.01
 1993 008   150   147  130.0   79.9   50.0   1.18   0.74  190.1   25.9   24.2    0.7   0.74   0.87    0.00   19.31
 1993 009   151   148  130.3   82.2   48.1   1.17   0.70  190.6   24.7   23.4    0.7   0.70   0.87    0.00   19.60
 1993 010   152   149  131.0   84.5   46.4   1.16   0.68  191.5   23.8   22.7    0.7   0.68   0.88    0.00   19.90
 1993 011   153   150  131.6   86.8   44.8   1.15   0.65  192.4   22.9   22.0    0.7   0.65   0.89    0.00   20.20
 1993 012   154   151  132.4   89.0   43.4   1.14   0.63  193.5   22.2   21.3    0.6   0.63   0.89    0.00   20.50
 1993 013   155   152  133.1   91.1   42.0   1.13   0.62  194.5   21.7   20.4    0.6   0.62   0.90    0.00   20.80
 1993 014   156   153  133.9   93.1   40.7   1.12   0.61  195.5   21.4   19.3    0.6   0.61   0.91    0.00   21.10
 1993 015   157   154  134.6   95.2   39.4   1.10   0.60  196.4   20.9   18.5    0.6   0.60   0.92    0.00   21.41
 1993 016   158   155  135.0   97.1   37.9   1.09   0.59  197.0   20.6   17.3    0.6   0.59   0.92    0.00   21.71
 1993 017   159   156  135.6   98.6   37.1   1.08   0.58  197.9   20.2   16.9    0.6   0.58   0.93    0.00   22.02
 1993 018   160   157  136.4   99.8   36.6   1.08   0.57  198.9   20.0   16.6    0.6   0.57   0.94    0.00   22.32
 1993 019   161   158  136.4   99.8   36.6   1.08   0.57  199.9   20.0   16.6    0.6   0.57   0.94    0.00   22.32
 1993 020   162   159  136.4   99.8   36.6   1.08   0.57  200.9   20.0   16.6    0.6   0.57   0.94    0.00   22.32
 1993 021   163   160  136.4   99.8   36.6   1.08   0.57  201.9   20.0   16.6    0.6   0.57   0.94    0.00   22.32
