*PLANT N OUTPUT FILE

*DSSAT Cropping System Model Ver. 4.0.2.000               Aug 03, 2016; 15:29:28

*RUN   1        : UYMZ                    
 MODEL          : MZCER040 - Maize           
 EXPERIMENT     : UYMZ0128 MZ    late to create DSS                             
 TREATMENT  1   : UYMZ                    

@YEAR DOY   DAS   DAP   CNAD   GNAD   VNAD   GN%D   VN%D   NUPC   LNAD   SNAD   LN%D   SN%D   RN%D   SNN0C   SNN1C
 1990 215     3     0    0.0    0.0    0.0   0.00   0.00    0.0    0.0    0.0    0.0   0.00   0.00    0.00    0.00
 1990 216     4     1    0.0    0.0    0.0   0.00   0.00    0.0    0.0    0.0    0.0   0.00   0.00    0.00    0.00
 1990 217     5     2    0.0    0.0    0.0   0.00   0.00    0.0    0.0    0.0    0.0   0.00   0.00    0.00    0.00
 1990 218     6     3    0.0    0.0    0.0   0.00   0.00    0.0    0.0    0.0    0.0   0.00   0.00    0.00    0.00
 1990 219     7     4    0.0    0.0    0.0   0.00   0.00    0.0    0.0    0.0    0.0   0.00   0.00    0.00    0.00
 1990 220     8     5    0.0    0.0    0.0   0.00   0.00    0.0    0.0    0.0    0.0   0.00   0.00    0.00    0.00
 1990 221     9     6    0.0    0.0    0.0   0.00   0.00    0.0    0.0    0.0    0.0   0.00   0.00    0.00    0.00
 1990 222    10     7    0.0    0.0    0.0   0.00   0.00    0.0    0.0    0.0    0.0   0.00   0.00    0.00    0.00
 1990 223    11     8    0.0    0.0    0.0   0.00   0.00    0.0    0.0    0.0    0.0   0.00   0.00    0.00    0.00
 1990 224    12     9    0.0    0.0    0.0   0.00   0.00    0.0    0.0    0.0    0.0   0.00   0.00    0.00    0.00
 1990 225    13    10    0.0    0.0    0.0   0.00   0.00    0.0    0.0    0.0    0.0   0.00   0.00    0.00    0.00
 1990 226    14    11    0.0    0.0    0.0   0.00   0.00    0.0    0.0    0.0    0.0   0.00   0.00    0.00    0.00
 1990 227    15    12    0.0    0.0    0.0   0.00   0.00    0.0    0.0    0.0    0.0   0.00   0.00    0.00    0.00
 1990 228    16    13    0.0    0.0    0.0   0.00   0.00    0.0    0.0    0.0    0.0   0.00   0.00    0.00    0.00
 1990 229    17    14    0.0    0.0    0.0   0.00   0.00    0.0    0.0    0.0    0.0   0.00   0.00    0.00    0.00
 1990 230    18    15    0.0    0.0    0.0   0.00   0.00    0.0    0.0    0.0    0.0   0.00   0.00    0.00    0.00
 1990 231    19    16    0.0    0.0    0.0   0.00   0.00    0.0    0.0    0.0    0.0   0.00   0.00    0.00    0.00
 1990 232    20    17    0.0    0.0    0.0   0.00   0.00    0.0    0.0    0.0    0.0   0.00   0.00    0.00    0.00
 1990 233    21    18    0.0    0.0    0.0   0.00   0.00    0.0    0.0    0.0    0.0   0.00   0.00    0.00    0.00
 1990 234    22    19    0.0    0.0    0.0   0.00   0.00    0.0    0.0    0.0    0.0   0.00   0.00    0.00    0.00
 1990 235    23    20    0.0    0.0    0.0   0.00   0.00    0.0    0.0    0.0    0.0   0.00   0.00    0.00    0.00
 1990 236    24    21    0.0    0.0    0.0   0.00   0.00    0.0    0.0    0.0    0.0   0.00   0.00    0.00    0.00
 1990 237    25    22    1.2    0.0    1.2   0.00   4.40    0.0    0.6    0.6    4.4   4.40   0.00    0.00    0.00
 1990 238    26    23    1.3    0.0    1.3   0.00   4.53    0.2    0.6    0.6    4.5   4.53   1.09    0.00    0.00
 1990 239    27    24    1.3    0.0    1.3   0.00   4.53    0.2    0.6    0.6    4.5   4.53   1.08    0.00    0.00
 1990 240    28    25    1.3    0.0    1.3   0.00   4.52    0.2    0.6    0.6    4.5   4.52   1.20    0.00    0.00
 1990 241    29    26    1.3    0.0    1.3   0.00   4.52    0.2    0.6    0.6    4.5   4.52   1.18    0.00    0.00
 1990 242    30    27    1.3    0.0    1.3   0.00   4.52    0.2    0.6    0.6    4.5   4.52   1.16    0.00    0.00
 1990 243    31    28    1.3    0.0    1.3   0.00   4.52    0.2    0.6    0.6    4.5   4.52   1.16    0.00    0.00
 1990 244    32    29    1.3    0.0    1.3   0.00   4.52    0.2    0.6    0.6    4.5   4.52   1.16    0.00    0.00
 1990 245    33    30    1.3    0.0    1.3   0.00   4.52    0.2    0.6    0.6    4.5   4.52   1.16    0.00    0.00
 1990 246    34    31    1.3    0.0    1.3   0.00   4.52    0.2    0.6    0.6    4.5   4.52   1.15    0.00    0.00
 1990 247    35    32    1.3    0.0    1.3   0.00   4.52    0.2    0.6    0.6    4.5   4.52   1.16    0.00    0.00
 1990 248    36    33    1.3    0.0    1.3   0.00   4.52    0.2    0.6    0.6    4.5   4.52   1.15    0.00    0.00
 1990 249    37    34    1.3    0.0    1.3   0.00   4.52    0.2    0.6    0.6    4.5   4.52   1.14    0.00    0.00
 1990 250    38    35    1.3    0.0    1.3   0.00   4.52    0.2    0.6    0.6    4.5   4.52   1.12    0.00    0.00
 1990 251    39    36    1.3    0.0    1.3   0.00   4.52    0.2    0.6    0.6    4.5   4.52   1.11    0.00    0.00
 1990 252    40    37    1.3    0.0    1.3   0.00   4.52    0.2    0.6    0.6    4.5   4.52   1.00    0.00    0.00
 1990 253    41    38    1.2    0.0    1.2   0.00   4.36    0.2    0.6    0.6    4.4   4.36   1.16    0.00    0.00
 1990 254    42    39    1.2    0.0    1.2   0.00   4.34    0.2    0.6    0.6    4.3   4.34   1.18    0.00    0.00
 1990 255    43    40    1.2    0.0    1.2   0.00   4.28    0.3    0.6    0.6    4.3   4.28   1.42    0.00    0.00
 1990 256    44    41    1.2    0.0    1.2   0.00   4.27    0.4    0.6    0.6    4.3   4.27   1.48    0.00    0.01
 1990 257    45    42    1.2    0.0    1.2   0.00   4.20    0.4    0.7    0.6    4.2   4.20   1.40    0.00    0.01
 1990 258    46    43    1.3    0.0    1.3   0.00   4.02    0.4    0.7    0.6    4.0   4.02   1.22    0.00    0.01
 1990 259    47    44    1.4    0.0    1.4   0.00   3.76    0.5    0.8    0.5    3.8   3.76   1.15    0.00    0.01
 1990 260    48    45    1.6    0.0    1.6   0.00   3.85    0.7    1.0    0.5    3.8   3.85   1.12    0.00    0.01
 1990 261    49    46    1.7    0.0    1.7   0.00   3.83    0.9    1.2    0.5    3.8   3.83   1.12    0.00    0.02
 1990 262    50    47    1.9    0.0    1.9   0.00   3.85    1.2    1.4    0.5    3.8   3.85   1.20    0.00    0.02
 1990 263    51    48    2.1    0.0    2.1   0.00   3.79    1.4    1.6    0.5    3.8   3.79   1.10    0.00    0.02
 1990 264    52    49    2.3    0.0    2.3   0.00   3.62    1.6    1.8    0.5    3.6   3.62   1.09    0.00    0.02
 1990 265    53    50    2.7    0.0    2.7   0.00   3.81    2.3    2.2    0.5    3.8   3.81   1.35    0.00    0.03
 1990 266    54    51    3.0    0.0    3.0   0.00   4.07    2.7    2.4    0.6    4.1   4.07   1.46    0.00    0.03
 1990 267    55    52    3.1    0.0    3.1   0.00   4.04    3.0    2.5    0.6    4.0   4.04   1.47    0.00    0.03
 1990 268    56    53    3.2    0.0    3.2   0.00   4.00    3.2    2.6    0.6    4.0   4.00   1.39    0.00    0.04
 1990 269    57    54    3.3    0.0    3.3   0.00   3.80    3.5    2.8    0.5    3.8   3.80   1.25    0.00    0.05
 1990 270    58    55    3.6    0.0    3.6   0.00   3.61    3.9    3.1    0.5    3.6   3.61   1.21    0.00    0.05
 1990 271    59    56    4.1    0.0    4.1   0.00   3.64    4.3    3.6    0.5    3.6   3.64   1.08    0.00    0.06
 1990 272    60    57    4.6    0.0    4.6   0.00   3.61    5.2    4.1    0.5    3.6   3.61   1.21    0.00    0.07
 1990 273    61    58    5.2    0.0    5.2   0.00   3.57    6.1    4.7    0.5    3.6   3.57   1.21    0.00    0.08
 1990 274    62    59    5.9    0.0    5.9   0.00   3.40    7.1    5.4    0.5    3.4   3.40   1.21    0.00    0.09
 1990 275    63    60    6.9    0.0    6.9   0.00   3.51    8.8    6.4    0.5    3.5   3.51   1.25    0.00    0.10
 1990 276    64    61    7.8    0.0    7.8   0.00   3.42   10.1    7.4    0.5    3.4   3.42   1.21    0.00    0.12
 1990 277    65    62    9.0    0.0    9.0   0.00   3.28   11.4    8.6    0.5    3.3   3.28   1.16    0.00    0.13
 1990 278    66    63   10.8    0.0   10.8   0.00   3.52   13.0   10.3    0.5    3.5   3.52   1.09    0.00    0.15
 1990 279    67    64   11.9    0.0   11.9   0.00   3.65   14.6   11.4    0.5    3.7   3.65   1.14    0.00    0.17
 1990 280    68    65   12.7    0.0   12.7   0.00   3.46   15.3   12.3    0.5    3.5   3.46   1.09    0.00    0.19
 1990 281    69    66   14.0    0.0   14.0   0.00   3.63   17.3   13.5    0.5    3.6   3.63   1.17    0.00    0.21
 1990 282    70    67   15.8    0.0   15.8   0.00   3.78   20.6   15.3    0.5    3.8   3.78   1.27    0.00    0.23
 1990 283    71    68   17.0    0.0   17.0   0.00   3.68   22.4   16.5    0.5    3.7   3.68   1.22    0.00    0.26
 1990 284    72    69   18.3    0.0   18.3   0.00   3.57   23.3   17.8    0.5    3.6   3.57   1.10    0.00    0.29
 1990 285    73    70   19.6    0.0   19.6   0.00   3.54   26.9   19.1    0.5    3.5   3.54   1.25    0.00    0.32
 1990 286    74    71   20.8    0.0   20.8   0.00   3.52   29.5   20.2    0.5    3.5   3.52   1.24    0.00    0.36
 1990 287    75    72   22.4    0.0   22.4   0.00   3.49   32.2   21.9    0.6    3.5   3.49   1.21    0.00    0.41
 1990 288    76    73   23.7    0.0   23.7   0.00   3.47   35.0   23.0    0.6    3.5   3.47   1.21    0.00    0.47
 1990 289    77    74   24.7    0.0   24.7   0.00   3.45   37.7   24.1    0.7    3.5   3.45   1.20    0.00    0.53
 1990 290    78    75   26.2    0.0   26.2   0.00   3.43   39.0   25.5    0.7    3.4   3.43   1.13    0.00    0.60
 1990 291    79    76   29.1    0.0   29.1   0.00   3.40   43.5   28.2    0.9    3.4   3.40   1.16    0.00    0.67
 1990 292    80    77   32.1    0.0   32.1   0.00   3.37   46.7   30.9    1.2    3.4   3.37   1.12    0.00    0.75
 1990 293    81    78   35.2    0.0   35.2   0.00   3.33   50.4   33.7    1.5    3.3   3.33   1.11    0.00    0.83
 1990 294    82    79   38.2    0.0   38.2   0.00   3.30   55.1   36.3    1.9    3.3   3.30   1.14    0.00    0.91
 1990 295    83    80   41.3    0.0   41.3   0.00   3.26   60.2   38.9    2.4    3.3   3.26   1.16    0.00    1.00
 1990 296    84    81   44.6    0.0   44.6   0.00   3.23   64.1   41.5    3.0    3.2   3.23   1.13    0.00    1.10
 1990 297    85    82   47.5    0.0   47.5   0.00   3.20   68.3   43.9    3.7    3.2   3.20   1.13    0.00    1.21
 1990 298    86    83   50.6    0.0   50.6   0.00   3.17   71.4   46.2    4.4    3.2   3.17   1.10    0.00    1.31
 1990 299    87    84   55.0    0.0   55.0   0.00   3.14   77.8   49.4    5.6    3.1   3.14   1.13    0.00    1.42
 1990 300    88    85   59.8    0.0   59.8   0.00   3.09   82.8   52.8    7.1    3.1   3.09   1.11    0.00    1.54
 1990 301    89    86   63.4    0.0   63.4   0.00   3.06   85.5   55.1    8.3    3.1   3.06   1.07    0.00    1.66
 1990 302    90    87   68.4    0.0   68.4   0.00   3.01   90.6   58.2   10.2    3.0   3.01   1.07    0.00    1.78
 1990 303    91    88   73.1    0.0   73.1   0.00   2.93   97.4   60.7   12.4    2.9   2.93   1.11    0.00    1.90
 1990 304    92    89   77.1    0.0   77.1   0.00   2.88  103.0   62.8   14.3    2.9   2.88   1.11    0.00    2.02
 1990 305    93    90   81.0    0.0   81.0   0.00   2.82  107.7   64.6   16.4    2.8   2.82   1.09    0.00    2.16
 1990 306    94    91   84.4    0.0   84.4   0.00   2.73  111.5   65.9   18.6    2.7   2.73   1.08    0.00    2.30
 1990 307    95    92   87.8    0.0   87.8   0.00   2.66  114.8   67.1   20.7    2.7   2.66   1.08    0.00    2.44
 1990 308    96    93   90.0    0.0   90.0   0.00   2.60  117.5   67.6   22.4    2.6   2.60   1.05    0.00    2.58
 1990 309    97    94   91.4    0.0   91.4   0.00   2.57  119.6   68.1   23.4    2.6   2.57   1.00    0.00    2.72
 1990 310    98    95   92.9    0.0   92.9   0.00   2.51  121.7   68.2   24.7    2.5   2.51   0.99    0.00    2.86
 1990 311    99    96   94.2    0.0   94.2   0.00   2.40  123.4   67.7   26.5    2.4   2.40   0.97    0.00    3.01
 1990 312   100    97   95.4    0.0   95.4   0.00   2.34  124.8   67.7   27.7    2.3   2.34   0.98    0.00    3.16
 1990 313   101    98   96.5    0.0   96.5   0.00   2.22  126.0   67.6   29.0    2.2   2.22   0.99    0.00    3.31
 1990 314   102    99   97.5    0.0   97.5   0.00   2.09  127.1   66.7   30.8    2.1   2.09   0.98    0.00    3.47
 1990 315   103   100   98.3    0.0   98.3   0.00   1.96  128.0   65.5   32.9    2.0   1.96   0.97    0.00    3.62
 1990 316   104   101   99.1    0.0   99.1   0.00   1.90  128.9   64.8   34.3    1.9   1.90   0.97    0.00    3.77
 1990 317   105   102   99.8    0.0   99.8   0.00   1.78  129.6   63.0   36.8    1.8   1.78   0.96    0.00    3.92
 1990 318   106   103  100.5    0.0  100.5   0.00   1.71  130.3   62.0   38.5    1.7   1.71   0.96    0.00    4.08
 1990 319   107   104  101.4    0.0  101.4   0.00   1.68  131.4   61.8   39.7    1.7   1.68   0.97    0.00    4.23
 1990 320   108   105  102.4    0.0  102.4   0.00   1.65  132.5   61.5   41.0    1.7   1.65   0.95    0.00    4.38
 1990 321   109   106  103.7    0.0  103.7   0.00   1.63  134.0   61.3   42.4    1.6   1.63   0.91    0.00    4.54
 1990 322   110   107  105.2    0.0  105.2   0.00   1.58  135.6   60.8   44.4    1.6   1.58   0.89    0.00    4.69
 1990 323   111   108  106.6    0.0  106.6   0.00   1.52  137.2   59.9   46.7    1.5   1.52   0.88    0.00    4.85
 1990 324   112   109  107.9    0.0  107.9   0.00   1.50  138.6   59.6   48.2    1.5   1.50   0.88    0.00    5.01
 1990 325   113   110  109.0    0.0  109.0   0.00   1.46  140.0   59.1   49.9    1.5   1.46   0.86    0.00    5.16
 1990 326   114   111  110.2    0.0  110.2   0.00   1.43  141.3   58.8   51.4    1.4   1.43   0.83    0.00    5.32
 1990 327   115   112  111.2    0.0  111.2   0.00   1.40  142.6   58.5   52.8    1.4   1.40   0.81    0.00    5.48
 1990 328   116   113  112.2    0.0  112.2   0.00   1.37  143.8   58.1   54.1    1.4   1.37   0.80    0.00    5.64
 1990 329   117   114  113.2    0.0  113.2   0.00   1.50  144.9   62.8   50.4    1.5   1.50   0.79    0.00    5.80
 1990 330   118   115  114.0    0.0  114.0   0.00   1.51  145.9   62.5   51.5    1.5   1.51   0.78    0.00    5.97
 1990 331   119   116  114.6    0.0  114.6   0.00   1.52  146.8   62.2   52.4    1.5   1.52   0.75    0.00    6.13
 1990 332   120   117  115.5    0.0  115.5   0.00   1.53  148.0   62.0   53.5    1.5   1.53   0.72    0.00    6.29
 1990 333   121   118  116.3    0.0  116.3   0.00   1.54  149.1   61.5   54.7    1.5   1.54   0.71    0.00    6.46
 1990 334   122   119  117.1    0.0  117.1   0.00   1.55  150.3   61.0   56.1    1.6   1.55   0.71    0.00    6.62
 1990 335   123   120  117.8    0.0  117.8   0.00   1.56  151.4   60.4   57.4    1.6   1.56   0.71    0.00    6.79
 1990 336   124   121  118.5    0.0  118.5   0.00   1.57  152.4   60.0   58.5    1.6   1.57   0.72    0.00    6.96
 1990 337   125   122  119.2    0.0  119.2   0.00   1.58  153.5   59.5   59.7    1.6   1.58   0.70    0.00    7.14
 1990 338   126   123  119.7    0.0  119.7   0.00   1.59  154.4   58.7   61.0    1.6   1.59   0.69    0.00    7.31
 1990 339   127   124  120.3    0.0  120.3   0.00   1.59  155.4   57.8   62.5    1.6   1.59   0.70    0.00    7.49
 1990 340   128   125  120.9    0.0  120.9   0.00   1.60  156.4   56.9   63.9    1.6   1.60   0.70    0.00    7.66
 1990 341   129   126  121.2    0.0  121.2   0.00   1.61  157.1   56.0   65.3    1.6   1.61   0.69    0.00    7.84
 1990 342   130   127  121.6    0.0  121.6   0.00   1.61  157.9   55.0   66.6    1.6   1.61   0.68    0.00    8.02
 1990 343   131   128  122.0    2.3  119.7   1.51   1.59  158.8   54.2   65.5    1.6   1.59   0.69    0.00    8.21
 1990 344   132   129  122.2    4.9  117.3   1.50   1.56  159.2   53.1   64.2    1.6   1.56   0.70    0.00    8.39
 1990 345   133   130  122.5    8.2  114.3   1.50   1.52  159.7   51.7   62.6    1.5   1.52   0.70    0.00    8.58
 1990 346   134   131  122.8   10.2  112.6   1.49   1.50  160.3   51.0   61.6    1.5   1.50   0.70    0.00    8.77
 1990 347   135   132  123.1   13.2  110.0   1.48   1.46  160.9   49.8   60.2    1.5   1.46   0.71    0.00    8.96
 1990 348   136   133  123.6   15.1  108.5   1.47   1.44  161.7   49.1   59.4    1.4   1.44   0.70    0.00    9.15
 1990 349   137   134  124.0   18.0  106.0   1.47   1.41  162.5   48.0   58.0    1.4   1.41   0.70    0.00    9.34
 1990 350   138   135  124.5   21.8  102.7   1.46   1.36  163.3   46.5   56.2    1.4   1.36   0.70    0.00    9.54
 1990 351   139   136  125.0   25.7   99.2   1.45   1.32  164.2   45.0   54.2    1.3   1.32   0.71    0.00    9.73
 1990 352   140   137  125.4   29.2   96.2   1.44   1.28  164.9   43.5   52.7    1.3   1.28   0.71    0.00    9.93
 1990 353   141   138  125.8   32.2   93.5   1.43   1.24  165.5   42.3   51.2    1.2   1.24   0.71    0.00   10.13
 1990 354   142   139  126.3   35.3   90.9   1.42   1.21  166.4   41.2   49.8    1.2   1.21   0.71    0.00   10.33
 1990 355   143   140  126.8   39.0   87.9   1.41   1.17  167.3   39.8   48.1    1.2   1.17   0.71    0.00   10.53
 1990 356   144   141  127.3   42.5   84.8   1.39   1.14  168.1   38.9   45.9    1.1   1.14   0.72    0.00   10.73
 1990 357   145   142  127.7   46.0   81.7   1.38   1.10  168.7   37.4   44.3    1.1   1.10   0.73    0.00   10.94
 1990 358   146   143  128.0   48.7   79.3   1.37   1.07  169.2   36.3   43.0    1.1   1.07   0.74    0.00   11.14
 1990 359   147   144  128.4   51.2   77.2   1.36   1.03  169.9   35.0   42.3    1.0   1.03   0.73    0.00   11.35
 1990 360   148   145  129.1   54.5   74.6   1.35   0.99  171.0   33.8   40.9    1.0   0.99   0.74    0.00   11.56
 1990 361   149   146  129.7   57.7   72.0   1.34   0.96  171.9   32.6   39.4    1.0   0.96   0.74    0.00   11.77
 1990 362   150   147  130.4   59.4   71.0   1.33   0.94  173.0   32.1   38.9    0.9   0.94   0.74    0.00   11.98
 1990 363   151   148  131.0   61.0   70.0   1.32   0.93  173.9   31.7   38.3    0.9   0.93   0.74    0.00   12.19
 1990 364   152   149  131.6   63.2   68.3   1.31   0.91  174.7   30.9   37.4    0.9   0.91   0.74    0.00   12.40
 1990 365   153   150  132.1   66.1   66.0   1.30   0.88  175.6   29.9   36.1    0.9   0.88   0.74    0.00   12.62
 1991 001   154   151  132.6   69.1   63.6   1.28   0.84  176.4   28.8   34.8    0.8   0.84   0.74    0.00   12.84
 1991 002   155   152  133.2   71.9   61.3   1.27   0.81  177.2   27.7   33.5    0.8   0.81   0.75    0.00   13.06
 1991 003   156   153  133.7   74.7   59.1   1.26   0.78  178.1   26.7   32.3    0.8   0.78   0.76    0.00   13.28
 1991 004   157   154  134.3   77.0   57.3   1.24   0.76  178.9   26.0   31.4    0.8   0.76   0.76    0.00   13.50
 1991 005   158   155  134.9   79.2   55.6   1.23   0.74  179.8   25.2   30.5    0.7   0.74   0.76    0.00   13.72
 1991 006   159   156  135.4   81.6   53.9   1.22   0.72  180.6   24.4   29.5    0.7   0.72   0.77    0.00   13.94
 1991 007   160   157  136.0   84.0   52.0   1.20   0.69  181.4   23.5   28.4    0.7   0.69   0.77    0.00   14.17
 1991 008   161   158  136.5   86.4   50.1   1.19   0.67  182.1   22.7   27.4    0.7   0.67   0.78    0.00   14.39
 1991 009   162   159  137.0   88.6   48.4   1.18   0.66  182.9   22.4   25.9    0.7   0.66   0.79    0.00   14.62
 1991 010   163   160  137.5   90.8   46.7   1.16   0.64  183.6   21.7   25.0    0.6   0.64   0.79    0.00   14.85
 1991 011   164   161  138.0   92.8   45.2   1.15   0.62  184.2   21.1   24.0    0.6   0.62   0.80    0.00   15.08
 1991 012   165   162  138.5   94.4   44.1   1.14   0.60  185.0   20.6   23.5    0.6   0.60   0.81    0.00   15.31
 1991 013   166   163  138.9   96.0   42.9   1.13   0.59  185.6   20.2   22.7    0.6   0.59   0.81    0.00   15.54
 1991 014   167   164  139.3   97.7   41.6   1.11   0.58  186.1   19.7   21.9    0.6   0.58   0.82    0.00   15.77
 1991 015   168   165  139.9   99.6   40.3   1.10   0.56  186.7   19.2   21.0    0.6   0.56   0.82    0.00   16.00
 1991 016   169   166  140.2  100.7   39.5   1.09   0.56  187.2   19.0   20.6    0.6   0.56   0.83    0.00   16.24
 1991 017   170   167  140.5  101.5   39.1   1.08   0.55  187.6   18.7   20.4    0.5   0.55   0.83    0.00   16.47
 1991 018   171   168  141.0  102.7   38.2   1.07   0.54  188.1   18.3   19.9    0.5   0.54   0.84    0.00   16.70
 1991 019   172   169  141.7  104.2   37.5   1.06   0.53  188.5   18.2   19.3    0.5   0.53   0.84    0.00   16.93
 1991 020   173   170  141.7  104.2   37.5   1.06   0.53  189.0   18.2   19.3    0.5   0.53   0.84    0.00   16.93
 1991 021   174   171  141.7  104.2   37.5   1.06   0.53  189.4   18.2   19.3    0.5   0.53   0.84    0.00   16.93
 1991 022   175   172  141.7  104.2   37.5   1.06   0.53  189.9   18.2   19.3    0.5   0.53   0.84    0.00   16.93
 1991 023   176   173  141.7  104.2   37.5   1.06   0.53  190.3   18.2   19.3    0.5   0.53   0.84    0.00   16.93

*DSSAT Cropping System Model Ver. 4.0.2.000               Aug 03, 2016; 15:29:28

*RUN   2        : UYMZ                    
 MODEL          : MZCER040 - Maize           
 EXPERIMENT     : UYMZ0128 MZ    late to create DSS                             
 TREATMENT  1   : UYMZ                    

@YEAR DOY   DAS   DAP   CNAD   GNAD   VNAD   GN%D   VN%D   NUPC   LNAD   SNAD   LN%D   SN%D   RN%D   SNN0C   SNN1C
 1991 215     3     0    0.0    0.0    0.0   0.00   0.00    0.0    0.0    0.0    0.0   0.00   0.00    0.00    0.00
 1991 216     4     1    0.0    0.0    0.0   0.00   0.00    0.0    0.0    0.0    0.0   0.00   0.00    0.00    0.00
 1991 217     5     2    0.0    0.0    0.0   0.00   0.00    0.0    0.0    0.0    0.0   0.00   0.00    0.00    0.00
 1991 218     6     3    0.0    0.0    0.0   0.00   0.00    0.0    0.0    0.0    0.0   0.00   0.00    0.00    0.00
 1991 219     7     4    0.0    0.0    0.0   0.00   0.00    0.0    0.0    0.0    0.0   0.00   0.00    0.00    0.00
 1991 220     8     5    0.0    0.0    0.0   0.00   0.00    0.0    0.0    0.0    0.0   0.00   0.00    0.00    0.00
 1991 221     9     6    0.0    0.0    0.0   0.00   0.00    0.0    0.0    0.0    0.0   0.00   0.00    0.00    0.00
 1991 222    10     7    0.0    0.0    0.0   0.00   0.00    0.0    0.0    0.0    0.0   0.00   0.00    0.00    0.00
 1991 223    11     8    0.0    0.0    0.0   0.00   0.00    0.0    0.0    0.0    0.0   0.00   0.00    0.00    0.00
 1991 224    12     9    0.0    0.0    0.0   0.00   0.00    0.0    0.0    0.0    0.0   0.00   0.00    0.00    0.00
 1991 225    13    10    0.0    0.0    0.0   0.00   0.00    0.0    0.0    0.0    0.0   0.00   0.00    0.00    0.00
 1991 226    14    11    0.0    0.0    0.0   0.00   0.00    0.0    0.0    0.0    0.0   0.00   0.00    0.00    0.00
 1991 227    15    12    0.0    0.0    0.0   0.00   0.00    0.0    0.0    0.0    0.0   0.00   0.00    0.00    0.00
 1991 228    16    13    1.2    0.0    1.2   0.00   4.40    0.0    0.6    0.6    4.4   4.40   0.00    0.00    0.00
 1991 229    17    14    1.3    0.0    1.3   0.00   4.54    0.2    0.6    0.6    4.5   4.54   1.10    0.00    0.00
 1991 230    18    15    1.3    0.0    1.3   0.00   4.54    0.2    0.6    0.6    4.5   4.54   1.07    0.00    0.00
 1991 231    19    16    1.3    0.0    1.3   0.00   4.48    0.2    0.6    0.6    4.5   4.48   1.13    0.00    0.00
 1991 232    20    17    1.2    0.0    1.2   0.00   4.45    0.2    0.6    0.6    4.5   4.45   1.13    0.00    0.00
 1991 233    21    18    1.2    0.0    1.2   0.00   4.42    0.2    0.6    0.6    4.4   4.42   1.18    0.00    0.00
 1991 234    22    19    1.2    0.0    1.2   0.00   4.39    0.2    0.6    0.6    4.4   4.39   1.19    0.00    0.00
 1991 235    23    20    1.2    0.0    1.2   0.00   4.37    0.3    0.6    0.6    4.4   4.37   1.27    0.00    0.01
 1991 236    24    21    1.2    0.0    1.2   0.00   3.82    0.4    0.7    0.5    3.8   3.82   1.23    0.00    0.01
 1991 237    25    22    1.4    0.0    1.4   0.00   3.61    0.6    0.9    0.5    3.6   3.61   1.19    0.00    0.01
 1991 238    26    23    1.6    0.0    1.6   0.00   3.88    0.8    1.1    0.5    3.9   3.88   1.10    0.00    0.01
 1991 239    27    24    1.8    0.0    1.8   0.00   3.95    1.0    1.3    0.6    4.0   3.95   1.12    0.00    0.01
 1991 240    28    25    2.0    0.0    2.0   0.00   3.70    1.2    1.4    0.5    3.7   3.70   1.19    0.00    0.01
 1991 241    29    26    2.3    0.0    2.3   0.00   3.59    1.6    1.7    0.5    3.6   3.59   1.18    0.00    0.02
 1991 242    30    27    2.6    0.0    2.6   0.00   3.52    1.9    2.1    0.5    3.5   3.52   1.11    0.00    0.02
 1991 243    31    28    3.1    0.0    3.1   0.00   3.87    2.5    2.6    0.5    3.9   3.87   1.14    0.00    0.02
 1991 244    32    29    3.4    0.0    3.4   0.00   3.95    2.9    2.9    0.6    3.9   3.95   1.28    0.00    0.03
 1991 245    33    30    3.6    0.0    3.6   0.00   3.82    3.1    3.1    0.5    3.8   3.82   1.13    0.00    0.03
 1991 246    34    31    3.9    0.0    3.9   0.00   3.60    3.5    3.4    0.5    3.6   3.60   1.21    0.00    0.03
 1991 247    35    32    4.5    0.0    4.5   0.00   3.50    4.5    4.0    0.5    3.5   3.50   1.32    0.00    0.04
 1991 248    36    33    5.2    0.0    5.2   0.00   3.45    5.5    4.7    0.5    3.4   3.45   1.29    0.00    0.04
 1991 249    37    34    6.1    0.0    6.1   0.00   3.54    6.2    5.6    0.5    3.5   3.54   1.09    0.00    0.05
 1991 250    38    35    7.0    0.0    7.0   0.00   3.73    7.2    6.5    0.5    3.7   3.73   1.12    0.00    0.06
 1991 251    39    36    7.6    0.0    7.6   0.00   3.77    7.9    7.0    0.5    3.8   3.77   1.15    0.00    0.06
 1991 252    40    37    8.1    0.0    8.1   0.00   3.72    9.1    7.5    0.5    3.7   3.72   1.29    0.00    0.07
 1991 253    41    38    8.7    0.0    8.7   0.00   3.62   10.1    8.2    0.5    3.6   3.62   1.27    0.00    0.08
 1991 254    42    39    9.5    0.0    9.5   0.00   3.52   11.6    9.0    0.5    3.5   3.52   1.27    0.00    0.10
 1991 255    43    40   10.6    0.0   10.6   0.00   3.40   13.2   10.1    0.5    3.4   3.40   1.23    0.00    0.11
 1991 256    44    41   12.2    0.0   12.2   0.00   3.31   14.9   11.7    0.5    3.3   3.31   1.16    0.00    0.13
 1991 257    45    42   14.3    0.0   14.3   0.00   3.91   17.3   13.8    0.5    3.9   3.91   1.14    0.00    0.15
 1991 258    46    43   14.3    0.0   14.3   0.00   3.82   17.3   13.8    0.5    3.8   3.82   1.12    0.00    0.15
 1991 259    47    44   14.3    0.0   14.3   0.00   3.41   17.6   13.8    0.5    3.4   3.41   1.14    0.00    0.17
 1991 260    48    45   17.5    0.0   17.5   0.00   3.78   20.6   16.9    0.5    3.8   3.78   1.09    0.00    0.20
 1991 261    49    46   18.3    0.0   18.3   0.00   3.68   23.1   17.8    0.5    3.7   3.68   1.25    0.00    0.22
 1991 262    50    47   18.8    0.0   18.8   0.00   3.60   24.9   18.3    0.5    3.6   3.60   1.28    0.00    0.25
 1991 263    51    48   20.1    0.0   20.1   0.00   3.56   26.0   19.5    0.5    3.6   3.56   1.16    0.00    0.28
 1991 264    52    49   22.2    0.0   22.2   0.00   3.52   28.2   21.7    0.5    3.5   3.52   1.12    0.00    0.32
 1991 265    53    50   23.5    0.0   23.5   0.00   3.50   31.4   23.0    0.6    3.5   3.50   1.22    0.00    0.36
 1991 266    54    51   24.4    0.0   24.4   0.00   3.52   33.7   23.8    0.6    3.5   3.52   1.27    0.00    0.40
 1991 267    55    52   25.1    0.0   25.1   0.00   3.48   35.2   24.5    0.6    3.5   3.48   1.22    0.00    0.45
 1991 268    56    53   26.5    0.0   26.5   0.00   3.45   37.3   25.8    0.7    3.4   3.45   1.17    0.00    0.51
 1991 269    57    54   28.4    0.0   28.4   0.00   3.43   40.4   27.6    0.8    3.4   3.43   1.17    0.00    0.57
 1991 270    58    55   31.7    0.0   31.7   0.00   3.39   43.8   30.7    1.0    3.4   3.39   1.12    0.00    0.64
 1991 271    59    56   33.1    0.0   33.1   0.00   3.40   47.3   32.0    1.1    3.4   3.40   1.20    0.00    0.70
 1991 272    60    57   34.2    0.0   34.2   0.00   3.37   49.4   33.0    1.2    3.4   3.37   1.18    0.00    0.78
 1991 273    61    58   35.9    0.0   35.9   0.00   3.34   52.1   34.5    1.4    3.3   3.34   1.15    0.00    0.86
 1991 274    62    59   37.3    0.0   37.3   0.00   3.33   54.7   35.7    1.5    3.3   3.33   1.15    0.00    0.95
 1991 275    63    60   38.5    0.0   38.5   0.00   3.32   57.5   36.8    1.7    3.3   3.32   1.16    0.00    1.04
 1991 276    64    61   39.7    0.0   39.7   0.00   3.30   60.2   37.9    1.9    3.3   3.30   1.16    0.00    1.14
 1991 277    65    62   41.4    0.0   41.4   0.00   3.27   62.5   39.3    2.1    3.3   3.27   1.13    0.00    1.25
 1991 278    66    63   43.2    0.0   43.2   0.00   3.31   63.5   40.9    2.3    3.3   3.31   1.08    0.00    1.36
 1991 279    67    64   43.7    0.0   43.7   0.00   3.31   65.3   41.3    2.4    3.3   3.31   1.13    0.00    1.47
 1991 280    68    65   44.3    0.0   44.3   0.00   3.29   66.5   41.8    2.5    3.3   3.29   1.14    0.00    1.58
 1991 281    69    66   45.1    0.0   45.1   0.00   3.27   69.1   42.4    2.7    3.3   3.27   1.17    0.00    1.70
 1991 282    70    67   46.5    0.0   46.5   0.00   3.22   70.8   43.5    3.0    3.2   3.22   1.12    0.00    1.82
 1991 283    71    68   48.6    0.0   48.6   0.00   3.20   74.7   45.2    3.4    3.2   3.20   1.13    0.00    1.95
 1991 284    72    69   51.3    0.0   51.3   0.00   3.18   78.7   47.2    4.0    3.2   3.18   1.13    0.00    2.09
 1991 285    73    70   55.3    0.0   55.3   0.00   3.14   83.7   50.2    5.1    3.1   3.14   1.12    0.00    2.23
 1991 286    74    71   61.3    0.0   61.3   0.00   3.08   89.7   54.3    6.9    3.1   3.08   1.09    0.00    2.38
 1991 287    75    72   65.7    0.0   65.7   0.00   3.03   93.5   57.1    8.6    3.0   3.03   1.07    0.00    2.52
 1991 288    76    73   68.6    0.0   68.6   0.00   3.00   96.2   58.8    9.7    3.0   3.00   1.07    0.00    2.67
 1991 289    77    74   70.3    0.0   70.3   0.00   2.95   98.1   59.7   10.6    3.0   2.95   1.07    0.00    2.81
 1991 290    78    75   71.8    0.0   71.8   0.00   2.96  101.0   60.7   11.1    3.0   2.96   1.09    0.00    2.95
 1991 291    79    76   73.3    0.0   73.3   0.00   2.90  104.2   61.3   12.0    2.9   2.90   1.09    0.00    3.10
 1991 292    80    77   75.2    0.0   75.2   0.00   2.81  107.0   61.8   13.4    2.8   2.81   1.07    0.00    3.26
 1991 293    81    78   76.8    0.0   76.8   0.00   2.69  109.3   62.0   14.9    2.7   2.69   1.04    0.00    3.43
 1991 294    82    79   78.4    0.0   78.4   0.00   2.53  111.3   61.6   16.7    2.5   2.53   1.03    0.00    3.59
 1991 295    83    80   79.9    0.0   79.9   0.00   2.34  112.9   60.8   19.1    2.3   2.34   1.03    0.00    3.76
 1991 296    84    81   81.3    0.0   81.3   0.00   2.29  114.4   61.1   20.2    2.3   2.29   1.03    0.00    3.93
 1991 297    85    82   82.5    0.0   82.5   0.00   2.25  115.7   61.3   21.2    2.3   2.25   1.03    0.00    4.10
 1991 298    86    83   83.6    0.0   83.6   0.00   2.21  116.9   61.4   22.2    2.2   2.21   1.04    0.00    4.27
 1991 299    87    84   84.6    0.0   84.6   0.00   2.03  117.9   60.5   24.0    2.0   2.03   1.04    0.00    4.44
 1991 300    88    85   85.5    0.0   85.5   0.00   1.95  118.9   60.1   25.3    2.0   1.95   1.04    0.00    4.61
 1991 301    89    86   86.3    0.0   86.3   0.00   1.91  119.7   59.9   26.3    1.9   1.91   1.04    0.00    4.78
 1991 302    90    87   86.9    0.0   86.9   0.00   1.87  120.3   59.6   27.3    1.9   1.87   1.05    0.00    4.95
 1991 303    91    88   87.4    0.0   87.4   0.00   1.83  120.9   59.2   28.2    1.8   1.83   1.05    0.00    5.13
 1991 304    92    89   87.9    0.0   87.9   0.00   1.79  121.4   58.7   29.2    1.8   1.79   1.05    0.00    5.30
 1991 305    93    90   88.4    0.0   88.4   0.00   1.73  121.9   57.9   30.6    1.7   1.73   1.04    0.00    5.47
 1991 306    94    91   89.0    0.0   89.0   0.00   1.68  122.5   57.2   31.8    1.7   1.68   1.00    0.00    5.64
 1991 307    95    92   89.6    0.0   89.6   0.00   1.64  123.2   56.6   33.0    1.6   1.64   0.98    0.00    5.81
 1991 308    96    93   90.1    0.0   90.1   0.00   1.59  123.8   55.9   34.2    1.6   1.59   0.94    0.00    5.98
 1991 309    97    94   91.3    0.0   91.3   0.00   1.56  125.2   55.5   35.8    1.6   1.56   0.93    0.00    6.15
 1991 310    98    95   92.6    0.0   92.6   0.00   1.53  126.6   55.3   37.3    1.5   1.53   0.93    0.00    6.32
 1991 311    99    96   93.7    0.0   93.7   0.00   1.50  127.8   55.1   38.6    1.5   1.50   0.92    0.00    6.50
 1991 312   100    97   94.9    0.0   94.9   0.00   1.49  129.1   55.1   39.8    1.5   1.49   0.90    0.00    6.67
 1991 313   101    98   95.8    0.0   95.8   0.00   1.47  130.3   54.9   40.9    1.5   1.47   0.87    0.00    6.85
 1991 314   102    99   96.8    0.0   96.8   0.00   1.45  131.4   54.7   42.1    1.4   1.45   0.86    0.00    7.02
 1991 315   103   100   97.6    0.0   97.6   0.00   1.44  132.4   54.7   43.0    1.4   1.44   0.85    0.00    7.20
 1991 316   104   101   98.4    0.0   98.4   0.00   1.43  133.3   54.8   43.6    1.4   1.43   0.81    0.00    7.37
 1991 317   105   102   99.1    0.0   99.1   0.00   1.42  134.2   54.7   44.4    1.4   1.42   0.80    0.00    7.55
 1991 318   106   103   99.8    0.0   99.8   0.00   1.41  135.0   54.5   45.3    1.4   1.41   0.81    0.00    7.73
 1991 319   107   104  100.4    0.0  100.4   0.00   1.38  135.8   54.2   46.2    1.4   1.38   0.81    0.00    7.91
 1991 320   108   105  101.0    0.0  101.0   0.00   1.36  136.5   53.9   47.1    1.4   1.36   0.80    0.00    8.08
 1991 321   109   106  101.6    0.0  101.6   0.00   1.34  137.2   53.7   47.9    1.3   1.34   0.78    0.00    8.26
 1991 322   110   107  102.1    0.0  102.1   0.00   1.32  137.8   53.3   48.8    1.3   1.32   0.77    0.00    8.44
 1991 323   111   108  102.6    0.0  102.6   0.00   1.44  138.5   57.6   45.0    1.4   1.44   0.75    0.00    8.62
 1991 324   112   109  103.1    0.0  103.1   0.00   1.44  139.1   57.2   45.8    1.4   1.44   0.73    0.00    8.81
 1991 325   113   110  103.5    0.0  103.5   0.00   1.45  139.7   56.7   46.8    1.4   1.45   0.72    0.00    8.99
 1991 326   114   111  103.9    0.0  103.9   0.00   1.45  140.3   56.0   47.9    1.4   1.45   0.71    0.00    9.17
 1991 327   115   112  104.3    0.0  104.3   0.00   1.45  140.9   55.2   49.1    1.4   1.45   0.71    0.00    9.35
 1991 328   116   113  104.8    0.0  104.8   0.00   1.45  141.6   54.8   50.1    1.5   1.45   0.71    0.00    9.54
 1991 329   117   114  105.3    0.0  105.3   0.00   1.46  142.2   54.3   51.0    1.5   1.46   0.72    0.00    9.72
 1991 330   118   115  105.7    0.0  105.7   0.00   1.47  142.9   53.8   51.9    1.5   1.47   0.72    0.00    9.91
 1991 331   119   116  106.1    0.0  106.1   0.00   1.48  143.4   53.2   52.9    1.5   1.48   0.71    0.00   10.10
 1991 332   120   117  106.5    0.0  106.5   0.00   1.48  144.1   52.4   54.1    1.5   1.48   0.71    0.00   10.28
 1991 333   121   118  107.0    0.0  107.0   0.00   1.49  144.9   51.6   55.3    1.5   1.49   0.71    0.00   10.47
 1991 334   122   119  107.5    0.0  107.5   0.00   1.49  145.8   50.8   56.7    1.5   1.49   0.70    0.00   10.66
 1991 335   123   120  108.2    0.0  108.2   0.00   1.50  146.9   50.1   58.1    1.5   1.50   0.70    0.00   10.86
 1991 336   124   121  108.8    0.0  108.8   0.00   1.51  148.1   49.2   59.6    1.5   1.51   0.70    0.00   11.05
 1991 337   125   122  109.4    3.6  105.8   1.43   1.47  149.2   47.9   57.9    1.5   1.47   0.71    0.00   11.25
 1991 338   126   123  110.1    7.2  102.9   1.42   1.43  150.2   46.5   56.3    1.4   1.43   0.71    0.00   11.45
 1991 339   127   124  110.6   10.7  100.0   1.40   1.39  151.2   45.2   54.8    1.4   1.39   0.72    0.00   11.65
 1991 340   128   125  111.2   14.1   97.0   1.40   1.35  152.0   43.9   53.1    1.3   1.35   0.72    0.00   11.85
 1991 341   129   126  111.9   17.5   94.4   1.39   1.31  153.2   42.7   51.7    1.3   1.31   0.73    0.00   12.05
 1991 342   130   127  112.5   20.9   91.6   1.38   1.27  154.2   41.5   50.2    1.3   1.27   0.74    0.00   12.26
 1991 343   131   128  113.1   23.8   89.3   1.37   1.25  155.2   40.8   48.5    1.3   1.25   0.75    0.00   12.47
 1991 344   132   129  113.6   27.0   86.5   1.36   1.20  155.9   39.1   47.4    1.2   1.20   0.75    0.00   12.68
 1991 345   133   130  114.0   30.3   83.8   1.35   1.16  156.7   37.9   45.9    1.2   1.16   0.76    0.00   12.89
 1991 346   134   131  114.7   32.8   81.9   1.34   1.15  157.7   37.3   44.6    1.1   1.15   0.77    0.00   13.10
 1991 347   135   132  115.3   35.7   79.5   1.33   1.10  158.6   36.0   43.6    1.1   1.10   0.77    0.00   13.32
 1991 348   136   133  115.7   38.0   77.7   1.33   1.08  159.3   35.3   42.4    1.1   1.08   0.77    0.00   13.54
 1991 349   137   134  116.1   40.4   75.7   1.32   1.07  159.9   34.7   41.0    1.1   1.07   0.78    0.00   13.75
 1991 350   138   135  116.5   43.3   73.2   1.31   1.03  160.5   33.4   39.8    1.0   1.03   0.79    0.00   13.97
 1991 351   139   136  117.0   46.2   70.7   1.30   0.98  161.2   32.0   38.7    1.0   0.98   0.79    0.00   14.19
 1991 352   140   137  117.8   49.1   68.7   1.29   0.95  162.3   31.1   37.6    1.0   0.95   0.79    0.00   14.41
 1991 353   141   138  118.4   51.9   66.5   1.27   0.92  163.2   30.1   36.4    0.9   0.92   0.80    0.00   14.63
 1991 354   142   139  118.8   54.6   64.2   1.26   0.89  163.9   29.1   35.2    0.9   0.89   0.80    0.00   14.85
 1991 355   143   140  119.6   57.3   62.3   1.25   0.86  164.9   28.2   34.1    0.9   0.86   0.81    0.00   15.08
 1991 356   144   141  120.3   59.9   60.4   1.24   0.85  165.9   27.7   32.7    0.8   0.85   0.82    0.00   15.30
 1991 357   145   142  120.9   62.4   58.5   1.23   0.82  166.8   26.7   31.8    0.8   0.82   0.82    0.00   15.53
 1991 358   146   143  121.5   65.0   56.4   1.22   0.79  167.6   25.6   30.8    0.8   0.79   0.83    0.00   15.76
 1991 359   147   144  122.2   67.2   55.0   1.21   0.76  168.6   24.9   30.1    0.8   0.76   0.83    0.00   15.99
 1991 360   148   145  122.9   68.7   54.2   1.20   0.75  169.6   24.5   29.7    0.8   0.75   0.84    0.00   16.22
 1991 361   149   146  123.6   70.4   53.2   1.19   0.74  170.5   24.1   29.2    0.7   0.74   0.84    0.00   16.45
 1991 362   150   147  124.4   72.3   52.1   1.18   0.72  171.7   23.6   28.5    0.7   0.72   0.85    0.00   16.68
 1991 363   151   148  125.1   74.5   50.6   1.17   0.70  172.5   22.9   27.7    0.7   0.70   0.85    0.00   16.91
 1991 364   152   149  125.8   76.7   49.1   1.16   0.68  173.5   22.3   26.8    0.7   0.68   0.86    0.00   17.15
 1991 365   153   150  126.4   78.9   47.6   1.15   0.67  174.4   21.8   25.8    0.7   0.67   0.87    0.00   17.39
 1992 001   154   151  127.1   80.9   46.2   1.14   0.66  175.3   21.6   24.6    0.7   0.66   0.88    0.00   17.62
 1992 002   155   152  127.8   83.0   44.8   1.13   0.65  176.2   21.2   23.6    0.7   0.65   0.88    0.00   17.86
 1992 003   156   153  128.4   84.4   44.0   1.12   0.64  177.0   20.8   23.3    0.6   0.64   0.89    0.00   18.10
 1992 004   157   154  129.2   86.1   43.0   1.11   0.62  178.0   20.2   22.8    0.6   0.62   0.90    0.00   18.34
 1992 005   158   155  129.8   87.8   42.0   1.10   0.60  178.9   19.7   22.3    0.6   0.60   0.90    0.00   18.58
 1992 006   159   156  130.5   89.6   41.0   1.09   0.60  179.7   19.4   21.5    0.6   0.60   0.91    0.00   18.82
 1992 007   160   157  131.2   91.4   39.8   1.08   0.59  180.6   19.1   20.7    0.6   0.59   0.92    0.00   19.07
 1992 008   161   158  131.8   93.2   38.6   1.07   0.58  181.4   18.8   19.9    0.6   0.58   0.93    0.00   19.31
 1992 009   162   159  131.8   93.2   38.6   1.07   0.58  182.2   18.8   19.9    0.6   0.58   0.93    0.00   19.31
 1992 010   163   160  131.8   93.2   38.6   1.07   0.58  183.1   18.8   19.9    0.6   0.58   0.93    0.00   19.31
 1992 011   164   161  131.8   93.2   38.6   1.07   0.58  183.9   18.8   19.9    0.6   0.58   0.93    0.00   19.31

*DSSAT Cropping System Model Ver. 4.0.2.000               Aug 03, 2016; 15:29:28

*RUN   3        : UYMZ                    
 MODEL          : MZCER040 - Maize           
 EXPERIMENT     : UYMZ0128 MZ    late to create DSS                             
 TREATMENT  1   : UYMZ                    

@YEAR DOY   DAS   DAP   CNAD   GNAD   VNAD   GN%D   VN%D   NUPC   LNAD   SNAD   LN%D   SN%D   RN%D   SNN0C   SNN1C
 1992 215     3     0    0.0    0.0    0.0   0.00   0.00    0.0    0.0    0.0    0.0   0.00   0.00    0.00    0.00
 1992 216     4     1    0.0    0.0    0.0   0.00   0.00    0.0    0.0    0.0    0.0   0.00   0.00    0.00    0.00
 1992 217     5     2    0.0    0.0    0.0   0.00   0.00    0.0    0.0    0.0    0.0   0.00   0.00    0.00    0.00
 1992 218     6     3    0.0    0.0    0.0   0.00   0.00    0.0    0.0    0.0    0.0   0.00   0.00    0.00    0.00
 1992 219     7     4    0.0    0.0    0.0   0.00   0.00    0.0    0.0    0.0    0.0   0.00   0.00    0.00    0.00
 1992 220     8     5    0.0    0.0    0.0   0.00   0.00    0.0    0.0    0.0    0.0   0.00   0.00    0.00    0.00
 1992 221     9     6    0.0    0.0    0.0   0.00   0.00    0.0    0.0    0.0    0.0   0.00   0.00    0.00    0.00
 1992 222    10     7    0.0    0.0    0.0   0.00   0.00    0.0    0.0    0.0    0.0   0.00   0.00    0.00    0.00
 1992 223    11     8    0.0    0.0    0.0   0.00   0.00    0.0    0.0    0.0    0.0   0.00   0.00    0.00    0.00
 1992 224    12     9    0.0    0.0    0.0   0.00   0.00    0.0    0.0    0.0    0.0   0.00   0.00    0.00    0.00
 1992 225    13    10    0.0    0.0    0.0   0.00   0.00    0.0    0.0    0.0    0.0   0.00   0.00    0.00    0.00
 1992 226    14    11    0.0    0.0    0.0   0.00   0.00    0.0    0.0    0.0    0.0   0.00   0.00    0.00    0.00
 1992 227    15    12    0.0    0.0    0.0   0.00   0.00    0.0    0.0    0.0    0.0   0.00   0.00    0.00    0.00
 1992 228    16    13    0.0    0.0    0.0   0.00   0.00    0.0    0.0    0.0    0.0   0.00   0.00    0.00    0.00
 1992 229    17    14    0.0    0.0    0.0   0.00   0.00    0.0    0.0    0.0    0.0   0.00   0.00    0.00    0.00
 1992 230    18    15    0.0    0.0    0.0   0.00   0.00    0.0    0.0    0.0    0.0   0.00   0.00    0.00    0.00
 1992 231    19    16    0.0    0.0    0.0   0.00   0.00    0.0    0.0    0.0    0.0   0.00   0.00    0.00    0.00
 1992 232    20    17    0.0    0.0    0.0   0.00   0.00    0.0    0.0    0.0    0.0   0.00   0.00    0.00    0.00
 1992 233    21    18    0.0    0.0    0.0   0.00   0.00    0.0    0.0    0.0    0.0   0.00   0.00    0.00    0.00
 1992 234    22    19    0.0    0.0    0.0   0.00   0.00    0.0    0.0    0.0    0.0   0.00   0.00    0.00    0.00
 1992 235    23    20    0.0    0.0    0.0   0.00   0.00    0.0    0.0    0.0    0.0   0.00   0.00    0.00    0.00
 1992 236    24    21    0.0    0.0    0.0   0.00   0.00    0.0    0.0    0.0    0.0   0.00   0.00    0.00    0.00
 1992 237    25    22    0.0    0.0    0.0   0.00   0.00    0.0    0.0    0.0    0.0   0.00   0.00    0.00    0.00
 1992 238    26    23    0.0    0.0    0.0   0.00   0.00    0.0    0.0    0.0    0.0   0.00   0.00    0.00    0.00
 1992 239    27    24    0.0    0.0    0.0   0.00   0.00    0.0    0.0    0.0    0.0   0.00   0.00    0.00    0.00
 1992 240    28    25    0.0    0.0    0.0   0.00   0.00    0.0    0.0    0.0    0.0   0.00   0.00    0.00    0.00
 1992 241    29    26    0.0    0.0    0.0   0.00   0.00    0.0    0.0    0.0    0.0   0.00   0.00    0.00    0.00
 1992 242    30    27    0.0    0.0    0.0   0.00   0.00    0.0    0.0    0.0    0.0   0.00   0.00    0.00    0.00
 1992 243    31    28    0.0    0.0    0.0   0.00   0.00    0.0    0.0    0.0    0.0   0.00   0.00    0.00    0.00
 1992 244    32    29    1.2    0.0    1.2   0.00   4.40    0.0    0.6    0.6    4.4   4.40   0.00    0.00    0.00
 1992 245    33    30    1.3    0.0    1.3   0.00   4.56    0.2    0.6    0.6    4.6   4.56   1.08    0.00    0.00
 1992 246    34    31    1.3    0.0    1.3   0.00   4.56    0.2    0.6    0.6    4.6   4.56   1.08    0.00    0.00
 1992 247    35    32    1.3    0.0    1.3   0.00   4.56    0.2    0.6    0.6    4.6   4.56   1.06    0.00    0.00
 1992 248    36    33    1.3    0.0    1.3   0.00   4.53    0.2    0.6    0.6    4.5   4.53   1.11    0.00    0.00
 1992 249    37    34    1.3    0.0    1.3   0.00   4.51    0.2    0.6    0.6    4.5   4.51   1.12    0.00    0.00
 1992 250    38    35    1.3    0.0    1.3   0.00   4.49    0.2    0.6    0.6    4.5   4.49   1.14    0.00    0.00
 1992 251    39    36    1.3    0.0    1.3   0.00   4.47    0.2    0.6    0.6    4.5   4.47   1.15    0.00    0.00
 1992 252    40    37    1.3    0.0    1.3   0.00   4.47    0.2    0.6    0.6    4.5   4.47   1.13    0.00    0.00
 1992 253    41    38    1.3    0.0    1.3   0.00   4.47    0.2    0.6    0.6    4.5   4.47   1.08    0.00    0.00
 1992 254    42    39    1.2    0.0    1.2   0.00   4.40    0.2    0.6    0.6    4.4   4.40   1.16    0.00    0.00
 1992 255    43    40    1.2    0.0    1.2   0.00   4.40    0.2    0.6    0.6    4.4   4.40   1.12    0.00    0.00
 1992 256    44    41    1.2    0.0    1.2   0.00   4.36    0.2    0.6    0.6    4.4   4.36   1.32    0.00    0.01
 1992 257    45    42    1.2    0.0    1.2   0.00   4.36    0.2    0.6    0.6    4.4   4.36   1.25    0.00    0.01
 1992 258    46    43    1.2    0.0    1.2   0.00   4.33    0.3    0.6    0.6    4.3   4.33   1.33    0.00    0.01
 1992 259    47    44    1.2    0.0    1.2   0.00   4.31    0.3    0.6    0.6    4.3   4.31   1.38    0.00    0.01
 1992 260    48    45    1.2    0.0    1.2   0.00   4.31    0.3    0.6    0.6    4.3   4.31   1.30    0.00    0.01
 1992 261    49    46    1.2    0.0    1.2   0.00   4.25    0.3    0.6    0.6    4.2   4.25   1.33    0.00    0.01
 1992 262    50    47    1.2    0.0    1.2   0.00   4.24    0.4    0.6    0.6    4.2   4.24   1.46    0.00    0.01
 1992 263    51    48    1.2    0.0    1.2   0.00   4.22    0.4    0.6    0.6    4.2   4.22   1.46    0.00    0.01
 1992 264    52    49    1.2    0.0    1.2   0.00   4.07    0.4    0.6    0.6    4.1   4.07   1.36    0.00    0.01
 1992 265    53    50    1.2    0.0    1.2   0.00   3.78    0.4    0.7    0.5    3.8   3.78   1.26    0.00    0.02
 1992 266    54    51    1.3    0.0    1.3   0.00   3.86    0.5    0.8    0.5    3.9   3.86   1.10    0.00    0.02
 1992 267    55    52    1.4    0.0    1.4   0.00   3.61    0.7    0.9    0.5    3.6   3.61   1.21    0.00    0.02
 1992 268    56    53    1.6    0.0    1.6   0.00   3.76    0.8    1.1    0.5    3.8   3.76   1.10    0.00    0.02
 1992 269    57    54    1.8    0.0    1.8   0.00   3.99    1.3    1.2    0.6    4.0   3.99   1.53    0.00    0.02
 1992 270    58    55    1.9    0.0    1.9   0.00   3.96    1.4    1.3    0.6    4.0   3.96   1.46    0.00    0.03
 1992 271    59    56    1.9    0.0    1.9   0.00   3.61    1.4    1.4    0.5    3.6   3.61   1.22    0.00    0.03
 1992 272    60    57    2.2    0.0    2.2   0.00   3.52    1.8    1.7    0.5    3.5   3.52   1.23    0.00    0.03
 1992 273    61    58    2.6    0.0    2.6   0.00   3.44    2.3    2.1    0.5    3.4   3.44   1.24    0.00    0.04
 1992 274    62    59    3.0    0.0    3.0   0.00   3.24    2.9    2.6    0.5    3.2   3.24   1.22    0.00    0.04
 1992 275    63    60    3.8    0.0    3.8   0.00   3.30    3.6    3.3    0.5    3.3   3.30   1.13    0.00    0.05
 1992 276    64    61    4.6    0.0    4.6   0.00   3.42    4.6    4.1    0.5    3.4   3.42   1.15    0.00    0.06
 1992 277    65    62    5.3    0.0    5.3   0.00   3.50    5.7    4.8    0.5    3.5   3.50   1.26    0.00    0.06
 1992 278    66    63    6.0    0.0    6.0   0.00   3.34    6.7    5.5    0.5    3.3   3.34   1.23    0.00    0.07
 1992 279    67    64    7.1    0.0    7.1   0.00   3.58    7.7    6.6    0.5    3.6   3.58   1.12    0.00    0.08
 1992 280    68    65    7.8    0.0    7.8   0.00   3.70    9.5    7.3    0.5    3.7   3.70   1.44    0.00    0.09
 1992 281    69    66    8.3    0.0    8.3   0.00   3.78   10.3    7.7    0.5    3.8   3.78   1.39    0.00    0.10
 1992 282    70    67    8.6    0.0    8.6   0.00   3.68   11.1    8.0    0.5    3.7   3.68   1.32    0.00    0.12
 1992 283    71    68    9.1    0.0    9.1   0.00   3.56   12.1    8.6    0.5    3.6   3.56   1.24    0.00    0.14
 1992 284    72    69    9.9    0.0    9.9   0.00   3.63   13.7    9.4    0.5    3.6   3.63   1.24    0.00    0.16
 1992 285    73    70   10.6    0.0   10.6   0.00   3.36   14.4   10.1    0.5    3.4   3.36   1.15    0.00    0.18
 1992 286    74    71   12.1    0.0   12.1   0.00   3.32   16.8   11.6    0.5    3.3   3.32   1.20    0.00    0.21
 1992 287    75    72   15.7    0.0   15.7   0.00   3.78   21.4   15.1    0.5    3.8   3.78   1.21    0.00    0.24
 1992 288    76    73   17.8    0.0   17.8   0.00   3.68   24.4   17.3    0.5    3.7   3.68   1.20    0.00    0.27
 1992 289    77    74   19.6    0.0   19.6   0.00   3.56   25.4   19.1    0.5    3.6   3.56   1.07    0.00    0.31
 1992 290    78    75   21.5    0.0   21.5   0.00   3.52   27.6   20.9    0.6    3.5   3.52   1.10    0.00    0.35
 1992 291    79    76   23.2    0.0   23.2   0.00   3.50   31.4   22.6    0.6    3.5   3.50   1.22    0.00    0.38
 1992 292    80    77   24.8    0.0   24.8   0.00   3.48   34.6   24.1    0.7    3.5   3.48   1.23    0.00    0.43
 1992 293    81    78   26.6    0.0   26.6   0.00   3.45   35.6   25.9    0.8    3.5   3.45   1.10    0.00    0.49
 1992 294    82    79   28.3    0.0   28.3   0.00   3.43   39.7   27.4    0.9    3.4   3.43   1.20    0.00    0.54
 1992 295    83    80   29.7    0.0   29.7   0.00   3.42   42.9   28.8    1.0    3.4   3.42   1.20    0.00    0.60
 1992 296    84    81   31.9    0.0   31.9   0.00   3.39   46.3   30.7    1.1    3.4   3.39   1.18    0.00    0.67
 1992 297    85    82   35.0    0.0   35.0   0.00   3.36   50.5   33.5    1.4    3.4   3.36   1.16    0.00    0.75
 1992 298    86    83   39.1    0.0   39.1   0.00   3.32   55.6   37.1    2.0    3.3   3.32   1.15    0.00    0.83
 1992 299    87    84   42.9    0.0   42.9   0.00   3.28   58.3   40.2    2.6    3.3   3.28   1.07    0.00    0.92
 1992 300    88    85   47.1    0.0   47.1   0.00   3.24   65.4   43.6    3.5    3.2   3.24   1.16    0.00    1.00
 1992 301    89    86   50.4    0.0   50.4   0.00   3.19   70.6   46.1    4.3    3.2   3.19   1.16    0.00    1.10
 1992 302    90    87   51.9    0.0   51.9   0.00   3.21   71.5   47.3    4.6    3.2   3.21   1.11    0.00    1.21
 1992 303    91    88   52.5    0.0   52.5   0.00   3.17   75.7   47.6    4.9    3.2   3.17   1.19    0.00    1.31
 1992 304    92    89   53.7    0.0   53.7   0.00   3.17   78.5   48.5    5.2    3.2   3.17   1.18    0.00    1.43
 1992 305    93    90   55.0    0.0   55.0   0.00   3.16   81.4   49.4    5.5    3.2   3.16   1.18    0.00    1.56
 1992 306    94    91   56.6    0.0   56.6   0.00   3.16   84.2   50.6    6.0    3.2   3.16   1.18    0.00    1.70
 1992 307    95    92   58.7    0.0   58.7   0.00   3.16   87.0   52.0    6.7    3.2   3.16   1.17    0.00    1.84
 1992 308    96    93   58.4    0.0   58.4   0.00   3.07   87.3   51.5    7.0    3.1   3.07   1.15    0.00    1.99
 1992 309    97    94   59.6    0.0   59.6   0.00   3.08   90.5   52.2    7.4    3.1   3.08   1.18    0.00    2.14
 1992 310    98    95   60.6    0.0   60.6   0.00   3.06   92.1   52.8    7.8    3.1   3.06   1.16    0.00    2.30
 1992 311    99    96   61.1    0.0   61.1   0.00   3.02   94.2   53.0    8.2    3.0   3.02   1.14    0.00    2.46
 1992 312   100    97   62.6    0.0   62.6   0.00   3.03   97.4   53.9    8.7    3.0   3.03   1.15    0.00    2.63
 1992 313   101    98   64.3    0.0   64.3   0.00   3.03  100.4   55.0    9.4    3.0   3.03   1.15    0.00    2.81
 1992 314   102    99   66.5    0.0   66.5   0.00   3.03  103.2   56.2   10.3    3.0   3.03   1.15    0.00    2.99
 1992 315   103   100   66.5    0.0   66.5   0.00   2.87  103.2   55.2   11.3    2.9   2.87   1.15    0.00    2.99
 1992 316   104   101   70.2    0.0   70.2   0.00   2.92  106.6   57.5   12.7    2.9   2.92   1.12    0.00    3.18
 1992 317   105   102   72.2    0.0   72.2   0.00   2.91  109.2   58.6   13.7    2.9   2.91   1.13    0.00    3.37
 1992 318   106   103   73.6    0.0   73.6   0.00   2.90  111.3   59.1   14.5    2.9   2.90   1.13    0.00    3.56
 1992 319   107   104   76.5    0.0   76.5   0.00   2.89  112.9   60.3   16.1    2.9   2.89   1.09    0.00    3.75
 1992 320   108   105   78.0    0.0   78.0   0.00   2.86  115.3   60.8   17.3    2.9   2.86   1.11    0.00    3.94
 1992 321   109   106   78.8    0.0   78.8   0.00   2.72  117.1   59.7   19.1    2.7   2.72   1.10    0.00    4.13
 1992 322   110   107   79.6    0.0   79.6   0.00   2.61  118.3   59.0   20.6    2.6   2.61   1.07    0.00    4.32
 1992 323   111   108   80.4    0.0   80.4   0.00   2.43  119.3   58.7   21.7    2.4   2.43   1.05    0.00    4.52
 1992 324   112   109   80.9    0.0   80.9   0.00   2.36  120.0   58.3   22.6    2.4   2.36   1.04    0.00    4.72
 1992 325   113   110   81.3    0.0   81.3   0.00   2.29  120.5   57.8   23.6    2.3   2.29   1.03    0.00    4.92
 1992 326   114   111   81.7    0.0   81.7   0.00   2.22  120.9   57.0   24.7    2.2   2.22   1.04    0.00    5.12
 1992 327   115   112   81.9    0.0   81.9   0.00   2.20  121.2   56.9   25.1    2.2   2.20   1.03    0.00    5.32
 1992 328   116   113   82.1    0.0   82.1   0.00   2.19  121.5   56.8   25.4    2.2   2.19   1.02    0.00    5.52
 1992 329   117   114   82.5    0.0   82.5   0.00   2.16  121.8   56.5   26.0    2.2   2.16   1.02    0.00    5.72
 1992 330   118   115   82.9    0.0   82.9   0.00   2.14  122.4   56.3   26.7    2.1   2.14   1.02    0.00    5.92
 1992 331   119   116   83.5    0.0   83.5   0.00   2.09  123.1   55.7   27.8    2.1   2.09   1.01    0.00    6.12
 1992 332   120   117   84.1    0.0   84.1   0.00   2.07  123.8   55.5   28.6    2.1   2.07   1.00    0.00    6.32
 1992 333   121   118   84.6    0.0   84.6   0.00   2.01  124.5   54.7   29.9    2.0   2.01   1.00    0.00    6.52
 1992 334   122   119   85.1    0.0   85.1   0.00   1.95  125.1   53.8   31.3    1.9   1.95   0.99    0.00    6.72
 1992 335   123   120   85.9    0.0   85.9   0.00   1.91  126.0   53.3   32.6    1.9   1.91   0.99    0.00    6.93
 1992 336   124   121   86.4    0.0   86.4   0.00   1.83  126.6   52.2   34.2    1.8   1.83   0.97    0.00    7.13
 1992 337   125   122   87.0    0.0   87.0   0.00   1.78  127.5   51.4   35.6    1.8   1.78   0.94    0.00    7.33
 1992 338   126   123   87.6    0.0   87.6   0.00   1.72  128.2   50.6   37.0    1.7   1.72   0.92    0.00    7.54
 1992 339   127   124   88.2    0.0   88.2   0.00   1.65  128.9   49.5   38.7    1.6   1.65   0.91    0.00    7.74
 1992 340   128   125   88.6    0.0   88.6   0.00   1.61  129.5   48.9   39.7    1.6   1.61   0.90    0.00    7.95
 1992 341   129   126   89.2    0.0   89.2   0.00   1.59  130.2   48.7   40.5    1.6   1.59   0.90    0.00    8.16
 1992 342   130   127   89.7    0.0   89.7   0.00   1.72  130.9   52.1   37.6    1.7   1.72   0.89    0.00    8.36
 1992 343   131   128   90.3    0.0   90.3   0.00   1.72  131.6   51.5   38.8    1.7   1.72   0.88    0.00    8.57
 1992 344   132   129   90.9    0.0   90.9   0.00   1.71  132.4   50.9   40.0    1.7   1.71   0.88    0.00    8.78
 1992 345   133   130   91.4    0.0   91.4   0.00   1.71  133.1   50.1   41.3    1.7   1.71   0.88    0.00    8.99
 1992 346   134   131   91.9    0.0   91.9   0.00   1.71  133.8   49.4   42.5    1.7   1.71   0.88    0.00    9.20
 1992 347   135   132   92.3    0.0   92.3   0.00   1.72  134.4   48.9   43.3    1.7   1.72   0.87    0.00    9.41
 1992 348   136   133   92.6    0.0   92.6   0.00   1.73  135.1   48.4   44.2    1.7   1.73   0.86    0.00    9.62
 1992 349   137   134   92.9    0.0   92.9   0.00   1.74  135.6   47.8   45.1    1.7   1.74   0.85    0.00    9.84
 1992 350   138   135   93.2    0.0   93.2   0.00   1.75  136.1   47.3   45.9    1.8   1.75   0.84    0.00   10.05
 1992 351   139   136   93.4    0.0   93.4   0.00   1.76  136.6   46.6   46.8    1.8   1.76   0.84    0.00   10.27
 1992 352   140   137   93.5    0.0   93.5   0.00   1.77  137.0   45.8   47.7    1.8   1.77   0.84    0.00   10.48
 1992 353   141   138   93.7    0.0   93.7   0.00   1.78  137.4   45.2   48.5    1.8   1.78   0.84    0.00   10.70
 1992 354   142   139   93.8    0.0   93.8   0.00   1.79  137.7   44.3   49.4    1.8   1.79   0.84    0.00   10.92
 1992 355   143   140   93.9    2.4   91.5   1.87   1.75  138.1   43.3   48.2    1.7   1.75   0.85    0.00   11.14
 1992 356   144   141   94.0    4.9   89.1   1.86   1.70  138.4   42.1   47.0    1.7   1.70   0.86    0.00   11.36
 1992 357   145   142   94.2    8.1   86.0   1.82   1.66  138.7   41.0   45.0    1.7   1.66   0.87    0.00   11.58
 1992 358   146   143   94.2   11.3   83.0   1.80   1.61  139.0   39.9   43.1    1.6   1.61   0.87    0.00   11.81
 1992 359   147   144   94.7   13.4   81.2   1.80   1.58  139.7   39.1   42.1    1.6   1.58   0.88    0.00   12.03
 1992 360   148   145   94.8   16.5   78.4   1.77   1.50  140.0   37.2   41.2    1.5   1.50   0.88    0.00   12.26
 1992 361   149   146   95.1   19.2   75.9   1.74   1.45  140.5   35.9   40.0    1.4   1.45   0.88    0.00   12.48
 1992 362   150   147   95.3   21.8   73.6   1.71   1.40  141.0   34.8   38.8    1.4   1.40   0.87    0.00   12.71
 1992 363   151   148   95.5   25.0   70.6   1.69   1.35  141.4   33.4   37.2    1.3   1.35   0.87    0.00   12.94
 1992 364   152   149   95.7   28.0   67.7   1.67   1.31  141.7   32.5   35.2    1.3   1.31   0.88    0.00   13.17
 1992 365   153   150   96.0   30.8   65.3   1.65   1.28  142.2   31.7   33.6    1.3   1.28   0.89    0.00   13.40
 1992 366   154   151   96.6   33.0   63.6   1.63   1.25  143.1   31.1   32.5    1.3   1.25   0.90    0.00   13.63
 1993 001   155   152   97.8   35.4   62.3   1.61   1.24  145.0   30.7   31.6    1.2   1.24   0.91    0.00   13.86
 1993 002   156   153   99.0   37.9   61.1   1.60   1.23  146.8   30.4   30.6    1.2   1.23   0.93    0.00   14.09
 1993 003   157   154  100.1   40.4   59.7   1.59   1.21  148.5   30.1   29.6    1.2   1.21   0.95    0.00   14.33
 1993 004   158   155  101.2   43.3   57.9   1.57   1.18  150.0   29.2   28.7    1.2   1.18   0.96    0.00   14.57
 1993 005   159   156  102.7   46.3   56.4   1.56   1.13  152.0   28.1   28.3    1.1   1.13   0.97    0.00   14.82
 1993 006   160   157  104.0   49.2   54.8   1.56   1.08  153.8   26.8   28.0    1.1   1.08   0.97    0.00   15.06
 1993 007   161   158  105.2   52.1   53.1   1.55   1.06  155.3   26.2   26.9    1.1   1.06   0.98    0.00   15.31
 1993 008   162   159  106.1   54.8   51.3   1.53   1.02  156.5   25.2   26.1    1.0   1.02   0.99    0.00   15.56
 1993 009   163   160  106.9   57.2   49.7   1.52   0.97  157.5   23.9   25.8    1.0   0.97   0.99    0.00   15.81
 1993 010   164   161  107.9   59.8   48.0   1.51   0.92  158.7   22.7   25.3    0.9   0.92   0.99    0.00   16.06
 1993 011   165   162  108.6   62.3   46.3   1.49   0.88  159.6   21.9   24.4    0.9   0.88   0.99    0.00   16.31
 1993 012   166   163  109.4   64.7   44.7   1.48   0.85  160.6   21.1   23.6    0.9   0.85   0.99    0.00   16.57
 1993 013   167   164  110.2   67.1   43.1   1.46   0.82  161.5   20.4   22.7    0.8   0.82   1.00    0.00   16.82
 1993 014   168   165  111.0   69.3   41.7   1.45   0.80  162.5   19.8   21.9    0.8   0.80   1.00    0.00   17.07
 1993 015   169   166  111.8   71.6   40.2   1.43   0.77  163.4   19.0   21.2    0.8   0.77   1.01    0.00   17.33
 1993 016   170   167  112.3   73.7   38.6   1.42   0.74  164.0   18.4   20.3    0.7   0.74   1.01    0.00   17.58
 1993 017   171   168  113.2   75.3   37.9   1.40   0.72  165.0   17.9   20.0    0.7   0.72   1.02    0.00   17.84
 1993 018   172   169  114.0   76.6   37.4   1.39   0.71  166.0   17.7   19.7    0.7   0.71   1.02    0.00   18.10
 1993 019   173   170  114.9   78.3   36.6   1.38   0.70  166.9   17.3   19.3    0.7   0.70   1.02    0.00   18.35
 1993 020   174   171  115.7   80.2   35.5   1.36   0.68  167.9   16.8   18.7    0.7   0.68   1.03    0.00   18.61
 1993 021   175   172  116.5   82.1   34.4   1.35   0.66  168.8   16.3   18.1    0.7   0.66   1.03    0.00   18.87
 1993 022   176   173  117.3   84.0   33.4   1.33   0.64  169.7   15.8   17.6    0.6   0.64   1.04    0.00   19.13
 1993 023   177   174  118.2   85.8   32.5   1.32   0.62  170.6   15.4   17.0    0.6   0.62   1.04    0.00   19.38
 1993 024   178   175  118.2   85.8   32.5   1.32   0.62  171.6   15.4   17.0    0.6   0.62   1.04    0.00   19.38
 1993 025   179   176  118.2   85.8   32.5   1.32   0.62  172.6   15.4   17.0    0.6   0.62   1.04    0.00   19.38
 1993 026   180   177  118.2   85.8   32.5   1.32   0.62  173.5   15.4   17.0    0.6   0.62   1.04    0.00   19.38
