*GROWTH ASPECTS OUTPUT FILE

*DSSAT Cropping System Model Ver. 4.0.2.000               Aug 03, 2016; 15:29:28

*RUN   1        : UYMZ                    
 MODEL          : MZCER040 - Maize           
 EXPERIMENT     : UYMZ0128 MZ    late to create DSS                             
 TREATMENT  1   : UYMZ                    

@YEAR DOY   DAS   DAP   L#SD   GSTD   LAID   LWAD   SWAD   GWAD   RWAD   CWAD   G#AD   GWGD   HIAD   PWAD   P#AD   WSPD   WSGD   NSTD   EWSD   LN%D   SH%D   HIPD   PWDD   PWTD     SLAD   CHTD   CWID   RDPD   RL1D   RL2D   RL3D   RL4D   RL5D   RL6D   RL7D   RL8D   RL9D   RL10   CDAD   LDAD   SDAD   SNW0C   SNW1C
 1990 215     3     0    0.0      0   0.00      0      0      0      0      0      0    0.0  0.000      0      0  0.000  0.000  0.000  0.000   0.00   0.00   0.00      0      0      0.0   0.00   0.00   0.03   0.00   0.00   0.00   0.00   0.00   0.00   0.00   0.00   0.00   0.00      0      0      0       0       0
 1990 216     4     1    0.0      0   0.00      0      0      0      0      0      0    0.0  0.000      0      0  0.000  0.000  0.000  0.000   0.00   0.00   0.00      0      0      0.0   0.00   0.00   0.03   0.00   0.00   0.00   0.00   0.00   0.00   0.00   0.00   0.00   0.00      0      0      0       0       0
 1990 217     5     2    0.0      0   0.00      0      0      0      0      0      0    0.0  0.000      0      0  0.000  0.000  0.000  0.000   0.00   0.00   0.00      0      0      0.0   0.00   0.00   0.03   0.00   0.00   0.00   0.00   0.00   0.00   0.00   0.00   0.00   0.00      0      0      0       0       0
 1990 218     6     3    0.0      0   0.00      0      0      0      0      0      0    0.0  0.000      0      0  0.000  0.000  0.000  0.000   0.00   0.00   0.00      0      0      0.0   0.00   0.00   0.03   0.00   0.00   0.00   0.00   0.00   0.00   0.00   0.00   0.00   0.00      0      0      0       0       0
 1990 219     7     4    0.0      0   0.00      0      0      0      0      0      0    0.0  0.000      0      0  0.000  0.000  0.000  0.000   0.00   0.00   0.00      0      0      0.0   0.00   0.00   0.03   0.00   0.00   0.00   0.00   0.00   0.00   0.00   0.00   0.00   0.00      0      0      0       0       0
 1990 220     8     5    0.0      0   0.00      0      0      0      0      0      0    0.0  0.000      0      0  0.000  0.000  0.000  0.000   0.00   0.00   0.00      0      0      0.0   0.00   0.00   0.03   0.00   0.00   0.00   0.00   0.00   0.00   0.00   0.00   0.00   0.00      0      0      0       0       0
 1990 221     9     6    0.0      0   0.00      0      0      0      0      0      0    0.0  0.000      0      0  0.000  0.000  0.000  0.000   0.00   0.00   0.00      0      0      0.0   0.00   0.00   0.03   0.00   0.00   0.00   0.00   0.00   0.00   0.00   0.00   0.00   0.00      0      0      0       0       0
 1990 222    10     7    0.0      0   0.00      0      0      0      0      0      0    0.0  0.000      0      0  0.000  0.000  0.000  0.000   0.00   0.00   0.00      0      0      0.0   0.00   0.00   0.03   0.00   0.00   0.00   0.00   0.00   0.00   0.00   0.00   0.00   0.00      0      0      0       0       0
 1990 223    11     8    0.0      0   0.00      0      0      0      0      0      0    0.0  0.000      0      0  0.000  0.000  0.000  0.000   0.00   0.00   0.00      0      0      0.0   0.00   0.00   0.03   0.00   0.00   0.00   0.00   0.00   0.00   0.00   0.00   0.00   0.00      0      0      0       0       0
 1990 224    12     9    0.0      0   0.00      0      0      0      0      0      0    0.0  0.000      0      0  0.000  0.000  0.000  0.000   0.00   0.00   0.00      0      0      0.0   0.00   0.00   0.03   0.00   0.00   0.00   0.00   0.00   0.00   0.00   0.00   0.00   0.00      0      0      0       0       0
 1990 225    13    10    0.0      0   0.00      0      0      0      0      0      0    0.0  0.000      0      0  0.000  0.000  0.000  0.000   0.00   0.00   0.00      0      0      0.0   0.00   0.00   0.03   0.00   0.00   0.00   0.00   0.00   0.00   0.00   0.00   0.00   0.00      0      0      0       0       0
 1990 226    14    11    0.0      0   0.00      0      0      0      0      0      0    0.0  0.000      0      0  0.000  0.000  0.000  0.000   0.00   0.00   0.00      0      0      0.0   0.00   0.00   0.03   0.00   0.00   0.00   0.00   0.00   0.00   0.00   0.00   0.00   0.00      0      0      0       0       0
 1990 227    15    12    0.0      0   0.00      0      0      0      0      0      0    0.0  0.000      0      0  0.000  0.000  0.000  0.000   0.00   0.00   0.00      0      0      0.0   0.00   0.00   0.03   0.00   0.00   0.00   0.00   0.00   0.00   0.00   0.00   0.00   0.00      0      0      0       0       0
 1990 228    16    13    0.0      0   0.00      0      0      0      0      0      0    0.0  0.000      0      0  0.000  0.000  0.000  0.000   0.00   0.00   0.00      0      0      0.0   0.00   0.00   0.04   0.00   0.00   0.00   0.00   0.00   0.00   0.00   0.00   0.00   0.00      0      0      0       0       0
 1990 229    17    14    0.0      0   0.00      0      0      0      0      0      0    0.0  0.000      0      0  0.000  0.000  0.000  0.000   0.00   0.00   0.00      0      0      0.0   0.00   0.00   0.05   0.00   0.00   0.00   0.00   0.00   0.00   0.00   0.00   0.00   0.00      0      0      0       0       0
 1990 230    18    15    0.0      0   0.00      0      0      0      0      0      0    0.0  0.000      0      0  0.000  0.000  0.000  0.000   0.00   0.00   0.00      0      0      0.0   0.00   0.00   0.06   0.00   0.00   0.00   0.00   0.00   0.00   0.00   0.00   0.00   0.00      0      0      0       0       0
 1990 231    19    16    0.0      0   0.00      0      0      0      0      0      0    0.0  0.000      0      0  0.000  0.000  0.000  0.000   0.00   0.00   0.00      0      0      0.0   0.00   0.00   0.08   0.00   0.00   0.00   0.00   0.00   0.00   0.00   0.00   0.00   0.00      0      0      0       0       0
 1990 232    20    17    0.0      0   0.00      0      0      0      0      0      0    0.0  0.000      0      0  0.000  0.000  0.000  0.000   0.00   0.00   0.00      0      0      0.0   0.00   0.00   0.09   0.00   0.00   0.00   0.00   0.00   0.00   0.00   0.00   0.00   0.00      0      0      0       0       0
 1990 233    21    18    0.0      0   0.00      0      0      0      0      0      0    0.0  0.000      0      0  0.000  0.000  0.000  0.000   0.00   0.00   0.00      0      0      0.0   0.00   0.00   0.10   0.00   0.00   0.00   0.00   0.00   0.00   0.00   0.00   0.00   0.00      0      0      0       0       0
 1990 234    22    19    0.0      0   0.00      0      0      0      0      0      0    0.0  0.000      0      0  0.000  0.000  0.000  0.000   0.00   0.00   0.00      0      0      0.0   0.00   0.00   0.11   0.00   0.00   0.00   0.00   0.00   0.00   0.00   0.00   0.00   0.00      0      0      0       0       0
 1990 235    23    20    0.0      0   0.00      0      0      0      0      0      0    0.0  0.000      0      0  0.000  0.000  0.000  0.000   0.00   0.00   0.00      0      0      0.0   0.00   0.00   0.11   0.00   0.00   0.00   0.00   0.00   0.00   0.00   0.00   0.00   0.00      0      0      0       0       0
 1990 236    24    21    0.0      0   0.00      0      0      0      0      0      0    0.0  0.000      0      0  0.000  0.000  0.000  0.000   0.00   0.00   0.00      0      0      0.0   0.00   0.00   0.12   0.00   0.00   0.00   0.00   0.00   0.00   0.00   0.00   0.00   0.00      0      0      0       0       0
 1990 237    25    22    1.0      1   0.00     14     14      0     14     28      0    0.0  0.000      0      0  0.000  0.000  0.012  0.000   4.40   0.00   0.00      0      0     18.6   0.00   0.00   0.13   0.28   0.09   0.00   0.00   0.00   0.00   0.00   0.00   0.00   0.00      0      0      0       0       0
 1990 238    26    23    2.0      1   0.01     14     14      0     14     28      0    0.0  0.000      0      0  0.000  0.000  0.016  0.000   4.53   0.00   0.00      0      0     37.2   0.00   0.00   0.14   0.28   0.10   0.00   0.00   0.00   0.00   0.00   0.00   0.00   0.00      0      0      0       0       0
 1990 239    27    24    2.0      1   0.01     14     14      0     15     28      0    0.0  0.000      0      0  0.000  0.000  0.000  0.000   4.53   0.00   0.00      0      0     43.3   0.00   0.00   0.14   0.26   0.09   0.00   0.00   0.00   0.00   0.00   0.00   0.00   0.00      0      0      0       0       0
 1990 240    28    25    2.0      1   0.01     14     14      0     15     28      0    0.0  0.000      0      0  0.000  0.000  0.000  0.000   4.52   0.00   0.00      0      0     36.4   0.00   0.00   0.14   0.25   0.09   0.00   0.00   0.00   0.00   0.00   0.00   0.00   0.00      0      0      0       0       0
 1990 241    29    26    2.0      1   0.00     14     14      0     15     28      0    0.0  0.000      0      0  0.000  0.000  0.000  0.000   4.52   0.00   0.00      0      0     18.8   0.00   0.00   0.14   0.25   0.10   0.00   0.00   0.00   0.00   0.00   0.00   0.00   0.00      0      0      0       0       0
 1990 242    30    27    2.0      1   0.00     14     14      0     15     28      0    0.0  0.000      0      0  0.000  0.000  0.000  0.000   4.52   0.00   0.00      0      0     26.1   0.00   0.00   0.15   0.25   0.10   0.00   0.00   0.00   0.00   0.00   0.00   0.00   0.00      0      0      0       0       0
 1990 243    31    28    2.0      1   0.00     14     14      0     15     28      0    0.0  0.000      0      0  0.000  0.000  0.000  0.000   4.52   0.00   0.00      0      0     27.4   0.00   0.00   0.15   0.25   0.10   0.00   0.00   0.00   0.00   0.00   0.00   0.00   0.00      0      0      0       0       0
 1990 244    32    29    2.0      1   0.00     14     14      0     15     28      0    0.0  0.000      0      0  0.000  0.000  0.000  0.000   4.52   0.00   0.00      0      0     20.0   0.00   0.00   0.15   0.25   0.10   0.00   0.00   0.00   0.00   0.00   0.00   0.00   0.00      0      0      0       0       0
 1990 245    33    30    2.0      1   0.00     14     14      0     15     28      0    0.0  0.000      0      0  0.000  0.000  0.000  0.000   4.52   0.00   0.00      0      0      6.4   0.00   0.00   0.15   0.25   0.10   0.00   0.00   0.00   0.00   0.00   0.00   0.00   0.00      0      0      0       0       0
 1990 246    34    31    2.0      1   0.00     14     14      0     15     28      0    0.0  0.000      0      0  0.000  0.000  0.000  0.000   4.52   0.00   0.00      0      0     10.4   0.00   0.00   0.15   0.25   0.10   0.00   0.00   0.00   0.00   0.00   0.00   0.00   0.00      0      0      0       0       0
 1990 247    35    32    2.0      1   0.00     14     14      0     15     28      0    0.0  0.000      0      0  0.000  0.000  0.000  0.000   4.52   0.00   0.00      0      0     17.7   0.00   0.00   0.16   0.25   0.10   0.00   0.00   0.00   0.00   0.00   0.00   0.00   0.00      0      0      0       0       0
 1990 248    36    33    3.0      1   0.00     14     14      0     15     28      0    0.0  0.000      0      0  0.000  0.000  0.000  0.000   4.52   0.00   0.00      0      0     34.4   0.00   0.00   0.16   0.25   0.11   0.00   0.00   0.00   0.00   0.00   0.00   0.00   0.00      0      0      0       0       0
 1990 249    37    34    3.0      1   0.01     14     14      0     15     28      0    0.0  0.000      0      0  0.000  0.000  0.000  0.000   4.52   0.00   0.00      0      0     48.2   0.00   0.00   0.17   0.25   0.11   0.00   0.00   0.00   0.00   0.00   0.00   0.00   0.00      0      0      0       0       0
 1990 250    38    35    3.0      1   0.01     14     14      0     16     28      0    0.0  0.000      0      0  0.000  0.000  0.000  0.000   4.52   0.00   0.00      0      0     62.4   0.00   0.00   0.18   0.25   0.11   0.00   0.00   0.00   0.00   0.00   0.00   0.00   0.00      0      0      0       0       0
 1990 251    39    36    3.0      1   0.01     14     14      0     16     28      0    0.0  0.000      0      0  0.000  0.000  0.000  0.000   4.52   0.00   0.00      0      0     72.3   0.00   0.00   0.18   0.23   0.11   0.00   0.00   0.00   0.00   0.00   0.00   0.00   0.00      0      0      0       0       0
 1990 252    40    37    3.0      1   0.01     14     14      0     18     28      0    0.0  0.000      0      0  0.000  0.000  0.000  0.000   4.52   0.00   0.00      0      0     94.0   0.00   0.00   0.19   0.23   0.13   0.01   0.00   0.00   0.00   0.00   0.00   0.00   0.00      0      0      0       0       0
 1990 253    41    38    4.0      1   0.03     14     14      0     19     28      0    0.0  0.000      0      0  0.000  0.000  0.000  0.003   4.36   0.00   0.00      0      0    199.4   0.00   0.00   0.20   0.24   0.14   0.01   0.00   0.00   0.00   0.00   0.00   0.00   0.00      0      0      0       0       0
 1990 254    42    39    4.0      1   0.04     14     14      0     22     28      0    0.0  0.000      0      0  0.000  0.000  0.000  0.038   4.34   0.00   0.00      0      0    282.0   0.00   0.00   0.21   0.23   0.16   0.02   0.00   0.00   0.00   0.00   0.00   0.00   0.00      0      0      0       0       0
 1990 255    43    40    4.0      1   0.04     14     14      0     24     28      0    0.0  0.000      0      0  0.000  0.000  0.000  0.043   4.28   0.00   0.00      0      0    290.9   0.00   0.00   0.21   0.22   0.18   0.04   0.00   0.00   0.00   0.00   0.00   0.00   0.00      0      0      0       0       0
 1990 256    44    41    4.0      1   0.04     15     14      0     26     29      0    0.0  0.000      0      0  0.000  0.000  0.000  0.039   4.27   0.00   0.00      0      0    258.8   0.00   0.00   0.21   0.22   0.20   0.05   0.00   0.00   0.00   0.00   0.00   0.00   0.00      0      0      0       0       0
 1990 257    45    42    4.0      1   0.03     16     14      0     29     30      0    0.0  0.000      0      0  0.000  0.000  0.000  0.021   4.20   0.00   0.00      0      0    181.0   0.00   0.00   0.22   0.23   0.22   0.06   0.00   0.00   0.00   0.00   0.00   0.00   0.00      0      0      0       0       1
 1990 258    46    43    4.0      1   0.03     18     14      0     32     32      0    0.0  0.000      0      0  0.000  0.000  0.000  0.004   4.02   0.00   0.00      0      0    178.8   0.00   0.00   0.22   0.24   0.25   0.07   0.00   0.00   0.00   0.00   0.00   0.00   0.00      0      0      0       0       1
 1990 259    47    44    5.0      1   0.04     22     14      0     35     36      0    0.0  0.000      0      0  0.000  0.000  0.000  0.000   3.76   0.00   0.00      0      0    194.9   0.00   0.00   0.23   0.25   0.27   0.09   0.00   0.00   0.00   0.00   0.00   0.00   0.00      0      0      0       0       1
 1990 260    48    45    5.0      1   0.05     27     14      0     36     41      0    0.0  0.000      0      0  0.000  0.000  0.000  0.000   3.85   0.00   0.00      0      0    203.1   0.00   0.00   0.23   0.25   0.29   0.10   0.00   0.00   0.00   0.00   0.00   0.00   0.00      0      0      0       0       1
 1990 261    49    46    5.0      1   0.07     31     14      0     38     45      0    0.0  0.000      0      0  0.000  0.000  0.000  0.000   3.83   0.00   0.00      0      0    208.7   0.00   0.00   0.24   0.24   0.28   0.10   0.00   0.00   0.00   0.00   0.00   0.00   0.00      0      0      0       0       1
 1990 262    50    47    5.0      1   0.08     36     14      0     42     50      0    0.0  0.000      0      0  0.000  0.000  0.000  0.000   3.85   0.00   0.00      0      0    211.9   0.00   0.00   0.25   0.23   0.31   0.13   0.00   0.00   0.00   0.00   0.00   0.00   0.00      0      0      0       0       1
 1990 263    51    48    5.0      1   0.09     42     14      0     44     56      0    0.0  0.000      0      0  0.000  0.000  0.000  0.086   3.79   0.00   0.00      0      0    213.9   0.00   0.00   0.25   0.23   0.31   0.13   0.00   0.00   0.00   0.00   0.00   0.00   0.00      0      0      0       0       2
 1990 264    52    49    6.0      1   0.11     51     14      0     45     65      0    0.0  0.000      0      0  0.000  0.000  0.000  0.047   3.62   0.00   0.00      0      0    214.8   0.00   0.00   0.27   0.23   0.31   0.14   0.00   0.00   0.00   0.00   0.00   0.00   0.00      0      0      0       0       2
 1990 265    53    50    6.0      1   0.12     57     14      0     59     71      0    0.0  0.000      0      0  0.000  0.000  0.000  0.018   3.81   0.00   0.00      0      0    214.4   0.00   0.00   0.27   0.26   0.41   0.25   0.00   0.00   0.00   0.00   0.00   0.00   0.00      0      0      0       0       2
 1990 266    54    51    6.0      1   0.13     59     14      0     68     73      0    0.0  0.000      0      0  0.000  0.000  0.000  0.000   4.07   0.00   0.00      0      0    213.5   0.00   0.00   0.27   0.28   0.47   0.32   0.00   0.00   0.00   0.00   0.00   0.00   0.00      0      0      0       0       2
 1990 267    55    52    6.0      1   0.12     62     14      0     80     76      0    0.0  0.000      0      0  0.000  0.000  0.000  0.000   4.04   0.00   0.00      0      0    196.5   0.00   0.00   0.28   0.32   0.55   0.41   0.00   0.00   0.00   0.00   0.00   0.00   0.00      0      0      0       0       3
 1990 268    56    53    6.0      1   0.12     65     14      0     93     79      0    0.0  0.000      0      0  0.000  0.000  0.000  0.000   4.00   0.00   0.00      0      0    180.4   0.00   0.00   0.28   0.36   0.63   0.51   0.00   0.00   0.00   0.00   0.00   0.00   0.00      0      0      0       0       3
 1990 269    57    54    6.0      1   0.13     73     14      0    113     87      0    0.0  0.000      0      0  0.000  0.000  0.000  0.000   3.80   0.00   0.00      0      0    181.1   0.00   0.00   0.29   0.43   0.76   0.66   0.00   0.00   0.00   0.00   0.00   0.00   0.00      0      0      0       0       4
 1990 270    58    55    6.0      1   0.16     85     14      0    129     99      0    0.0  0.000      0      0  0.000  0.000  0.000  0.000   3.61   0.00   0.00      0      0    183.4   0.00   0.00   0.30   0.48   0.86   0.80   0.00   0.00   0.00   0.00   0.00   0.00   0.00      0      0      0       0       4
 1990 271    59    56    7.0      1   0.18     98     14      0    131    112      0    0.0  0.000      0      0  0.000  0.000  0.000  0.000   3.64   0.00   0.00      0      0    184.3   0.00   0.00   0.30   0.49   0.87   0.81   0.00   0.00   0.00   0.00   0.00   0.00   0.00      0      0      0       0       5
 1990 272    60    57    7.0      1   0.21    113     14      0    152    127      0    0.0  0.000      0      0  0.000  0.000  0.000  0.000   3.61   0.00   0.00      0      0    184.5   0.00   0.00   0.31   0.56   0.99   0.97   0.00   0.00   0.00   0.00   0.00   0.00   0.00      0      0      0       0       5
 1990 273    61    58    7.0      1   0.24    131     14      0    175    145      0    0.0  0.000      0      0  0.000  0.000  0.000  0.000   3.57   0.00   0.00      0      0    183.9   0.00   0.00   0.32   0.64   1.12   1.15   0.01   0.00   0.00   0.00   0.00   0.00   0.00      0      0      0       0       6
 1990 274    62    59    7.0      1   0.29    159     14      0    203    173      0    0.0  0.000      0      0  0.000  0.000  0.000  0.000   3.40   0.00   0.00      0      0    182.2   0.00   0.00   0.34   0.74   1.27   1.36   0.03   0.00   0.00   0.00   0.00   0.00   0.00      0      0      0       0       7
 1990 275    63    60    8.0      1   0.33    183     14      0    245    197      0    0.0  0.000      0      0  0.000  0.000  0.000  0.000   3.51   0.00   0.00      0      0    180.4   0.00   0.00   0.35   0.89   1.50   1.66   0.07   0.00   0.00   0.00   0.00   0.00   0.00      0      0      0       0       8
 1990 276    64    61    8.0      1   0.38    215     14      0    283    229      0    0.0  0.000      0      0  0.000  0.000  0.000  0.000   3.42   0.00   0.00      0      0    177.9   0.00   0.00   0.37   1.03   1.70   1.93   0.12   0.00   0.00   0.00   0.00   0.00   0.00      0      0      0       0       9
 1990 277    65    62    9.0      1   0.46    262     14      0    310    276      0    0.0  0.000      0      0  0.000  0.000  0.000  0.000   3.28   0.00   0.00      0      0    174.3   0.00   0.00   0.39   1.12   1.83   2.12   0.17   0.00   0.00   0.00   0.00   0.00   0.00      0      0      0       0      11
 1990 278    66    63    9.0      1   0.50    293     14      0    316    307      0    0.0  0.000      0      0  0.000  0.000  0.000  0.000   3.52   0.00   0.00      0      0    172.1   0.00   0.00   0.40   1.14   1.86   2.15   0.19   0.00   0.00   0.00   0.00   0.00   0.00      0      0      0       0      12
 1990 279    67    64    9.0      2   0.57    313     14      0    338    327      0    0.0  0.000      0      0  0.000  0.000  0.000  0.000   3.65   0.00   0.00      0      0    183.5   0.00   0.00   0.42   1.18   1.97   2.30   0.23   0.00   0.00   0.00   0.00   0.00   0.00      0      0      0       0      14
 1990 280    68    65    9.0      2   0.64    354     14      0    344    368      0    0.0  0.000      0      0  0.000  0.000  0.000  0.000   3.46   0.00   0.00      0      0    180.5   0.00   0.00   0.43   1.19   1.99   2.34   0.25   0.00   0.00   0.00   0.00   0.00   0.00      0      0      0       0      16
 1990 281    69    66   10.0      2   0.67    373     14      0    381    387      0    0.0  0.000      0      0  0.000  0.000  0.000  0.499   3.63   0.00   0.00      0      0    179.2   0.00   0.00   0.45   1.13   2.02   2.46   0.35   0.00   0.00   0.00   0.00   0.00   0.00      0      0      0       0      17
 1990 282    70    67   10.0      2   0.72    404     14      0    470    418      0    0.0  0.000      0      0  0.000  0.000  0.000  0.233   3.78   0.00   0.00      0      0    177.2   0.00   0.00   0.46   1.13   2.31   2.99   0.61   0.00   0.00   0.00   0.00   0.00   0.00      0      0      0       0      19
 1990 283    71    68   10.0      3   0.77    448     14      0    545    462      0    0.0  0.000      0      0  0.000  0.000  0.022  0.042   3.68   0.00   0.00      0      0    172.7   0.00   0.00   0.47   1.13   2.53   3.43   0.82   0.03   0.00   0.00   0.00   0.00   0.00      0      0      0       0      22
 1990 284    72    69   10.0      3   0.84    498     14      0    562    513      0    0.0  0.000      0      0  0.000  0.000  0.022  0.003   3.57   0.00   0.00      0      0    169.5   0.00   0.00   0.48   1.13   2.56   3.49   0.86   0.04   0.00   0.00   0.00   0.00   0.00      0      0      0       0      24
 1990 285    73    70   11.0      3   0.90    540     15      0    673    554      0    0.0  0.000      0      0  0.000  0.000  0.022  0.072   3.54   0.00   0.00      0      0    167.0   0.00   0.00   0.49   1.06   2.72   4.00   1.15   0.13   0.00   0.00   0.00   0.00   0.00      0      0      0       0      27
 1990 286    74    71   11.0      3   0.95    575     15      0    797    590      0    0.0  0.000      0      0  0.000  0.000  0.022  0.046   3.52   0.00   0.00      0      0    165.0   0.00   0.00   0.50   1.03   2.96   4.00   1.49   0.25   0.00   0.00   0.00   0.00   0.00      0      0      0       0      30
 1990 287    75    72   11.0      3   1.02    626     16      0    909    642      0    0.0  0.000      0      0  0.000  0.000  0.022  0.020   3.49   0.00   0.00      0      0    162.4   0.00   0.00   0.51   1.01   3.20   4.00   1.81   0.38   0.00   0.00   0.00   0.00   0.00      0      0      0       0      34
 1990 288    76    73   11.0      3   1.07    664     18      0   1037    681      0    0.0  0.000      0      0  0.000  0.000  0.022  0.006   3.47   0.00   0.00      0      0    160.5   0.00   0.00   0.52   1.00   3.51   4.00   2.20   0.57   0.00   0.00   0.00   0.00   0.00      0      0      0       0      39
 1990 289    77    74   11.0      3   1.10    696     19      0   1178    715      0    0.0  0.000      0      0  0.000  0.000  0.022  0.004   3.45   0.00   0.00      0      0    157.8   0.00   0.00   0.53   1.01   3.86   4.00   2.64   0.79   0.00   0.00   0.00   0.00   0.00      0      0      0       0      44
 1990 290    78    75   11.0      3   1.16    741     21      0   1244    763      0    0.0  0.000      0      0  0.000  0.000  0.022  0.003   3.43   0.00   0.00      0      0    155.9   0.00   0.00   0.54   1.02   4.00   4.00   2.85   0.91   0.00   0.00   0.00   0.00   0.00      0      0      0       0      50
 1990 291    79    76   12.0      3   1.27    828     27      0   1350    854      0    0.0  0.000      0      0  0.000  0.000  0.022  0.000   3.40   0.00   0.00      0      0    153.0   0.00   0.00   0.55   1.05   4.00   4.00   3.19   1.14   0.00   0.00   0.00   0.00   0.00      0      0      0       0      56
 1990 292    80    77   12.0      3   1.38    918     35      0   1412    953      0    0.0  0.000      0      0  0.000  0.000  0.022  0.000   3.37   0.00   0.00      0      0    150.2   0.00   0.00   0.57   1.06   4.00   4.00   3.40   1.30   0.00   0.00   0.00   0.00   0.00      0      0      0       0      63
 1990 293    81    78   12.0      3   1.49   1011     46      0   1470   1056      0    0.0  0.000      0      0  0.000  0.000  0.022  0.000   3.33   0.00   0.00      0      0    147.6   0.00   0.00   0.58   1.06   4.00   4.00   3.60   1.47   0.00   0.00   0.00   0.00   0.00      0      0      0       0      70
 1990 294    82    79   13.0      3   1.60   1100     58      0   1577   1159      0    0.0  0.000      0      0  0.000  0.000  0.022  0.000   3.30   0.00   0.00      0      0    145.3   0.00   0.00   0.59   1.07   4.00   4.00   3.96   1.82   0.00   0.00   0.00   0.00   0.00      0      0      0       0      77
 1990 295    83    80   13.0      3   1.70   1190     74      0   1724   1264      0    0.0  0.000      0      0  0.000  0.000  0.022  0.000   3.26   0.00   0.00      0      0    143.2   0.00   0.00   0.61   1.08   4.00   4.00   4.00   2.37   0.00   0.00   0.00   0.00   0.00      0      0      0       0      85
 1990 296    84    81   13.0      3   1.81   1285     94      0   1825   1379      0    0.0  0.000      0      0  0.000  0.000  0.022  0.000   3.23   0.00   0.00      0      0    141.1   0.00   0.00   0.62   1.08   4.00   4.00   4.00   2.74   0.02   0.00   0.00   0.00   0.00      0      0      0       0      94
 1990 297    85    82   14.0      3   1.91   1370    114      0   1932   1484      0    0.0  0.000      0      0  0.000  0.000  0.022  0.000   3.20   0.00   0.00      0      0    139.3   0.00   0.00   0.63   1.08   4.00   4.00   4.00   3.16   0.06   0.00   0.00   0.00   0.00      0      0      0       0     103
 1990 298    86    83   14.0      3   2.01   1457    138      0   1985   1596      0    0.0  0.000      0      0  0.000  0.000  0.022  0.001   3.17   0.00   0.00      0      0    137.6   0.00   0.00   0.64   1.08   4.00   4.00   4.00   3.38   0.09   0.00   0.00   0.00   0.00      0      0      0       0     113
 1990 299    87    84   14.0      3   2.14   1576    178      0   2107   1754      0    0.0  0.000      0      0  0.000  0.000  0.022  0.001   3.14   0.00   0.00      0      0    135.6   0.00   0.00   0.66   1.09   4.00   4.00   4.00   3.91   0.19   0.00   0.00   0.00   0.00      0      0      0       0     123
 1990 300    88    85   14.0      3   2.28   1706    228      0   2176   1934      0    0.0  0.000      0      0  0.000  0.000  0.022  0.002   3.09   0.00   0.00      0      0    133.6   0.00   0.00   0.68   1.10   3.97   4.00   4.00   4.00   0.28   0.00   0.00   0.00   0.00      0      0      0       0     133
 1990 301    89    86   15.0      3   2.38   1802    271      0   2173   2073      0    0.0  0.000      0      0  0.000  0.000  0.022  0.002   3.06   0.00   0.00      0      0    132.1   0.00   0.00   0.69   1.09   3.94   3.96   3.99   4.00   0.28   0.00   0.00   0.00   0.00      0      0      0       0     144
 1990 302    90    87   15.0      3   2.51   1930    339      0   2173   2269      0    0.0  0.000      0      0  0.000  0.000  0.022  0.001   3.01   0.00   0.00      0      0    130.3   0.00   0.00   0.71   1.08   3.90   3.93   4.00   4.00   0.30   0.00   0.00   0.00   0.00      0      0      0       0     155
 1990 303    91    88   16.0      3   2.66   2071    425      0   2289   2496      0    0.0  0.000      0      0  0.000  0.000  0.022  0.000   2.93   0.00   0.00      0      0    128.5   0.00   0.00   0.73   1.11   3.92   3.95   4.00   4.00   0.55   0.00   0.00   0.00   0.00      0      0      0       0     166
 1990 304    92    89   16.0      3   2.77   2178    497      0   2432   2675      0    0.0  0.000      0      0  0.000  0.000  0.022  0.000   2.88   0.00   0.00      0      0    127.1   0.00   0.00   0.74   1.16   3.96   3.99   4.00   4.00   0.91   0.00   0.00   0.00   0.00      0      0      0       0     177
 1990 305    93    90   16.0      3   2.89   2295    583      0   2534   2878      0    0.0  0.000      0      0  0.000  0.000  0.022  0.000   2.82   0.00   0.00      0      0    125.8   0.00   0.00   0.75   1.21   3.99   4.00   4.00   4.00   1.20   0.00   0.00   0.00   0.00      0      0      0       0     189
 1990 306    94    91   17.0      3   3.01   2415    682      0   2601   3097      0    0.0  0.000      0      0  0.000  0.000  0.022  0.000   2.73   0.00   0.00      0      0    124.4   0.00   0.00   0.77   1.25   4.00   4.00   4.00   4.00   1.42   0.00   0.00   0.00   0.00      0      0      0       0     202
 1990 307    95    92   17.0      3   3.11   2519    779      0   2599   3298      0    0.0  0.000      0      0  0.000  0.000  0.022  0.000   2.66   0.00   0.00      0      0    123.3   0.00   0.00   0.79   1.25   3.99   3.99   4.00   4.00   1.45   0.00   0.00   0.00   0.00      0      0      0       0     215
 1990 308    96    93   17.0      3   3.18   2601    860      0   2705   3462      0    0.0  0.000      0      0  0.000  0.000  0.022  0.000   2.60   0.00   0.00      0      0    122.3   0.00   0.00   0.80   1.35   4.00   4.00   4.00   4.00   1.87   0.00   0.00   0.00   0.00      0      0      0       0     228
 1990 309    97    94   17.0      3   3.22   2649    909      0   2908   3558      0    0.0  0.000      0      0  0.000  0.000  0.024  0.000   2.57   0.00   0.00      0      0    121.6   0.00   0.00   0.80   1.60   4.00   4.00   4.00   4.00   2.71   0.00   0.00   0.00   0.00      0      0      0       0     242
 1990 310    98    95   18.0      3   3.29   2721    987      0   2985   3708      0    0.0  0.000      0      0  0.000  0.000  0.027  0.000   2.51   0.00   0.00      0      0    120.7   0.00   0.00   0.81   1.73   4.00   4.00   4.00   4.00   3.06   0.00   0.00   0.00   0.00      0      0      0       0     256
 1990 311    99    96   18.0      3   3.38   2822   1104      0   3085   3926      0    0.0  0.000      0      0  0.000  0.000  0.027  0.000   2.40   0.00   0.00      0      0    119.7   0.00   0.00   0.82   1.94   4.00   4.00   4.00   4.00   3.49   0.00   0.00   0.00   0.00      0      0      0       0     271
 1990 312   100    97   18.0      3   3.43   2888   1183      0   3078   4071      0    0.0  0.000      0      0  0.000  0.000  0.030  0.000   2.34   0.00   0.00      0      0    118.8   0.00   0.00   0.83   1.95   4.00   4.00   3.99   3.99   3.50   0.00   0.00   0.00   0.00      0      0      0       0     286
 1990 313   101    98   18.0      3   3.58   3046   1305      0   3078   4351      0    0.0  0.000      0      0  0.000  0.000  0.034  0.000   2.22   0.00   0.00      0      0    117.4   0.00   0.00   0.84   1.98   4.00   4.00   3.98   3.98   3.52   0.00   0.00   0.00   0.00      0      0      0       0     302
 1990 314   102    99   19.0      3   3.71   3196   1476      0   3106   4672      0    0.0  0.000      0      0  0.000  0.000  0.036  0.000   2.09   0.00   0.00      0      0    116.0   0.00   0.00   0.85   2.12   4.00   4.00   4.00   4.00   3.59   0.00   0.00   0.00   0.00      0      0      0       0     317
 1990 315   103   100   19.0      3   3.82   3332   1672      0   3152   5004      0    0.0  0.000      0      0  0.000  0.000  0.043  0.000   1.96   0.00   0.00      0      0    114.7   0.00   0.00   0.87   2.34   4.00   4.00   4.00   4.00   3.64   0.00   0.00   0.00   0.00      0      0      0       0     333
 1990 316   104   101   19.0      3   3.87   3410   1803      0   3148   5214      0    0.0  0.000      0      0  0.000  0.000  0.052  0.000   1.90   0.00   0.00      0      0    113.6   0.00   0.00   0.88   2.37   4.00   4.00   4.00   4.00   3.63   0.00   0.00   0.00   0.00      0      0      0       0     349
 1990 317   105   102   20.0      3   3.97   3545   2068      0   3187   5612      0    0.0  0.000      0      0  0.000  0.000  0.061  0.000   1.78   0.00   0.00      0      0    112.1   0.00   0.00   0.90   2.57   4.00   4.00   4.00   4.00   3.68   0.00   0.00   0.00   0.00      0      0      0       0     364
 1990 318   106   103   20.0      3   4.02   3629   2255      0   3186   5884      0    0.0  0.000      0      0  0.000  0.000  0.064  0.000   1.71   0.00   0.00      0      0    110.9   0.00   0.00   0.92   2.60   4.00   4.00   4.00   4.00   3.67   0.04   0.00   0.00   0.00      0      0      0       0     380
 1990 319   107   104   20.0      3   4.03   3671   2357      0   3178   6028      0    0.0  0.000      0      0  0.000  0.000  0.076  0.000   1.68   0.00   0.00      0      0    109.7   0.00   0.00   0.93   2.60   4.00   4.00   3.99   3.98   3.66   0.07   0.00   0.00   0.00      0      0      0       0     396
 1990 320   108   105   21.0      3   4.03   3720   2479      0   3241   6198      0    0.0  0.000      0      0  0.000  0.000  0.083  0.000   1.65   0.00   0.00      0      0    108.4   0.00   0.00   0.94   2.77   4.00   4.00   4.00   4.00   3.70   0.40   0.00   0.00   0.00      0      0      0       0     412
 1990 321   109   106   21.0      3   4.04   3769   2607      0   3403   6376      0    0.0  0.000      0      0  0.000  0.000  0.084  0.000   1.63   0.00   0.00      0      0    107.1   0.00   0.00   0.95   3.14   4.00   4.00   4.00   4.00   3.80   1.23   0.00   0.00   0.00      0      0      0       0     428
 1990 322   110   107   21.0      3   4.06   3841   2807      0   3509   6648      0    0.0  0.000      0      0  0.000  0.000  0.084  0.005   1.58   0.00   0.00      0      0    105.8   0.00   0.00   0.96   3.38   4.00   4.00   4.00   4.00   3.87   1.83   0.00   0.00   0.00      0      0      0       0     445
 1990 323   111   108   22.0      3   4.10   3929   3066      0   3570   6996      0    0.0  0.000      0      0  0.000  0.000  0.083  0.000   1.52   0.00   0.00      0      0    104.4   0.00   0.00   0.98   3.52   4.00   4.00   4.00   4.00   3.89   2.24   0.00   0.00   0.00      0      0      0       0     463
 1990 324   112   109   22.0      3   4.11   3981   3218      0   3563   7199      0    0.0  0.000      0      0  0.000  0.000  0.087  0.000   1.50   0.00   0.00      0      0    103.2   0.00   0.00   1.00   3.52   4.00   4.00   3.99   3.99   3.88   2.29   0.00   0.00   0.00      0      0      0       0     481
 1990 325   113   110   22.0      3   4.12   4049   3420      0   3694   7469      0    0.0  0.000      0      0  0.000  0.000  0.094  0.000   1.46   0.00   0.00      0      0    101.8   0.00   0.00   1.01   3.79   4.00   4.00   4.00   4.00   3.95   3.07   0.00   0.00   0.00      0      0      0       0     498
 1990 326   114   111   22.0      3   4.13   4109   3593      0   3818   7702      0    0.0  0.000      0      0  0.000  0.000  0.096  0.000   1.43   0.00   0.00      0      0    100.5   0.00   0.00   1.03   4.00   4.00   4.00   4.00   4.00   4.00   3.78   0.00   0.00   0.00      0      0      0       0     517
 1990 327   115   112   22.0      3   4.13   4165   3758      0   3960   7923      0    0.0  0.000      0      0  0.000  0.000  0.101  0.000   1.40   0.00   0.00      0      0     99.2   0.00   0.00   1.04   4.00   4.00   4.00   4.00   4.00   4.00   4.00   0.00   0.00   0.00      0      0      0       0     536
 1990 328   116   113   22.0      3   4.13   4228   3941      0   4052   8169      0    0.0  0.000      0      0  0.000  0.000  0.104  0.000   1.37   0.00   0.00      0      0     97.8   0.00   0.00   1.05   4.00   4.00   4.00   4.00   4.00   4.00   4.00   0.00   0.00   0.00      0      0      0       0     556
 1990 329   117   114   22.0      4   4.08   4184   3354      0   4090   8374      0    0.0  0.000    836      0  0.000  0.000  0.106  0.000   1.50   0.00   0.10      0    836     97.5   0.00   0.00   1.07   4.00   4.00   4.00   4.00   4.00   4.00   4.00   0.00   0.00   0.00      0      0      0       0     576
 1990 330   118   115   22.0      4   4.02   4138   3410      0   4181   8523      0    0.0  0.000    975      0  0.000  0.000  0.108  0.000   1.51   0.00   0.11      0    975     97.3   0.00   0.00   1.08   4.00   4.00   4.00   4.00   4.00   4.00   4.00   0.00   0.00   0.00      0      0      0       0     597
 1990 331   119   116   22.0      4   3.98   4091   3447      0   4379   8606      0    0.0  0.000   1068      0  0.000  0.000  0.081  0.000   1.52   0.00   0.12      0   1068     97.4   0.00   0.00   1.09   4.00   4.00   4.00   4.00   4.00   4.00   4.00   0.05   0.00   0.00      0      0      0       0     617
 1990 332   120   117   22.0      4   3.95   4041   3491      0   4570   8709      0    0.0  0.000   1177      0  0.000  0.000  0.078  0.000   1.53   0.00   0.14      0   1177     97.6   0.00   0.00   1.09   4.00   4.00   4.00   4.00   4.00   4.00   4.00   0.16   0.00   0.00      0      0      0       0     639
 1990 333   121   118   22.0      4   3.91   3989   3549      0   4736   8863      0    0.0  0.000   1324      0  0.000  0.000  0.072  0.000   1.54   0.00   0.15      0   1324     98.0   0.00   0.00   1.10   4.00   4.00   4.00   4.00   4.00   4.00   4.00   0.32   0.00   0.00      0      0      0       0     662
 1990 334   122   119   22.0      4   3.88   3935   3615      0   4738   9039      0    0.0  0.000   1489      0  0.000  0.000  0.067  0.000   1.55   0.00   0.16      0   1489     98.5   0.00   0.00   1.11   4.00   4.00   4.00   4.00   4.00   4.00   4.00   0.34   0.00   0.00      0      0      0       0     686
 1990 335   123   120   22.0      4   3.85   3878   3681      0   4822   9210      0    0.0  0.000   1652      0  0.000  0.000  0.063  0.000   1.56   0.00   0.18      0   1652     99.2   0.00   0.00   1.12   4.00   4.00   4.00   4.00   4.00   4.00   4.00   0.49   0.00   0.00      0      0      0       0     710
 1990 336   124   121   22.0      4   3.82   3819   3726      0   4805   9309      0    0.0  0.000   1765      0  0.000  0.000  0.059  0.000   1.57   0.00   0.19      0   1765    100.0   0.00   0.00   1.13   4.00   4.00   4.00   3.99   3.99   3.99   3.98   0.50   0.00   0.00      0      0      0       0     734
 1990 337   125   122   22.0      4   3.79   3757   3774      0   4983   9417      0    0.0  0.000   1886      0  0.000  0.000  0.056  0.000   1.58   0.00   0.20      0   1886    100.9   0.00   0.00   1.13   4.00   4.00   4.00   4.00   4.00   4.00   4.00   0.81   0.00   0.00      0      0      0       0     758
 1990 338   126   123   22.0      4   3.77   3694   3834      0   5128   9565      0    0.0  0.000   2037      0  0.000  0.000  0.052  0.000   1.59   0.00   0.21      0   2037    102.0   0.00   0.00   1.14   4.00   4.00   4.00   4.00   4.00   4.00   4.00   1.08   0.00   0.00      0      0      0       0     783
 1990 339   127   124   22.0      4   3.74   3626   3919      0   5115   9795      0    0.0  0.000   2249      0  0.000  0.000  0.047  0.000   1.59   0.00   0.23      0   2249    103.3   0.00   0.00   1.15   4.00   4.00   4.00   4.00   3.99   3.99   3.99   1.10   0.00   0.00      0      0      0       0     808
 1990 340   128   125   22.0      4   3.72   3556   3994      0   5121   9985      0    0.0  0.000   2435      0  0.000  0.000  0.043  0.000   1.60   0.00   0.24      0   2435    104.7   0.00   0.00   1.16   4.00   4.00   4.00   4.00   4.00   4.00   3.99   1.14   0.00   0.00      0      0      0       0     834
 1990 341   129   126   22.0      4   3.71   3484   4064      0   5234  10157      0    0.0  0.000   2609      0  0.000  0.000  0.040  0.000   1.61   0.00   0.26      0   2609    106.4   0.00   0.00   1.17   4.00   4.00   4.00   4.00   4.00   4.00   4.00   1.37   0.00   0.00      0      0      0       0     859
 1990 342   130   127   22.0      4   3.69   3409   4122      0   5399  10286      0    0.0  0.000   2756      0  0.000  0.000  0.038  0.063   1.61   0.00   0.27      0   2756    108.2   0.00   0.00   1.18   4.00   4.00   4.00   4.00   4.00   4.00   4.00   1.66   0.00   0.00      0      0      0       0     886
 1990 343   131   128   22.0      5   3.66   3409   4122    154   5376  10441   3745    4.1  0.015   2910      7  0.000  0.000  0.057  0.090   1.59   5.30   0.28      0   2910    107.4   0.00   0.00   1.18   3.99   3.99   3.99   3.98   3.98   3.98   3.98   1.66   0.00   0.00      0      0      0       0     913
 1990 344   132   129   22.0      5   3.63   3409   4122    325   5349  10612   3745    8.7  0.031   3081      7  0.000  0.000  0.063  0.366   1.56  10.56   0.29      0   3081    106.6   0.00   0.00   1.19   3.77   3.77   3.77   3.77   3.77   3.77   3.76   1.57   0.00   0.00      0      0      0       0     939
 1990 345   133   130   22.0      5   3.60   3409   4122    546   5383  10832   3745   14.6  0.050   3302      7  0.000  0.000  0.066  0.211   1.52  16.53   0.30      0   3302    105.7   0.00   0.00   1.20   3.90   3.90   3.90   3.78   3.77   3.75   3.73   1.55   0.00   0.00      0      0      0       0     966
 1990 346   134   131   22.0      5   3.57   3409   4122    684   5390  10970   3745   18.3  0.062   3440      7  0.000  0.000  0.074  0.127   1.50  19.88   0.31      0   3440    104.7   0.00   0.00   1.20   3.99   3.99   3.99   3.81   3.79   3.77   3.74   1.55   0.00   0.00      0      0      0       0     993
 1990 347   135   132   22.0      5   3.54   3409   4122    888   5400  11175   3745   23.7  0.079   3644      7  0.000  0.000  0.076  0.049   1.46  24.38   0.33      0   3644    103.7   0.00   0.00   1.21   4.00   4.00   4.00   3.84   3.82   3.79   3.75   1.56   0.00   0.00      0      0      0       0    1020
 1990 348   136   133   22.0      5   3.50   3409   4122   1023   5473  11309   3745   27.3  0.090   3779      7  0.000  0.000  0.082  0.004   1.44  27.07   0.33      0   3779    102.7   0.00   0.00   1.22   4.00   4.00   4.00   3.97   3.93   3.88   3.81   1.58   0.00   0.00      0      0      0       0    1047
 1990 349   137   134   22.0      5   3.46   3409   4122   1226   5540  11513   3745   32.7  0.107   3982      7  0.000  0.000  0.083  0.000   1.41  30.79   0.35      0   3982    101.6   0.00   0.00   1.23   4.00   4.00   4.00   4.00   4.00   3.96   3.86   1.61   0.00   0.00      0      0      0       0    1074
 1990 350   138   135   22.0      5   3.43   3409   4122   1495   5576  11781   3745   39.9  0.127   4250      7  0.000  0.000  0.087  0.000   1.36  35.16   0.36      0   4250    100.5   0.00   0.00   1.23   4.00   4.00   4.00   4.00   4.00   4.00   3.89   1.62   0.00   0.00      0      0      0       0    1102
 1990 351   139   136   22.0      5   3.39   3409   4101   1775   5548  12041   3745   47.4  0.147   4531      7  0.000  0.000  0.093  0.000   1.32  39.18   0.38      0   4531     99.3   0.00   0.00   1.23   4.00   4.00   4.00   4.00   4.00   4.00   3.89   1.62   0.00   0.00      0      0      0       0    1130
 1990 352   140   137   22.0      5   3.34   3409   4122   2032   5578  12319   3745   54.3  0.165   4788      7  0.000  0.000  0.103  0.000   1.28  42.44   0.39      0   4788     98.0   0.00   0.00   1.24   4.00   4.00   4.00   4.00   4.00   4.00   3.92   1.64   0.00   0.00      0      0      0       0    1158
 1990 353   141   138   22.0      5   3.30   3409   4122   2256   5633  12543   3745   60.2  0.180   5012      7  0.000  0.000  0.110  0.000   1.24  45.01   0.40      0   5012     96.7   0.00   0.00   1.25   4.00   4.00   4.00   4.00   4.00   4.00   3.96   1.66   0.00   0.00      0      0      0       0    1186
 1990 354   142   139   22.0      5   3.25   3409   4122   2492   5684  12779   3745   66.6  0.195   5248      7  0.000  0.000  0.118  0.018   1.21  47.49   0.41      0   5248     95.3   0.00   0.00   1.25   4.00   4.00   4.00   4.00   4.00   4.00   4.00   1.68   0.00   0.00      0      0      0       0    1214
 1990 355   143   140   22.0      5   3.20   3409   4122   2773   5696  13060   3745   74.1  0.212   5529      7  0.000  0.000  0.123  0.000   1.17  50.16   0.42      0   5529     93.8   0.00   0.00   1.25   4.00   4.00   4.00   4.00   4.00   4.00   4.00   1.69   0.00   0.00      0      0      0       0    1242
 1990 356   144   141   22.0      5   3.14   3409   4015   3051   5667  13230   3745   81.5  0.231   5807      7  0.000  0.000  0.132  0.000   1.14  52.54   0.44      0   5807     92.3   0.00   0.00   1.25   4.00   4.00   4.00   4.00   4.00   4.00   4.00   1.69   0.00   0.00      0      0      0       0    1271
 1990 357   145   142   22.0      5   3.09   3409   4039   3332   5651  13535   3745   89.0  0.246   6087      7  0.000  0.000  0.141  0.000   1.10  54.73   0.45      0   6087     90.6   0.00   0.00   1.25   4.00   4.00   4.00   4.00   3.99   3.99   3.99   1.69   0.00   0.00      0      0      0       0    1299
 1990 358   146   143   22.0      5   3.03   3409   4035   3554   5622  13754   3745   94.9  0.258   6310      7  0.000  0.000  0.146  0.344   1.07  56.33   0.46      0   6310     89.0   0.00   0.00   1.25   4.00   4.00   4.00   4.00   3.99   3.99   3.99   1.69   0.00   0.00      0      0      0       0    1327
 1990 359   147   144   22.0      5   2.97   3409   4122   3760   5664  14046   3745  100.4  0.268   6516      7  0.000  0.000  0.155  0.150   1.03  57.70   0.46      0   6516     87.2   0.00   0.00   1.25   4.00   4.00   4.00   4.00   4.00   4.00   4.00   1.71   0.00   0.00      0      0      0       0    1355
 1990 360   148   145   22.0      5   2.91   3409   4122   4041   5693  14327   3745  107.9  0.282   6796      7  0.000  0.000  0.160  0.047   0.99  59.45   0.47      0   6796     85.5   0.00   0.00   1.25   4.00   4.00   4.00   4.00   4.00   4.00   4.00   1.72   0.00   0.00      0      0      0       0    1384
 1990 361   149   146   22.0      5   2.85   3409   4122   4321   5720  14608   3745  115.4  0.296   7077      7  0.000  0.000  0.173  0.007   0.96  61.06   0.48      0   7077     83.7   0.00   0.00   1.25   4.00   4.00   4.00   4.00   4.00   4.00   4.00   1.73   0.00   0.00      0      0      0       0    1412
 1990 362   150   147   22.0      5   2.79   3409   4122   4480   5774  14767   3745  119.6  0.303   7236      7  0.000  0.000  0.184  0.000   0.94  61.91   0.49      0   7236     81.7   0.00   0.00   1.25   4.00   4.00   4.00   4.00   4.00   4.00   4.00   1.76   0.00   0.00      0      0      0       0    1441
 1990 363   151   148   22.0      5   2.72   3409   4122   4621   5825  14907   3745  123.4  0.310   7376      7  0.000  0.000  0.187  0.000   0.93  62.64   0.49      0   7376     79.8   0.00   0.00   1.25   4.00   4.00   4.00   4.00   4.00   4.00   4.00   1.78   0.00   0.00      0      0      0       0    1470
 1990 364   152   149   22.0      5   2.66   3409   4122   4828   5863  15115   3745  128.9  0.319   7584      7  0.000  0.000  0.189  0.000   0.91  63.66   0.50      0   7584     77.9   0.00   0.00   1.25   4.00   4.00   4.00   4.00   4.00   4.00   4.00   1.80   0.00   0.00      0      0      0       0    1499
 1990 365   153   150   22.0      5   2.59   3409   4122   5100   5885  15387   3745  136.2  0.331   7856      7  0.000  0.000  0.194  0.000   0.88  64.92   0.51      0   7856     76.0   0.00   0.00   1.25   4.00   4.00   4.00   4.00   4.00   4.00   4.00   1.81   0.00   0.00      0      0      0       0    1528
 1991 001   154   151   22.0      5   2.53   3409   4122   5381   5876  15667   3745  143.7  0.343   8137      7  0.000  0.000  0.208  0.000   0.84  66.13   0.52      0   8137     74.1   0.00   0.00   1.25   4.00   4.00   4.00   4.00   4.00   4.00   3.99   1.81   0.00   0.00      0      0      0       0    1558
 1991 002   155   152   22.0      5   2.46   3409   4122   5662   5862  15948   3745  151.2  0.355   8418      7  0.000  0.000  0.236  0.000   0.81  67.26   0.53      0   8418     72.2   0.00   0.00   1.25   4.00   4.00   4.00   4.00   4.00   4.00   3.99   1.80   0.00   0.00      0      0      0       0    1587
 1991 003   156   153   22.0      5   2.39   3409   4122   5943   5853  16229   3745  158.7  0.366   8698      7  0.000  0.000  0.266  0.000   0.78  68.32   0.54      0   8698     70.2   0.00   0.00   1.25   4.00   4.00   4.00   4.00   4.00   4.00   3.98   1.80   0.00   0.00      0      0      0       0    1616
 1991 004   157   154   22.0      5   2.32   3409   4122   6189   5863  16476   3745  165.3  0.376   8945      7  0.000  0.000  0.298  0.000   0.76  69.19   0.54      0   8945     68.1   0.00   0.00   1.25   4.00   4.00   4.00   4.00   4.00   4.00   3.99   1.81   0.00   0.00      0      0      0       0    1646
 1991 005   158   155   22.0      5   2.25   3409   4122   6436   5868  16722   3745  171.9  0.385   9192      7  0.000  0.000  0.323  0.000   0.74  70.02   0.55      0   9192     66.1   0.00   0.00   1.25   4.00   4.00   4.00   4.00   4.00   4.00   4.00   1.81   0.00   0.00      0      0      0       0    1675
 1991 006   159   156   22.0      5   2.18   3409   4122   6696   5866  16983   3745  178.8  0.394   9452      7  0.000  0.000  0.347  0.000   0.72  70.84   0.56      0   9452     64.0   0.00   0.00   1.25   4.00   4.00   4.00   4.00   4.00   4.00   4.00   1.81   0.00   0.00      0      0      0       0    1704
 1991 007   160   157   22.0      5   2.11   3409   4122   6977   5849  17264   3745  186.3  0.404   9733      7  0.000  0.000  0.372  0.000   0.69  71.69   0.56      0   9733     61.9   0.00   0.00   1.25   4.00   4.00   4.00   4.00   4.00   3.99   3.99   1.81   0.00   0.00      0      0      0       0    1733
 1991 008   161   158   22.0      5   2.04   3409   4122   7258   5828  17544   3745  193.8  0.414  10014      7  0.000  0.000  0.400  0.000   0.67  72.48   0.57      0  10014     59.9   0.00   0.00   1.25   4.00   4.00   4.00   3.99   3.99   3.98   3.97   1.80   0.00   0.00      0      0      0       0    1763
 1991 009   162   159   22.0      5   1.97   3409   3939   7539   5799  17642   3745  201.3  0.427  10295      7  0.000  0.000  0.433  0.000   0.66  73.23   0.58      0  10295     57.8   0.00   0.00   1.25   4.00   4.00   4.00   3.99   3.99   3.98   3.97   1.80   0.00   0.00      0      0      0       0    1792
 1991 010   163   160   22.0      5   1.90   3409   3915   7820   5770  17899   3745  208.8  0.437  10575      7  0.000  0.000  0.463  0.000   0.64  73.94   0.59      0  10575     55.7   0.00   0.00   1.25   4.00   4.00   4.00   3.99   3.99   3.98   3.97   1.80   0.00   0.00      0      0      0       0    1821
 1991 011   164   161   22.0      5   1.83   3409   3876   8086   5741  18126   3745  215.9  0.446  10841      7  0.000  0.000  0.466  0.000   0.62  74.58   0.60      0  10841     53.7   0.00   0.00   1.25   4.00   4.00   4.00   3.99   3.99   3.98   3.97   1.80   0.00   0.00      0      0      0       0    1850
 1991 012   165   162   22.0      5   1.76   3409   3891   8303   5720  18358   3745  221.7  0.452  11058      7  0.000  0.000  0.495  0.000   0.60  75.08   0.60      0  11058     51.7   0.00   0.00   1.25   4.00   4.00   4.00   3.98   3.98   3.97   3.96   1.80   0.00   0.00      0      0      0       0    1878
 1991 013   166   163   22.0      5   1.70   3409   3823   8525   5692  18513   3745  227.7  0.460  11281      7  0.000  0.000  0.511  0.000   0.59  75.57   0.61      0  11281     49.7   0.00   0.00   1.25   4.00   4.00   4.00   3.98   3.98   3.97   3.96   1.80   0.00   0.00      0      0      0       0    1907
 1991 014   167   164   22.0      5   1.63   3409   3797   8779   5663  18740   3745  234.4  0.468  11534      7  0.000  0.000  0.539  0.000   0.58  76.11   0.62      0  11534     47.8   0.00   0.00   1.25   4.00   4.00   4.00   3.98   3.98   3.97   3.96   1.80   0.00   0.00      0      0      0       0    1935
 1991 015   168   165   22.0      5   1.56   3409   3725   9060   5635  18949   3745  241.9  0.478  11815      7  0.000  0.000  0.558  0.000   0.56  76.68   0.62      0  11815     45.9   0.00   0.00   1.25   4.00   4.00   4.00   3.98   3.98   3.97   3.96   1.80   0.00   0.00      0      0      0       0    1964
 1991 016   169   166   22.0      5   1.50   3409   3695   9232   5607  19091   3745  246.5  0.484  11988      7  0.000  0.000  0.587  0.000   0.56  77.01   0.63      0  11988     44.0   0.00   0.00   1.25   4.00   4.00   4.00   3.98   3.98   3.97   3.96   1.80   0.00   0.00      0      0      0       0    1992
 1991 017   170   167   22.0      5   1.44   3409   3726   9359   5594  19249   3745  249.9  0.486  12114      7  0.000  0.000  0.594  0.000   0.55  77.25   0.63      0  12114     42.2   0.00   0.00   1.25   3.98   4.00   4.00   3.98   3.98   3.97   3.95   1.79   0.00   0.00      0      0      0       0    2020
 1991 018   171   168   22.0      5   1.38   3409   3701   9568   5566  19433   3745  255.5  0.492  12323      7  0.000  0.000  0.598  0.000   0.54  77.64   0.63      0  12323     40.4   0.00   0.00   1.25   3.98   4.00   4.00   3.98   3.98   3.97   3.95   1.79   0.00   0.00      0      0      0       0    2048
 1991 019   172   169   22.0      5   1.32   3409   3612   9807   5538  19584   3745  261.9  0.501  12563      7  0.000  0.000  0.626  0.000   0.53  78.06   0.64      0  12563     38.7   0.00   0.00   1.25   3.98   4.00   4.00   3.98   3.98   3.97   3.95   1.79   0.00   0.00      0      0      0       0    2076
 1991 020   173   170   22.0      5   1.32   3409   3612   9807   5538  19584   3745  261.9  0.501  12563      7  0.000  0.000  0.626  0.000   0.53  78.06   0.64      0  12563     38.7   0.00   0.00   1.25   3.98   4.00   4.00   3.98   3.98   3.97   3.95   1.79   0.00   0.00      0      0      0       0    2076
 1991 021   174   171   22.0      5   1.32   3409   3612   9807   5538  19584   3745  261.9  0.501  12563      7  0.000  0.000  0.626  0.000   0.53  78.06   0.64      0  12563     38.7   0.00   0.00   1.25   3.98   4.00   4.00   3.98   3.98   3.97   3.95   1.79   0.00   0.00      0      0      0       0    2076
 1991 022   175   172   22.0      5   1.32   3409   3612   9807   5538  19584   3745  261.9  0.501  12563      7  0.000  0.000  0.626  0.000   0.53  78.06   0.64      0  12563     38.7   0.00   0.00   1.25   3.98   4.00   4.00   3.98   3.98   3.97   3.95   1.79   0.00   0.00      0      0      0       0    2076
 1991 023   176   173   22.0      5   1.32   3409   3612   9807   5538  19584   3745  261.9  0.501  12563      7  0.000  0.000  0.626  0.000   0.53  78.06   0.64      0  12563     38.7   0.00   0.00   1.25   3.98   4.00   4.00   3.98   3.98   3.97   3.95   1.79   0.00   0.00      0      0      0       0    2076

*DSSAT Cropping System Model Ver. 4.0.2.000               Aug 03, 2016; 15:29:28

*RUN   2        : UYMZ                    
 MODEL          : MZCER040 - Maize           
 EXPERIMENT     : UYMZ0128 MZ    late to create DSS                             
 TREATMENT  1   : UYMZ                    

@YEAR DOY   DAS   DAP   L#SD   GSTD   LAID   LWAD   SWAD   GWAD   RWAD   CWAD   G#AD   GWGD   HIAD   PWAD   P#AD   WSPD   WSGD   NSTD   EWSD   LN%D   SH%D   HIPD   PWDD   PWTD     SLAD   CHTD   CWID   RDPD   RL1D   RL2D   RL3D   RL4D   RL5D   RL6D   RL7D   RL8D   RL9D   RL10   CDAD   LDAD   SDAD   SNW0C   SNW1C
 1991 215     3     0    0.0      0   0.00      0      0      0      0      0      0    0.0  0.000      0      0  0.000  0.000  0.000  0.000   0.00   0.00   0.00      0      0      0.0   0.00   0.00   0.03   0.00   0.00   0.00   0.00   0.00   0.00   0.00   0.00   0.00   0.00      0      0      0       0       0
 1991 216     4     1    0.0      0   0.00      0      0      0      0      0      0    0.0  0.000      0      0  0.000  0.000  0.000  0.000   0.00   0.00   0.00      0      0      0.0   0.00   0.00   0.03   0.00   0.00   0.00   0.00   0.00   0.00   0.00   0.00   0.00   0.00      0      0      0       0       0
 1991 217     5     2    0.0      0   0.00      0      0      0      0      0      0    0.0  0.000      0      0  0.000  0.000  0.000  0.000   0.00   0.00   0.00      0      0      0.0   0.00   0.00   0.03   0.00   0.00   0.00   0.00   0.00   0.00   0.00   0.00   0.00   0.00      0      0      0       0       0
 1991 218     6     3    0.0      0   0.00      0      0      0      0      0      0    0.0  0.000      0      0  0.000  0.000  0.000  0.000   0.00   0.00   0.00      0      0      0.0   0.00   0.00   0.03   0.00   0.00   0.00   0.00   0.00   0.00   0.00   0.00   0.00   0.00      0      0      0       0       0
 1991 219     7     4    0.0      0   0.00      0      0      0      0      0      0    0.0  0.000      0      0  0.000  0.000  0.000  0.000   0.00   0.00   0.00      0      0      0.0   0.00   0.00   0.03   0.00   0.00   0.00   0.00   0.00   0.00   0.00   0.00   0.00   0.00      0      0      0       0       0
 1991 220     8     5    0.0      0   0.00      0      0      0      0      0      0    0.0  0.000      0      0  0.000  0.000  0.000  0.000   0.00   0.00   0.00      0      0      0.0   0.00   0.00   0.04   0.00   0.00   0.00   0.00   0.00   0.00   0.00   0.00   0.00   0.00      0      0      0       0       0
 1991 221     9     6    0.0      0   0.00      0      0      0      0      0      0    0.0  0.000      0      0  0.000  0.000  0.000  0.000   0.00   0.00   0.00      0      0      0.0   0.00   0.00   0.05   0.00   0.00   0.00   0.00   0.00   0.00   0.00   0.00   0.00   0.00      0      0      0       0       0
 1991 222    10     7    0.0      0   0.00      0      0      0      0      0      0    0.0  0.000      0      0  0.000  0.000  0.000  0.000   0.00   0.00   0.00      0      0      0.0   0.00   0.00   0.05   0.00   0.00   0.00   0.00   0.00   0.00   0.00   0.00   0.00   0.00      0      0      0       0       0
 1991 223    11     8    0.0      0   0.00      0      0      0      0      0      0    0.0  0.000      0      0  0.000  0.000  0.000  0.000   0.00   0.00   0.00      0      0      0.0   0.00   0.00   0.05   0.00   0.00   0.00   0.00   0.00   0.00   0.00   0.00   0.00   0.00      0      0      0       0       0
 1991 224    12     9    0.0      0   0.00      0      0      0      0      0      0    0.0  0.000      0      0  0.000  0.000  0.000  0.000   0.00   0.00   0.00      0      0      0.0   0.00   0.00   0.05   0.00   0.00   0.00   0.00   0.00   0.00   0.00   0.00   0.00   0.00      0      0      0       0       0
 1991 225    13    10    0.0      0   0.00      0      0      0      0      0      0    0.0  0.000      0      0  0.000  0.000  0.000  0.000   0.00   0.00   0.00      0      0      0.0   0.00   0.00   0.06   0.00   0.00   0.00   0.00   0.00   0.00   0.00   0.00   0.00   0.00      0      0      0       0       0
 1991 226    14    11    0.0      0   0.00      0      0      0      0      0      0    0.0  0.000      0      0  0.000  0.000  0.000  0.000   0.00   0.00   0.00      0      0      0.0   0.00   0.00   0.08   0.00   0.00   0.00   0.00   0.00   0.00   0.00   0.00   0.00   0.00      0      0      0       0       0
 1991 227    15    12    0.0      0   0.00      0      0      0      0      0      0    0.0  0.000      0      0  0.000  0.000  0.000  0.000   0.00   0.00   0.00      0      0      0.0   0.00   0.00   0.10   0.00   0.00   0.00   0.00   0.00   0.00   0.00   0.00   0.00   0.00      0      0      0       0       0
 1991 228    16    13    2.0      1   0.00     14     14      0     14     28      0    0.0  0.000      0      0  0.000  0.000  0.012  0.000   4.40   0.00   0.00      0      0     24.9   0.00   0.00   0.11   0.28   0.07   0.00   0.00   0.00   0.00   0.00   0.00   0.00   0.00      0      0      0       0       0
 1991 229    17    14    2.0      1   0.01     14     14      0     14     28      0    0.0  0.000      0      0  0.000  0.000  0.017  0.000   4.54   0.00   0.00      0      0     43.5   0.00   0.00   0.12   0.28   0.07   0.00   0.00   0.00   0.00   0.00   0.00   0.00   0.00      0      0      0       0       0
 1991 230    18    15    2.0      1   0.01     14     14      0     15     28      0    0.0  0.000      0      0  0.000  0.000  0.000  0.000   4.54   0.00   0.00      0      0     64.2   0.00   0.00   0.13   0.29   0.08   0.00   0.00   0.00   0.00   0.00   0.00   0.00   0.00      0      0      0       0       0
 1991 231    19    16    3.0      1   0.01     14     14      0     16     28      0    0.0  0.000      0      0  0.000  0.000  0.000  0.000   4.48   0.00   0.00      0      0     87.2   0.00   0.00   0.14   0.30   0.09   0.00   0.00   0.00   0.00   0.00   0.00   0.00   0.00      0      0      0       0       0
 1991 232    20    17    3.0      1   0.02     14     14      0     17     28      0    0.0  0.000      0      0  0.000  0.000  0.000  0.000   4.45   0.00   0.00      0      0    112.4   0.00   0.00   0.15   0.30   0.11   0.00   0.00   0.00   0.00   0.00   0.00   0.00   0.00      0      0      0       0       0
 1991 233    21    18    3.0      1   0.02     14     14      0     19     28      0    0.0  0.000      0      0  0.000  0.000  0.000  0.000   4.42   0.00   0.00      0      0    140.1   0.00   0.00   0.17   0.32   0.13   0.00   0.00   0.00   0.00   0.00   0.00   0.00   0.00      0      0      0       0       0
 1991 234    22    19    4.0      1   0.03     14     14      0     21     28      0    0.0  0.000      0      0  0.000  0.000  0.000  0.000   4.39   0.00   0.00      0      0    246.9   0.00   0.00   0.18   0.34   0.16   0.01   0.00   0.00   0.00   0.00   0.00   0.00   0.00      0      0      0       0       0
 1991 235    23    20    4.0      1   0.05     14     14      0     26     28      0    0.0  0.000      0      0  0.000  0.000  0.000  0.000   4.37   0.00   0.00      0      0    342.6   0.00   0.00   0.19   0.38   0.21   0.03   0.00   0.00   0.00   0.00   0.00   0.00   0.00      0      0      0       0       0
 1991 236    24    21    4.0      1   0.06     18     14      0     31     32      0    0.0  0.000      0      0  0.000  0.000  0.000  0.000   3.82   0.00   0.00      0      0    326.9   0.00   0.00   0.20   0.42   0.26   0.04   0.00   0.00   0.00   0.00   0.00   0.00   0.00      0      0      0       0       1
 1991 237    25    22    5.0      1   0.07     24     14      0     35     38      0    0.0  0.000      0      0  0.000  0.000  0.000  0.000   3.61   0.00   0.00      0      0    307.4   0.00   0.00   0.21   0.44   0.30   0.06   0.00   0.00   0.00   0.00   0.00   0.00   0.00      0      0      0       0       1
 1991 238    26    23    5.0      1   0.08     28     14      0     36     42      0    0.0  0.000      0      0  0.000  0.000  0.000  0.000   3.88   0.00   0.00      0      0    297.6   0.00   0.00   0.22   0.45   0.30   0.06   0.00   0.00   0.00   0.00   0.00   0.00   0.00      0      0      0       0       1
 1991 239    27    24    5.0      1   0.09     32     14      0     37     46      0    0.0  0.000      0      0  0.000  0.000  0.000  0.000   3.95   0.00   0.00      0      0    290.4   0.00   0.00   0.22   0.46   0.31   0.07   0.00   0.00   0.00   0.00   0.00   0.00   0.00      0      0      0       0       1
 1991 240    28    25    5.0      1   0.11     39     14      0     42     53      0    0.0  0.000      0      0  0.000  0.000  0.000  0.000   3.70   0.00   0.00      0      0    278.8   0.00   0.00   0.23   0.49   0.35   0.09   0.00   0.00   0.00   0.00   0.00   0.00   0.00      0      0      0       0       1
 1991 241    29    26    5.0      1   0.13     49     14      0     47     63      0    0.0  0.000      0      0  0.000  0.000  0.000  0.000   3.59   0.00   0.00      0      0    266.6   0.00   0.00   0.24   0.52   0.39   0.12   0.00   0.00   0.00   0.00   0.00   0.00   0.00      0      0      0       0       1
 1991 242    30    27    6.0      1   0.16     61     14      0     48     75      0    0.0  0.000      0      0  0.000  0.000  0.000  0.000   3.52   0.00   0.00      0      0    254.7   0.00   0.00   0.25   0.53   0.41   0.13   0.00   0.00   0.00   0.00   0.00   0.00   0.00      0      0      0       0       2
 1991 243    31    28    6.0      1   0.17     67     14      0     51     81      0    0.0  0.000      0      0  0.000  0.000  0.000  0.000   3.87   0.00   0.00      0      0    249.5   0.00   0.00   0.26   0.55   0.43   0.15   0.00   0.00   0.00   0.00   0.00   0.00   0.00      0      0      0       0       2
 1991 244    32    29    6.0      1   0.18     72     14      0     58     86      0    0.0  0.000      0      0  0.000  0.000  0.000  0.000   3.95   0.00   0.00      0      0    245.9   0.00   0.00   0.26   0.58   0.48   0.19   0.00   0.00   0.00   0.00   0.00   0.00   0.00      0      0      0       0       2
 1991 245    33    30    6.0      1   0.19     80     14      0     62     94      0    0.0  0.000      0      0  0.000  0.000  0.000  0.000   3.82   0.00   0.00      0      0    240.6   0.00   0.00   0.27   0.60   0.50   0.22   0.00   0.00   0.00   0.00   0.00   0.00   0.00      0      0      0       0       2
 1991 246    34    31    6.0      1   0.22     94     14      0     71    108      0    0.0  0.000      0      0  0.000  0.000  0.000  0.015   3.60   0.00   0.00      0      0    232.7   0.00   0.00   0.28   0.64   0.57   0.28   0.00   0.00   0.00   0.00   0.00   0.00   0.00      0      0      0       0       3
 1991 247    35    32    7.0      1   0.25    114     14      0     94    128      0    0.0  0.000      0      0  0.000  0.000  0.000  0.000   3.50   0.00   0.00      0      0    224.0   0.00   0.00   0.29   0.74   0.72   0.44   0.00   0.00   0.00   0.00   0.00   0.00   0.00      0      0      0       0       3
 1991 248    36    33    7.0      1   0.30    137     14      0    119    151      0    0.0  0.000      0      0  0.000  0.000  0.000  0.000   3.45   0.00   0.00      0      0    215.5   0.00   0.00   0.31   0.85   0.87   0.63   0.00   0.00   0.00   0.00   0.00   0.00   0.00      0      0      0       0       4
 1991 249    37    34    7.0      1   0.33    159     14      0    121    173      0    0.0  0.000      0      0  0.000  0.000  0.000  0.000   3.54   0.00   0.00      0      0    208.9   0.00   0.00   0.31   0.86   0.89   0.65   0.00   0.00   0.00   0.00   0.00   0.00   0.00      0      0      0       0       4
 1991 250    38    35    8.0      1   0.36    174     14      0    127    188      0    0.0  0.000      0      0  0.000  0.000  0.000  0.000   3.73   0.00   0.00      0      0    205.1   0.00   0.00   0.32   0.88   0.93   0.69   0.00   0.00   0.00   0.00   0.00   0.00   0.00      0      0      0       0       5
 1991 251    39    36    8.0      1   0.38    187     14      0    136    201      0    0.0  0.000      0      0  0.000  0.000  0.000  0.000   3.77   0.00   0.00      0      0    202.1   0.00   0.00   0.33   0.91   0.97   0.75   0.01   0.00   0.00   0.00   0.00   0.00   0.00      0      0      0       0       5
 1991 252    40    37    8.0      1   0.40    203     14      0    172    217      0    0.0  0.000      0      0  0.000  0.000  0.000  0.000   3.72   0.00   0.00      0      0    198.7   0.00   0.00   0.34   1.05   1.19   1.00   0.03   0.00   0.00   0.00   0.00   0.00   0.00      0      0      0       0       6
 1991 253    41    38    8.0      1   0.44    225     14      0    213    239      0    0.0  0.000      0      0  0.000  0.000  0.000  0.000   3.62   0.00   0.00      0      0    194.4   0.00   0.00   0.35   1.21   1.43   1.28   0.07   0.00   0.00   0.00   0.00   0.00   0.00      0      0      0       0       7
 1991 254    42    39    8.0      1   0.48    256     14      0    262    270      0    0.0  0.000      0      0  0.000  0.000  0.000  0.000   3.52   0.00   0.00      0      0    189.4   0.00   0.00   0.37   1.40   1.72   1.62   0.13   0.00   0.00   0.00   0.00   0.00   0.00      0      0      0       0       8
 1991 255    43    40    9.0      1   0.55    299     14      0    309    313      0    0.0  0.000      0      0  0.000  0.000  0.000  0.000   3.40   0.00   0.00      0      0    183.3   0.00   0.00   0.38   1.58   1.99   1.93   0.20   0.00   0.00   0.00   0.00   0.00   0.00      0      0      0       0       9
 1991 256    44    41    9.0      1   0.63    354     14      0    339    368      0    0.0  0.000      0      0  0.000  0.000  0.000  0.000   3.31   0.00   0.00      0      0    176.9   0.00   0.00   0.41   1.69   2.15   2.12   0.25   0.00   0.00   0.00   0.00   0.00   0.00      0      0      0       0      11
 1991 257    45    42    9.0      2   0.67    352     14      0    364    366      0    0.0  0.000      0      0  0.000  0.000  0.000  0.000   3.91   0.00   0.00      0      0    189.2   0.00   0.00   0.41   1.78   2.28   2.27   0.30   0.00   0.00   0.00   0.00   0.00   0.00      0      0      0       0      13
 1991 258    46    43    9.0      2   0.68    361     14      0    370    375      0    0.0  0.000      0      0  0.000  0.000  0.002  0.000   3.82   0.00   0.00      0      0    188.2   0.00   0.00   0.42   1.79   2.31   2.31   0.32   0.00   0.00   0.00   0.00   0.00   0.00      0      0      0       0      13
 1991 259    47    44   10.0      2   0.74    405     14      0    397    419      0    0.0  0.000      0      0  0.000  0.000  0.000  0.000   3.41   0.00   0.00      0      0    183.7   0.00   0.00   0.43   1.86   2.46   2.48   0.38   0.00   0.00   0.00   0.00   0.00   0.00      0      0      0       0      14
 1991 260    48    45   10.0      2   0.81    448     14      0    403    462      0    0.0  0.000      0      0  0.000  0.000  0.000  0.141   3.78   0.00   0.00      0      0    179.9   0.00   0.00   0.45   1.86   2.48   2.52   0.40   0.00   0.00   0.00   0.00   0.00   0.00      0      0      0       0      16
 1991 261    49    46   10.0      3   0.85    484     14      0    480    498      0    0.0  0.000      0      0  0.000  0.000  0.022  0.187   3.68   0.00   0.00      0      0    175.7   0.00   0.00   0.46   1.76   2.65   2.90   0.61   0.00   0.00   0.00   0.00   0.00   0.00      0      0      0       0      18
 1991 262    50    47   10.0      3   0.88    508     14      0    569    522      0    0.0  0.000      0      0  0.000  0.000  0.022  0.178   3.60   0.00   0.00      0      0    173.7   0.00   0.00   0.46   1.69   2.89   3.40   0.84   0.02   0.00   0.00   0.00   0.00   0.00      0      0      0       0      21
 1991 263    51    48   11.0      3   0.94    549     14      0    617    564      0    0.0  0.000      0      0  0.000  0.000  0.022  0.035   3.56   0.00   0.00      0      0    170.9   0.00   0.00   0.47   1.65   3.00   3.65   0.96   0.04   0.00   0.00   0.00   0.00   0.00      0      0      0       0      24
 1991 264    52    49   11.0      3   1.03    615     15      0    643    630      0    0.0  0.000      0      0  0.000  0.000  0.022  0.003   3.52   0.00   0.00      0      0    167.1   0.00   0.00   0.49   1.62   3.05   3.77   1.03   0.06   0.00   0.00   0.00   0.00   0.00      0      0      0       0      27
 1991 265    53    50   11.0      3   1.08    657     16      0    741    673      0    0.0  0.000      0      0  0.000  0.000  0.022  0.001   3.50   0.00   0.00      0      0    164.8   0.00   0.00   0.50   1.65   3.38   4.00   1.30   0.14   0.00   0.00   0.00   0.00   0.00      0      0      0       0      30
 1991 266    54    51   11.0      3   1.02    677     17      0    825    693      0    0.0  0.000      0      0  0.000  0.000  0.022  0.001   3.52   0.00   0.00      0      0    151.1   0.00   0.00   0.50   1.67   3.66   4.00   1.54   0.22   0.00   0.00   0.00   0.00   0.00      0      0      0       0      34
 1991 267    55    52   11.0      3   1.05    704     18      0    929    722      0    0.0  0.000      0      0  0.000  0.000  0.022  0.001   3.48   0.00   0.00      0      0    148.6   0.00   0.00   0.51   1.73   4.00   4.00   1.85   0.32   0.00   0.00   0.00   0.00   0.00      0      0      0       0      38
 1991 268    56    53   11.0      3   1.10    748     19      0   1026    767      0    0.0  0.000      0      0  0.000  0.000  0.022  0.001   3.45   0.00   0.00      0      0    147.4   0.00   0.00   0.52   1.78   4.00   4.00   2.13   0.44   0.00   0.00   0.00   0.00   0.00      0      0      0       0      42
 1991 269    57    54   12.0      3   1.18    806     22      0   1127    828      0    0.0  0.000      0      0  0.000  0.000  0.022  0.000   3.43   0.00   0.00      0      0    145.9   0.00   0.00   0.53   1.86   4.00   4.00   2.43   0.58   0.00   0.00   0.00   0.00   0.00      0      0      0       0      48
 1991 270    58    55   12.0      3   1.30    904     29      0   1184    934      0    0.0  0.000      0      0  0.000  0.000  0.022  0.000   3.39   0.00   0.00      0      0    143.7   0.00   0.00   0.54   1.90   4.00   4.00   2.61   0.68   0.00   0.00   0.00   0.00   0.00      0      0      0       0      53
 1991 271    59    56   12.0      3   1.34    940     32      0   1283    972      0    0.0  0.000      0      0  0.000  0.000  0.022  0.000   3.40   0.00   0.00      0      0    142.7   0.00   0.00   0.55   1.97   4.00   4.00   2.91   0.86   0.00   0.00   0.00   0.00   0.00      0      0      0       0      59
 1991 272    60    57   12.0      3   1.39    978     36      0   1395   1014      0    0.0  0.000      0      0  0.000  0.000  0.022  0.000   3.37   0.00   0.00      0      0    141.7   0.00   0.00   0.55   2.04   4.00   4.00   3.27   1.09   0.00   0.00   0.00   0.00   0.00      0      0      0       0      66
 1991 273    61    58   12.0      3   1.45   1034     42      0   1508   1076      0    0.0  0.000      0      0  0.000  0.000  0.022  0.000   3.34   0.00   0.00      0      0    140.4   0.00   0.00   0.56   2.12   4.00   4.00   3.63   1.34   0.00   0.00   0.00   0.00   0.00      0      0      0       0      73
 1991 274    62    59   13.0      3   1.50   1073     46      0   1613   1119      0    0.0  0.000      0      0  0.000  0.000  0.022  0.000   3.33   0.00   0.00      0      0    139.5   0.00   0.00   0.57   2.18   4.00   4.00   3.98   1.59   0.00   0.00   0.00   0.00   0.00      0      0      0       0      80
 1991 275    63    60   13.0      3   1.54   1109     51      0   1731   1160      0    0.0  0.000      0      0  0.000  0.000  0.022  0.000   3.32   0.00   0.00      0      0    138.5   0.00   0.00   0.57   2.25   4.00   4.00   4.00   1.90   0.00   0.00   0.00   0.00   0.00      0      0      0       0      88
 1991 276    64    61   13.0      3   1.51   1148     56      0   1865   1204      0    0.0  0.000      0      0  0.000  0.000  0.022  0.000   3.30   0.00   0.00      0      0    131.3   0.00   0.00   0.58   2.31   4.00   4.00   4.00   2.28   0.00   0.00   0.00   0.00   0.00      0      0      0       0      97
 1991 277    65    62   13.0      3   1.57   1200     64      0   1968   1264      0    0.0  0.000      0      0  0.000  0.000  0.022  0.000   3.27   0.00   0.00      0      0    130.5   0.00   0.00   0.59   2.34   4.00   4.00   4.00   2.61   0.00   0.00   0.00   0.00   0.00      0      0      0       0     106
 1991 278    66    63   13.0      3   1.60   1234     70      0   1974   1304      0    0.0  0.000      0      0  0.000  0.000  0.022  0.000   3.31   0.00   0.00      0      0    129.9   0.00   0.00   0.59   2.34   4.00   4.00   4.00   2.65   0.00   0.00   0.00   0.00   0.00      0      0      0       0     116
 1991 279    67    64   13.0      3   1.62   1250     73      0   2005   1323      0    0.0  0.000      0      0  0.000  0.000  0.022  0.000   3.31   0.00   0.00      0      0    129.4   0.00   0.00   0.60   2.33   4.00   4.00   4.00   2.77   0.00   0.00   0.00   0.00   0.00      0      0      0       0     126
 1991 280    68    65   13.0      3   1.57   1268     76      0   2045   1344      0    0.0  0.000      0      0  0.000  0.000  0.022  0.000   3.29   0.00   0.00      0      0    124.1   0.00   0.00   0.60   2.33   4.00   4.00   4.00   2.93   0.00   0.00   0.00   0.00   0.00      0      0      0       0     136
 1991 281    69    66   13.0      3   1.54   1297     82      0   2151   1379      0    0.0  0.000      0      0  0.000  0.000  0.022  0.032   3.27   0.00   0.00      0      0    118.6   0.00   0.00   0.60   2.33   4.00   4.00   4.00   3.33   0.00   0.00   0.00   0.00   0.00      0      0      0       0     146
 1991 282    70    67   13.0      3   1.59   1349     93      0   2262   1442      0    0.0  0.000      0      0  0.000  0.000  0.022  0.000   3.22   0.00   0.00      0      0    118.2   0.00   0.00   0.61   2.33   4.00   4.00   4.00   3.73   0.01   0.00   0.00   0.00   0.00      0      0      0       0     157
 1991 283    71    68   14.0      3   1.66   1411    107      0   2398   1518      0    0.0  0.000      0      0  0.000  0.000  0.022  0.000   3.20   0.00   0.00      0      0    117.9   0.00   0.00   0.62   2.33   4.00   4.00   4.00   4.00   0.03   0.00   0.00   0.00   0.00      0      0      0       0     168
 1991 284    72    69   14.0      3   1.75   1487    127      0   2528   1614      0    0.0  0.000      0      0  0.000  0.000  0.022  0.000   3.18   0.00   0.00      0      0    117.5   0.00   0.00   0.63   2.34   4.00   4.00   4.00   4.00   0.08   0.00   0.00   0.00   0.00      0      0      0       0     180
 1991 285    73    70   14.0      3   1.87   1598    162      0   2638   1759      0    0.0  0.000      0      0  0.000  0.000  0.022  0.000   3.14   0.00   0.00      0      0    117.0   0.00   0.00   0.64   2.35   4.00   4.00   4.00   4.00   0.15   0.00   0.00   0.00   0.00      0      0      0       0     193
 1991 286    74    71   15.0      3   2.05   1761    225      0   2691   1987      0    0.0  0.000      0      0  0.000  0.000  0.022  0.000   3.08   0.00   0.00      0      0    116.3   0.00   0.00   0.66   2.36   3.99   4.00   4.00   4.00   0.21   0.00   0.00   0.00   0.00      0      0      0       0     206
 1991 287    75    72   15.0      3   2.18   1884    283      0   2687   2167      0    0.0  0.000      0      0  0.000  0.000  0.022  0.000   3.03   0.00   0.00      0      0    115.7   0.00   0.00   0.68   2.35   3.98   3.98   4.00   4.00   0.23   0.00   0.00   0.00   0.00      0      0      0       0     219
 1991 288    76    73   15.0      3   2.26   1960    324      0   2680   2284      0    0.0  0.000      0      0  0.000  0.000  0.022  0.000   3.00   0.00   0.00      0      0    115.2   0.00   0.00   0.70   2.34   3.96   3.96   4.00   4.00   0.24   0.00   0.00   0.00   0.00      0      0      0       0     233
 1991 289    77    74   16.0      3   2.32   2022    359      0   2685   2380      0    0.0  0.000      0      0  0.000  0.000  0.022  0.000   2.95   0.00   0.00      0      0    114.7   0.00   0.00   0.71   2.19   3.71   3.71   3.77   3.81   0.26   0.00   0.00   0.00   0.00      0      0      0       0     246
 1991 290    78    75   16.0      3   2.34   2051    377      0   2756   2428      0    0.0  0.000      0      0  0.000  0.000  0.022  0.271   2.96   0.00   0.00      0      0    114.3   0.00   0.00   0.71   2.16   3.61   3.61   3.79   3.94   0.48   0.00   0.00   0.00   0.00      0      0      0       0     260
 1991 291    79    76   16.0      3   2.40   2111    414      0   2927   2525      0    0.0  0.000      0      0  0.000  0.000  0.022  0.120   2.90   0.00   0.00      0      0    113.8   0.00   0.00   0.72   2.27   3.67   3.68   4.00   4.00   1.03   0.00   0.00   0.00   0.00      0      0      0       0     273
[...]
 1992 330   118   115   21.0      3   1.97   2633   1249      0   3954   3882      0    0.0  0.000      0      0  0.621  0.748  0.039  0.000   2.14   0.00   0.00      0      0     74.8   0.00   0.00   0.93   3.86   4.00   3.98   3.89   4.00   1.02   0.19   0.00   0.00   0.00      0      0      0       0     530
 1992 331   119   116   21.0      3   1.96   2666   1331      0   3975   3997      0    0.0  0.000      0      0  0.395  0.597  0.039  0.000   2.09   0.00   0.00      0      0     73.6   0.00   0.00   0.94   3.84   4.00   3.96   3.87   4.00   1.06   0.31   0.00   0.00   0.00      0      0      0       0     549
 1992 332   120   117   21.0      3   1.92   2685   1382      0   4018   4067      0    0.0  0.000      0      0  0.621  0.748  0.039  0.000   2.07   0.00   0.00      0      0     71.5   0.00   0.00   0.95   3.82   4.00   3.96   3.85   4.00   1.12   0.53   0.00   0.00   0.00      0      0      0       0     569
 1992 333   121   118   22.0      3   1.93   2722   1485      0   4058   4207      0    0.0  0.000      0      0  0.266  0.511  0.041  0.000   2.01   0.00   0.00      0      0     71.0   0.00   0.00   0.96   3.80   4.00   3.94   3.83   4.00   1.20   0.84   0.00   0.00   0.00      0      0      0       0     589
 1992 334   122   119   22.0      3   1.95   2763   1606      0   4076   4369      0    0.0  0.000      0      0  0.296  0.531  0.040  0.000   1.95   0.00   0.00      0      0     70.4   0.00   0.00   0.98   3.78   4.00   3.94   3.81   3.98   1.25   1.04   0.00   0.00   0.00      0      0      0       0     610
 1992 335   123   120   23.0      3   1.94   2795   1707      0   4099   4502      0    0.0  0.000      0      0  0.410  0.607  0.042  0.000   1.91   0.00   0.00      0      0     69.3   0.00   0.00   0.99   3.94   4.00   3.92   3.79   3.99   1.29   1.23   0.00   0.00   0.00      0      0      0       0     630
 1992 336   124   121   23.0      3   1.98   2848   1869      0   4210   4717      0    0.0  0.000      0      0  0.000  0.000  0.045  0.000   1.83   0.00   0.00      0      0     69.5   0.00   0.00   1.00   4.00   4.00   4.00   3.77   3.99   1.35   1.41   0.00   0.00   0.00      0      0      0       0     650
 1992 337   125   122   23.0      3   2.01   2890   1999      0   4350   4889      0    0.0  0.000      0      0  0.000  0.000  0.048  0.000   1.78   0.00   0.00      0      0     69.6   0.00   0.00   1.01   4.00   4.00   4.00   3.75   3.98   1.40   1.53   0.00   0.00   0.00      0      0      0       0     672
 1992 338   126   123   23.0      3   2.05   2939   2152      0   4441   5091      0    0.0  0.000      0      0  0.000  0.000  0.054  0.000   1.72   0.00   0.00      0      0     69.7   0.00   0.00   1.02   4.00   4.00   4.00   3.73   3.96   1.43   1.59   0.00   0.00   0.00      0      0      0       0     693
 1992 339   127   124   23.0      3   2.10   3002   2343      0   4540   5344      0    0.0  0.000      0      0  0.000  0.099  0.057  0.000   1.65   0.00   0.00      0      0     69.8   0.00   0.00   1.03   4.00   4.00   4.00   3.72   3.96   1.46   1.63   0.00   0.00   0.00      0      0      0       0     715
 1992 340   128   125   23.0      3   2.12   3043   2470      0   4577   5514      0    0.0  0.000      0      0  0.120  0.414  0.062  0.000   1.61   0.00   0.00      0      0     69.7   0.00   0.00   1.04   3.98   4.00   4.00   3.70   3.94   1.48   1.64   0.00   0.00   0.00      0      0      0       0     738
 1992 341   129   126   23.0      3   2.09   3070   2554      0   4601   5624      0    0.0  0.000      0      0  0.539  0.693  0.069  0.000   1.59   0.00   0.00      0      0     68.1   0.00   0.00   1.06   4.00   4.00   4.00   3.68   3.93   1.50   1.64   0.00   0.00   0.00      0      0      0       0     761
 1992 342   130   127   23.0      4   2.07   3038   2192      0   4654   5820      0    0.0  0.000    589      0  0.000  0.000  0.072  0.000   1.72   0.00   0.10      0    589     68.2   0.00   0.00   1.07   4.00   4.00   4.00   3.67   3.93   1.53   1.66   0.00   0.00   0.00      0      0      0       0     784
 1992 343   131   128   23.0      4   2.05   3003   2260      0   4718   6021      0    0.0  0.000    758      0  0.000  0.000  0.071  0.000   1.72   0.00   0.13      0    758     68.3   0.00   0.00   1.09   4.00   4.00   4.00   3.65   3.91   1.59   1.71   0.00   0.00   0.00      0      0      0       0     807
 1992 344   132   129   23.0      4   2.04   2966   2333      0   4740   6240      0    0.0  0.000    941      0  0.000  0.000  0.052  0.000   1.71   0.00   0.15      0    941     68.7   0.00   0.00   1.09   4.00   4.00   4.00   3.64   3.91   1.63   1.73   0.02   0.00   0.00      0      0      0       0     831
 1992 345   133   130   23.0      4   2.03   2927   2413      0   4765   6479      0    0.0  0.000   1140      0  0.000  0.000  0.049  0.000   1.71   0.00   0.18      0   1140     69.2   0.00   0.00   1.10   4.00   4.00   4.00   3.62   3.89   1.69   1.77   0.07   0.00   0.00      0      0      0       0     855
 1992 346   134   131   23.0      4   2.02   2885   2484      0   4808   6688      0    0.0  0.000   1318      0  0.000  0.050  0.046  0.000   1.71   0.00   0.20      0   1318     69.8   0.00   0.00   1.11   4.00   4.00   4.00   3.62   3.87   1.76   1.82   0.16   0.00   0.00      0      0      0       0     878
 1992 347   135   132   23.0      4   1.98   2842   2519      0   4898   6766      0    0.0  0.000   1405      0  0.316  0.544  0.044  0.000   1.72   0.00   0.21      0   1405     69.8   0.00   0.00   1.12   3.98   4.00   4.00   3.60   3.91   1.90   1.92   0.35   0.00   0.00      0      0      0       0     902
 1992 348   136   133   23.0      4   1.95   2796   2556      0   4975   6851      0    0.0  0.000   1498      0  0.373  0.582  0.041  0.000   1.73   0.00   0.22      0   1498     69.6   0.00   0.00   1.13   3.96   4.00   4.00   3.61   3.89   2.02   2.00   0.54   0.00   0.00      0      0      0       0     927
 1992 349   137   134   23.0      4   1.91   2749   2594      0   5045   6935      0    0.0  0.000   1593      0  0.347  0.565  0.038  0.000   1.74   0.00   0.23      0   1593     69.6   0.00   0.00   1.14   3.94   4.00   4.00   3.59   3.92   2.13   2.08   0.72   0.00   0.00      0      0      0       0     952
 1992 350   138   135   23.0      4   1.87   2699   2621      0   5126   6980      0    0.0  0.000   1660      0  0.401  0.601  0.035  0.000   1.75   0.00   0.24      0   1660     69.4   0.00   0.00   1.15   3.92   4.00   4.00   3.59   3.90   2.26   2.17   0.93   0.00   0.00      0      0      0       0     977
 1992 351   139   136   23.0      4   1.84   2647   2656      0   5174   7050      0    0.0  0.000   1747      0  0.353  0.569  0.033  0.000   1.76   0.00   0.25      0   1747     69.6   0.00   0.00   1.16   3.90   4.00   4.00   3.57   3.90   2.35   2.23   1.06   0.00   0.00      0      0      0       0    1003
 1992 352   140   137   23.0      4   1.82   2593   2700      0   5190   7150      0    0.0  0.000   1857      0  0.269  0.513  0.029  0.000   1.77   0.00   0.26      0   1857     70.1   0.00   0.00   1.17   3.88   4.00   4.00   3.56   3.88   2.39   2.26   1.13   0.00   0.00      0      0      0       0    1029
 1992 353   141   138   23.0      4   1.76   2536   2724      0   5224   7180      0    0.0  0.000   1919      0  0.582  0.722  0.027  0.000   1.78   0.00   0.27      0   1919     69.5   0.00   0.00   1.18   3.86   4.00   4.00   3.54   3.89   2.46   2.30   1.23   0.00   0.00      0      0      0       0    1055
 1992 354   142   139   23.0      4   1.73   2478   2763      0   5225   7256      0    0.0  0.000   2016      0  0.358  0.573  0.024  0.000   1.79   0.00   0.28      0   2016     69.9   0.00   0.00   1.19   3.84   4.00   4.00   3.53   3.87   2.48   2.32   1.27   0.00   0.00      0      0      0       0    1081
 1992 355   143   140   23.0      5   1.67   2478   2763    128   5207   7384   2740    4.7  0.017   2143      7  0.689  0.793  0.000  0.000   1.75   5.95   0.29      0   2143     67.5   0.00   0.00   1.20   3.82   4.00   4.00   3.51   3.85   2.48   2.32   1.27   0.00   0.00      0      0      0       0    1107
 1992 356   144   141   23.0      5   1.62   2478   2763    262   5185   7519   2740    9.6  0.035   2278      7  0.627  0.752  0.004  0.000   1.70  11.51   0.30      0   2278     65.4   0.00   0.00   1.21   3.80   4.00   4.00   3.49   3.83   2.48   2.31   1.27   0.00   0.00      0      0      0       0    1133
 1992 357   145   142   23.0      5   1.60   2478   2721    444   5160   7659   2740   16.2  0.058   2460      7  0.206  0.471  0.008  0.000   1.66  18.06   0.32      0   2460     64.7   0.00   0.00   1.21   3.80   4.00   4.00   3.49   3.83   2.48   2.31   1.27   0.00   0.00      0      0      0       0    1159
 1992 358   146   143   23.0      5   1.59   2478   2679    626   5134   7798   2740   22.8  0.080   2642      7  0.212  0.475  0.016  0.000   1.61  23.69   0.34      0   2642     64.0   0.00   0.00   1.21   3.80   4.00   4.00   3.49   3.83   2.48   2.31   1.27   0.00   0.00      0      0      0       0    1185
 1992 359   147   144   23.0      5   1.53   2478   2668    747   5108   7908   2740   27.3  0.094   2763      7  0.747  0.832  0.022  0.000   1.58  27.04   0.35      0   2763     61.6   0.00   0.00   1.21   3.80   4.00   4.00   3.49   3.83   2.48   2.31   1.27   0.00   0.00      0      0      0       0    1210
 1992 360   148   145   23.0      5   1.52   2478   2748    932   5122   8173   2740   34.0  0.114   2948      7  0.000  0.000  0.021  0.000   1.50  31.61   0.36      0   2948     61.5   0.00   0.00   1.22   3.95   4.00   4.00   3.47   3.81   2.52   2.34   1.28   0.00   0.00      0      0      0       0    1236
 1992 361   149   146   23.0      5   1.52   2478   2763   1100   5171   8357   2740   40.2  0.132   3116      7  0.000  0.000  0.031  0.000   1.45  35.31   0.37      0   3116     61.2   0.00   0.00   1.22   4.00   4.00   4.00   3.46   3.80   2.61   2.40   1.30   0.00   0.00      0      0      0       0    1261
 1992 362   150   147   23.0      5   1.51   2478   2763   1269   5216   8526   2740   46.3  0.149   3285      7  0.000  0.000  0.048  0.000   1.40  38.63   0.39      0   3285     60.9   0.00   0.00   1.23   4.00   4.00   4.00   3.45   3.78   2.69   2.45   1.33   0.00   0.00      0      0      0       0    1287
 1992 363   151   148   23.0      5   1.50   2478   2763   1475   5247   8731   2740   53.8  0.169   3490      7  0.000  0.272  0.058  0.000   1.35  42.25   0.40      0   3490     60.4   0.00   0.00   1.24   3.98   4.00   4.00   3.43   3.78   2.76   2.50   1.35   0.00   0.00      0      0      0       0    1313
 1992 364   152   149   23.0      5   1.48   2478   2686   1680   5221   8860   2740   61.3  0.190   3696      7  0.000  0.119  0.070  0.000   1.31  45.46   0.42      0   3696     59.9   0.00   0.00   1.24   3.98   4.00   4.00   3.43   3.78   2.76   2.50   1.35   0.00   0.00      0      0      0       0    1340
 1992 365   153   150   23.0      5   1.47   2478   2625   1868   5194   8986   2740   68.2  0.208   3884      7  0.000  0.208  0.084  0.000   1.28  48.10   0.43      0   3884     59.3   0.00   0.00   1.24   3.98   4.00   4.00   3.43   3.78   2.76   2.50   1.35   0.00   0.00      0      0      0       0    1366
 1992 366   154   151   23.0      5   1.45   2478   2591   2027   5168   9111   2740   74.0  0.222   4043      7  0.000  0.000  0.088  0.000   1.25  50.13   0.44      0   4043     58.6   0.00   0.00   1.24   3.98   4.00   4.00   3.43   3.78   2.76   2.50   1.35   0.00   0.00      0      0      0       0    1392
 1993 001   155   152   23.0      5   1.44   2478   2545   2197   5143   9235   2740   80.2  0.238   4213      7  0.000  0.000  0.089  0.000   1.24  52.15   0.46      0   4213     58.0   0.00   0.00   1.24   3.98   4.00   4.00   3.43   3.78   2.76   2.50   1.35   0.00   0.00      0      0      0       0    1417
 1993 002   156   153   23.0      5   1.42   2478   2495   2371   5117   9359   2740   86.5  0.253   4387      7  0.000  0.000  0.088  0.081   1.23  54.05   0.47      0   4387     57.3   0.00   0.00   1.24   3.98   4.00   4.00   3.43   3.78   2.76   2.50   1.35   0.00   0.00      0      0      0       0    1443
 1993 003   157   154   23.0      5   1.40   2478   2441   2548   5091   9482   2740   93.0  0.269   4564      7  0.000  0.000  0.087  0.334   1.21  55.83   0.48      0   4564     56.7   0.00   0.00   1.24   3.98   4.00   4.00   3.43   3.78   2.76   2.50   1.35   0.00   0.00      0      0      0       0    1469
 1993 004   158   155   23.0      5   1.39   2478   2436   2753   5066   9683   2740  100.5  0.284   4769      7  0.000  0.000  0.085  0.309   1.18  57.73   0.49      0   4769     56.1   0.00   0.00   1.24   3.98   4.00   4.00   3.43   3.78   2.76   2.50   1.35   0.00   0.00      0      0      0       0    1494
 1993 005   159   156   23.0      5   1.37   2478   2492   2959   5068   9944   2740  108.0  0.298   4975      7  0.000  0.000  0.085  0.157   1.13  59.48   0.50      0   4975     55.5   0.00   0.00   1.25   4.00   4.00   4.00   3.44   3.91   2.77   2.50   1.35   0.00   0.00      0      0      0       0    1520
 1993 006   160   157   23.0      5   1.36   2478   2588   3164   5091  10246   2740  115.5  0.309   5180      7  0.000  0.000  0.088  0.033   1.08  61.09   0.51      0   5180     54.9   0.00   0.00   1.25   4.00   4.00   4.00   3.48   4.00   2.80   2.52   1.36   0.00   0.00      0      0      0       0    1545
 1993 007   161   158   23.0      5   1.34   2478   2545   3370   5065  10409   2740  123.0  0.324   5386      7  0.000  0.000  0.100  0.003   1.06  62.57   0.52      0   5386     54.2   0.00   0.00   1.25   4.00   4.00   4.00   3.48   4.00   2.80   2.52   1.36   0.00   0.00      0      0      0       0    1570
 1993 008   162   159   23.0      5   1.32   2478   2571   3575   5053  10640   2740  130.5  0.336   5591      7  0.000  0.000  0.117  0.149   1.02  63.95   0.53      0   5591     53.4   0.00   0.00   1.25   4.00   4.00   4.00   3.48   4.00   2.80   2.52   1.36   0.00   0.00      0      0      0       0    1596
 1993 009   163   160   23.0      5   1.30   2478   2669   3763   5077  10926   2740  137.4  0.344   5779      7  0.000  0.000  0.124  0.078   0.97  65.12   0.53      0   5779     52.6   0.00   0.00   1.25   4.00   4.00   4.00   3.53   4.00   2.83   2.54   1.37   0.00   0.00      0      0      0       0    1621
 1993 010   164   161   23.0      5   1.28   2478   2756   3969   5095  11218   2740  144.9  0.354   5985      7  0.000  0.000  0.134  0.020   0.92  66.32   0.53      0   5985     51.7   0.00   0.00   1.25   4.00   4.00   4.00   3.58   4.00   2.87   2.56   1.38   0.00   0.00      0      0      0       0    1646
 1993 011   165   162   23.0      5   1.26   2478   2763   4174   5111  11431   2740  152.4  0.365   6190      7  0.000  0.000  0.152  0.000   0.88  67.43   0.54      0   6190     50.7   0.00   0.00   1.25   4.00   4.00   4.00   3.62   4.00   2.90   2.58   1.39   0.00   0.00      0      0      0       0    1672
 1993 012   166   163   23.0      5   1.23   2478   2763   4380   5123  11636   2740  159.9  0.376   6396      7  0.000  0.000  0.169  0.000   0.85  68.48   0.55      0   6396     49.6   0.00   0.00   1.25   4.00   4.00   4.00   3.65   4.00   2.92   2.60   1.40   0.00   0.00      0      0      0       0    1697
 1993 013   167   164   23.0      5   1.20   2478   2763   4585   5110  11842   2740  167.4  0.387   6601      7  0.000  0.000  0.179  0.000   0.82  69.46   0.56      0   6601     48.5   0.00   0.00   1.25   4.00   4.00   4.00   3.65   4.00   2.92   2.59   1.39   0.00   0.00      0      0      0       0    1723
 1993 014   168   165   23.0      5   1.17   2478   2749   4791   5085  12033   2740  174.9  0.398   6807      7  0.000  0.000  0.189  0.000   0.80  70.38   0.57      0   6807     47.4   0.00   0.00   1.25   4.00   4.00   4.00   3.65   4.00   2.92   2.59   1.39   0.00   0.00      0      0      0       0    1749
 1993 015   169   166   23.0      5   1.14   2478   2763   4996   5080  12253   2740  182.4  0.408   7012      7  0.000  0.000  0.197  0.000   0.77  71.25   0.57      0   7012     46.2   0.00   0.00   1.25   4.00   4.00   4.00   3.66   4.00   2.93   2.60   1.39   0.00   0.00      0      0      0       0    1774
 1993 016   170   167   23.0      5   1.12   2478   2738   5202   5055  12433   2740  189.9  0.418   7218      7  0.000  0.000  0.218  0.000   0.74  72.07   0.58      0   7218     45.0   0.00   0.00   1.25   4.00   4.00   4.00   3.66   4.00   2.93   2.60   1.39   0.00   0.00      0      0      0       0    1799
 1993 017   171   168   23.0      5   1.08   2478   2763   5365   5049  12621   2740  195.8  0.425   7380      7  0.000  0.000  0.265  0.055   0.72  72.69   0.58      0   7380     43.8   0.00   0.00   1.25   4.00   4.00   4.00   3.67   4.00   2.93   2.60   1.40   0.00   0.00      0      0      0       0    1825
 1993 018   172   169   23.0      5   1.05   2478   2763   5499   5048  12755   2740  200.7  0.431   7515      7  0.000  0.000  0.276  0.007   0.71  73.17   0.59      0   7515     42.5   0.00   0.00   1.25   4.00   4.00   4.00   3.69   4.00   2.94   2.60   1.40   0.00   0.00      0      0      0       0    1850
 1993 019   173   170   23.0      5   1.02   2478   2763   5680   5037  12937   2740  207.3  0.439   7696      7  0.000  0.000  0.285  0.000   0.70  73.81   0.59      0   7696     41.3   0.00   0.00   1.25   4.00   4.00   4.00   3.69   4.00   2.94   2.60   1.40   0.00   0.00      0      0      0       0    1875
 1993 020   174   171   23.0      5   0.99   2478   2763   5886   5024  13142   2740  214.8  0.448   7902      7  0.000  0.000  0.303  0.000   0.68  74.49   0.60      0   7902     40.1   0.00   0.00   1.25   4.00   4.00   4.00   3.69   3.99   2.94   2.60   1.39   0.00   0.00      0      0      0       0    1900
 1993 021   175   172   23.0      5   0.96   2478   2763   6091   5009  13348   2740  222.3  0.456   8107      7  0.000  0.000  0.331  0.000   0.66  75.13   0.61      0   8107     38.9   0.00   0.00   1.25   4.00   4.00   4.00   3.68   3.99   2.94   2.59   1.39   0.00   0.00      0      0      0       0    1925
 1993 022   176   173   23.0      5   0.93   2478   2763   6297   4990  13553   2740  229.8  0.465   8313      7  0.000  0.000  0.356  0.000   0.64  75.75   0.61      0   8313     37.7   0.00   0.00   1.25   4.00   4.00   4.00   3.67   3.97   2.93   2.58   1.38   0.00   0.00      0      0      0       0    1950
 1993 023   177   174   23.0      5   0.90   2478   2740   6502   4965  13736   2740  237.3  0.473   8518      7  0.000  0.000  0.382  0.000   0.62  76.33   0.62      0   8518     36.4   0.00   0.00   1.25   4.00   4.00   4.00   3.67   3.97   2.93   2.58   1.38   0.00   0.00      0      0      0       0    1975
 1993 024   178   175   23.0      5   0.90   2478   2740   6502   4965  13736   2740  237.3  0.473   8518      7  0.000  0.000  0.382  0.000   0.62  76.33   0.62      0   8518     36.4   0.00   0.00   1.25   4.00   4.00   4.00   3.67   3.97   2.93   2.58   1.38   0.00   0.00      0      0      0       0    1975
 1993 025   179   176   23.0      5   0.90   2478   2740   6502   4965  13736   2740  237.3  0.473   8518      7  0.000  0.000  0.382  0.000   0.62  76.33   0.62      0   8518     36.4   0.00   0.00   1.25   4.00   4.00   4.00   3.67   3.97   2.93   2.58   1.38   0.00   0.00      0      0      0       0    1975
 1993 026   180   177   23.0      5   0.90   2478   2740   6502   4965  13736   2740  237.3  0.473   8518      7  0.000  0.000  0.382  0.000   0.62  76.33   0.62      0   8518     36.4   0.00   0.00   1.25   4.00   4.00   4.00   3.67   3.97   2.93   2.58   1.38   0.00   0.00      0      0      0       0    1975
