*SOIL WATER DAILY OUTPUT FILE

*DSSAT Cropping System Model Ver. 4.0.2.000               Aug 03, 2016; 15:29:28

*RUN   1        : UYMZ                    
 MODEL          : MZCER040 - Maize           
 EXPERIMENT     : UYMZ0128 MZ    late to create DSS                             
 TREATMENT  1   : UYMZ                    

@YEAR DOY   DAS  SWXD   ROFC   DRNC   PREC  IR#C  IRRC  DTWT   SW1D   SW2D   SW3D   SW4D   SW5D   SW6D   SW7D   SW8D   SW9D   SW10
 1990 212     0   116      0      0      0     0     0   125  0.347  0.394  0.394  0.335  0.375  0.419  0.408  0.395  0.000  0.000
 1990 213     1   114      0      0      0     0     0   125  0.322  0.393  0.394  0.335  0.376  0.418  0.408  0.395  0.000  0.000
 1990 214     2   113      0      0      0     0     0   125  0.303  0.391  0.394  0.336  0.376  0.418  0.408  0.395  0.000  0.000
 1990 215     3   112      0      0      0     0     0   125  0.288  0.390  0.394  0.336  0.377  0.417  0.408  0.395  0.000  0.000
 1990 216     4   111      0      0      0     0     0   125  0.274  0.389  0.394  0.337  0.377  0.417  0.408  0.395  0.000  0.000
 1990 217     5   111      0      0      0     0     0   125  0.262  0.387  0.394  0.337  0.378  0.416  0.408  0.395  0.000  0.000
 1990 218     6   110      0      0      0     0     0   125  0.251  0.386  0.394  0.338  0.378  0.416  0.408  0.395  0.000  0.000
 1990 219     7   109      0      0      0     0     0   125  0.241  0.385  0.394  0.338  0.378  0.415  0.408  0.395  0.000  0.000
 1990 220     8   109      0      0      0     0     0   125  0.232  0.384  0.394  0.339  0.378  0.415  0.408  0.395  0.000  0.000
 1990 221     9   110      0      0      2     0     0   125  0.262  0.383  0.394  0.339  0.379  0.415  0.408  0.395  0.000  0.000
 1990 222    10   109      0      0      2     0     0   125  0.251  0.382  0.393  0.340  0.379  0.414  0.408  0.395  0.000  0.000
 1990 223    11   109      0      0      2     0     0   125  0.241  0.381  0.393  0.340  0.379  0.414  0.407  0.395  0.000  0.000
 1990 224    12   108      0      0      2     0     0   125  0.232  0.381  0.393  0.340  0.380  0.414  0.407  0.395  0.000  0.000
 1990 225    13   108      0      0      2     0     0   125  0.223  0.380  0.393  0.341  0.380  0.413  0.407  0.395  0.000  0.000
 1990 226    14   108      0      0      2     0     0   125  0.221  0.379  0.393  0.341  0.380  0.413  0.407  0.395  0.000  0.000
 1990 227    15   135      0      0     30     0     0   125  0.568  0.485  0.393  0.342  0.380  0.413  0.407  0.395  0.000  0.000
 1990 228    16   132      0      0     30     0     0   125  0.465  0.500  0.396  0.342  0.380  0.412  0.407  0.395  0.000  0.000
 1990 229    17   129      0      0     30     0     0   125  0.412  0.489  0.399  0.343  0.381  0.412  0.407  0.395  0.000  0.000
 1990 230    18   126      0      0     30     0     0   125  0.372  0.476  0.401  0.343  0.381  0.412  0.407  0.395  0.000  0.000
 1990 231    19   125      0      0     30     0     0   125  0.360  0.465  0.403  0.344  0.381  0.411  0.407  0.395  0.000  0.000
 1990 232    20   123      0      0     30     0     0   125  0.353  0.456  0.405  0.344  0.381  0.411  0.407  0.395  0.000  0.000
 1990 233    21   123      0      0     30     0     0   125  0.346  0.448  0.406  0.345  0.381  0.411  0.407  0.395  0.000  0.000
 1990 234    22   122      0      0     30     0     0   125  0.340  0.442  0.407  0.345  0.381  0.411  0.407  0.395  0.000  0.000
 1990 235    23   121      0      0     30     0     0   125  0.334  0.436  0.407  0.346  0.381  0.410  0.406  0.395  0.000  0.000
 1990 236    24   120      0      0     30     0     0   125  0.329  0.431  0.408  0.346  0.382  0.410  0.406  0.395  0.000  0.000
 1990 237    25   120      0      0     30     0     0   125  0.324  0.427  0.408  0.347  0.382  0.410  0.406  0.395  0.000  0.000
 1990 238    26   119      0      0     30     0     0   125  0.319  0.423  0.409  0.347  0.382  0.410  0.406  0.395  0.000  0.000
 1990 239    27   160      0      0     72     0     0   125  0.546  0.564  0.509  0.348  0.382  0.409  0.406  0.395  0.000  0.000
 1990 240    28   158      0      0     74     0     0   125  0.502  0.554  0.519  0.351  0.382  0.409  0.406  0.395  0.000  0.000
 1990 241    29   155      0      0     74     0     0   125  0.472  0.529  0.522  0.355  0.382  0.409  0.406  0.394  0.000  0.000
 1990 242    30   152      0      0     74     0     0   125  0.440  0.515  0.518  0.358  0.382  0.409  0.406  0.394  0.000  0.000
 1990 243    31   151      0      0     74     0     0   125  0.449  0.503  0.513  0.362  0.383  0.408  0.406  0.394  0.000  0.000
 1990 244    32   152      0      0     77     0     0   125  0.491  0.497  0.509  0.364  0.383  0.408  0.406  0.394  0.000  0.000
 1990 245    33   151      0      0     77     0     0   125  0.464  0.497  0.505  0.367  0.383  0.408  0.406  0.394  0.000  0.000
 1990 246    34   150      0      0     77     0     0   125  0.454  0.493  0.502  0.369  0.383  0.408  0.405  0.394  0.000  0.000
 1990 247    35   149      0      0     77     0     0   125  0.448  0.489  0.499  0.371  0.384  0.408  0.405  0.394  0.000  0.000
 1990 248    36   148      0      0     77     0     0   125  0.443  0.485  0.496  0.373  0.384  0.407  0.405  0.394  0.000  0.000
 1990 249    37   148      0      0     78     0     0   125  0.459  0.481  0.493  0.374  0.384  0.407  0.405  0.394  0.000  0.000
 1990 250    38   155      0      0     86     0     0   125  0.556  0.505  0.491  0.376  0.385  0.407  0.405  0.394  0.000  0.000
 1990 251    39   172      0      0    104     0     0   125  0.520  0.576  0.557  0.387  0.385  0.407  0.405  0.394  0.000  0.000
 1990 252    40   167      0      0    104     0     0   125  0.450  0.553  0.547  0.405  0.385  0.407  0.405  0.394  0.000  0.000
 1990 253    41   165      0      0    104     0     0   125  0.454  0.526  0.540  0.413  0.386  0.406  0.405  0.394  0.000  0.000
 1990 254    42   187      0      0    128     0     0   125  0.541  0.564  0.562  0.464  0.404  0.406  0.405  0.394  0.000  0.000
 1990 255    43   183      0      0    128     0     0   125  0.477  0.554  0.554  0.452  0.430  0.406  0.405  0.394  0.000  0.000
 1990 256    44   181      0      0    128     0     0   125  0.475  0.530  0.548  0.447  0.431  0.413  0.404  0.394  0.000  0.000
 1990 257    45   179      0      0    128     0     0   125  0.461  0.520  0.541  0.443  0.431  0.416  0.405  0.394  0.000  0.000
 1990 258    46   177      0      0    128     0     0   125  0.462  0.514  0.536  0.441  0.431  0.417  0.405  0.394  0.000  0.000
 1990 259    47   176      0      0    128     0     0   125  0.463  0.509  0.532  0.440  0.431  0.417  0.405  0.394  0.000  0.000
 1990 260    48   175      0      0    128     0     0   125  0.463  0.505  0.529  0.439  0.431  0.417  0.405  0.394  0.000  0.000
 1990 261    49   205      0      0    160     0     0   125  0.545  0.565  0.565  0.469  0.460  0.429  0.413  0.397  0.000  0.000
 1990 262    50   195      0      7    160     0     0   125  0.487  0.555  0.556  0.456  0.449  0.425  0.411  0.397  0.000  0.000
 1990 263    51   189      0     12    160     0     0   125  0.500  0.532  0.549  0.449  0.442  0.422  0.411  0.397  0.000  0.000
 1990 264    52   186      0     14    160     0     0   125  0.493  0.526  0.542  0.445  0.437  0.421  0.411  0.397  0.000  0.000
 1990 265    53   182      0     15    160     0     0   125  0.465  0.521  0.538  0.442  0.435  0.421  0.411  0.397  0.000  0.000
 1990 266    54   180      0     15    160     0     0   125  0.464  0.513  0.533  0.440  0.433  0.421  0.411  0.397  0.000  0.000
 1990 267    55   179      0     15    160     0     0   125  0.463  0.507  0.529  0.439  0.433  0.421  0.411  0.397  0.000  0.000
 1990 268    56   177      0     15    160     0     0   125  0.462  0.502  0.525  0.437  0.433  0.421  0.411  0.397  0.000  0.000
 1990 269    57   176      0     15    160     0     0   125  0.460  0.498  0.521  0.436  0.433  0.421  0.411  0.397  0.000  0.000
 1990 270    58   175      0     15    160     0     0   125  0.458  0.495  0.518  0.435  0.433  0.421  0.411  0.397  0.000  0.000
 1990 271    59   174      0     15    160     0     0   125  0.457  0.492  0.516  0.434  0.433  0.421  0.411  0.397  0.000  0.000
 1990 272    60   173      0     15    160     0     0   125  0.455  0.489  0.513  0.433  0.433  0.421  0.411  0.397  0.000  0.000
 1990 273    61   172      0     15    160     0     0   125  0.453  0.486  0.509  0.432  0.432  0.421  0.411  0.397  0.000  0.000
 1990 274    62   171      0     15    160     0     0   125  0.450  0.482  0.505  0.430  0.432  0.421  0.411  0.397  0.000  0.000
 1990 275    63   169      0     15    160     0     0   125  0.446  0.477  0.501  0.429  0.432  0.421  0.411  0.397  0.000  0.000
 1990 276    64   167      0     15    160     0     0   125  0.442  0.473  0.496  0.428  0.431  0.421  0.411  0.397  0.000  0.000
 1990 277    65   166      0     15    160     0     0   125  0.437  0.469  0.492  0.427  0.431  0.421  0.411  0.397  0.000  0.000
 1990 278    66   165      0     15    160     0     0   125  0.434  0.466  0.490  0.425  0.430  0.421  0.411  0.397  0.000  0.000
 1990 279    67   187      0     15    184     0     0   125  0.543  0.565  0.535  0.424  0.430  0.421  0.411  0.397  0.000  0.000
 1990 280    68   190      0     15    189     0     0   125  0.544  0.564  0.550  0.432  0.429  0.421  0.411  0.397  0.000  0.000
 1990 281    69   221      1     20    228     0     0   125  0.534  0.565  0.564  0.470  0.460  0.447  0.439  0.432  0.000  0.000
 1990 282    70   202      1     34    228     0     0   125  0.472  0.548  0.550  0.455  0.449  0.436  0.427  0.417  0.000  0.000
 1990 283    71   190      1     42    228     0     0   125  0.471  0.522  0.538  0.447  0.442  0.429  0.419  0.408  0.000  0.000
 1990 284    72   184      1     46    228     0     0   125  0.473  0.513  0.531  0.442  0.437  0.425  0.415  0.403  0.000  0.000
 1990 285    73   215      1     48    266     0     0   125  0.523  0.558  0.557  0.467  0.460  0.447  0.439  0.413  0.000  0.000
 1990 286    74   198      1     60    266     0     0   125  0.479  0.537  0.541  0.454  0.448  0.436  0.426  0.406  0.000  0.000
 1990 287    75   187      1     66    266     0     0   125  0.479  0.517  0.529  0.445  0.441  0.429  0.419  0.401  0.000  0.000
 1990 288    76   179      1     69    266     0     0   125  0.451  0.505  0.519  0.437  0.436  0.425  0.415  0.399  0.000  0.000
 1990 289    77   173      1     71    266     0     0   125  0.442  0.492  0.510  0.432  0.433  0.423  0.412  0.397  0.000  0.000
 1990 290    78   170      1     72    266     0     0   125  0.435  0.484  0.505  0.428  0.432  0.421  0.410  0.397  0.000  0.000
 1990 291    79   166      1     72    266     0     0   125  0.429  0.473  0.496  0.422  0.430  0.421  0.410  0.397  0.000  0.000
 1990 292    80   170      1     72    274     0     0   125  0.551  0.476  0.490  0.417  0.428  0.421  0.410  0.397  0.000  0.000
 1990 293    81   172      1     72    279     0     0   125  0.508  0.528  0.486  0.412  0.426  0.421  0.410  0.397  0.000  0.000
 1990 294    82   167      1     72    279     0     0   125  0.485  0.509  0.483  0.406  0.422  0.421  0.410  0.397  0.000  0.000
 1990 295    83   161      1     72    279     0     0   125  0.460  0.493  0.477  0.398  0.418  0.421  0.410  0.397  0.000  0.000
 1990 296    84   156      1     72    279     0     0   125  0.440  0.480  0.471  0.393  0.414  0.421  0.410  0.397  0.000  0.000
 1990 297    85   152      1     72    279     0     0   125  0.423  0.468  0.466  0.387  0.409  0.421  0.410  0.397  0.000  0.000
 1990 298    86   149      1     72    279     0     0   125  0.416  0.459  0.461  0.384  0.406  0.420  0.410  0.397  0.000  0.000
 1990 299    87   143      1     72    279     0     0   125  0.396  0.447  0.452  0.379  0.398  0.420  0.410  0.397  0.000  0.000
 1990 300    88   139      1     72    279     0     0   125  0.382  0.437  0.445  0.375  0.391  0.419  0.410  0.397  0.000  0.000
 1990 301    89   137      1     72    279     0     0   125  0.379  0.431  0.441  0.374  0.389  0.419  0.410  0.397  0.000  0.000
 1990 302    90   139      1     72    285     0     0   125  0.483  0.425  0.436  0.372  0.385  0.418  0.410  0.397  0.000  0.000
 1990 303    91   154      1     72    306     0     0   125  0.532  0.566  0.441  0.367  0.377  0.416  0.410  0.397  0.000  0.000
 1990 304    92   149      1     72    306     0     0   125  0.520  0.530  0.442  0.364  0.373  0.414  0.410  0.397  0.000  0.000
 1990 305    93   146      1     72    308     0     0   125  0.542  0.512  0.437  0.361  0.370  0.412  0.410  0.397  0.000  0.000
 1990 306    94   141      1     72    308     0     0   125  0.507  0.506  0.433  0.360  0.368  0.409  0.410  0.397  0.000  0.000
 1990 307    95   138      1     72    308     0     0   125  0.497  0.495  0.432  0.359  0.367  0.406  0.410  0.397  0.000  0.000
 1990 308    96   167      1     72    341     0     0   125  0.554  0.555  0.561  0.372  0.365  0.403  0.410  0.397  0.000  0.000
 1990 309    97   162      1     72    341     0     0   125  0.534  0.540  0.540  0.385  0.364  0.398  0.409  0.397  0.000  0.000
 1990 310    98   158      1     72    341     0     0   125  0.530  0.533  0.531  0.385  0.363  0.395  0.409  0.397  0.000  0.000
 1990 311    99   155      1     72    343     0     0   125  0.548  0.530  0.521  0.382  0.363  0.390  0.409  0.397  0.000  0.000
 1990 312   100   154      1     72    343     0     0   125  0.531  0.531  0.518  0.383  0.363  0.388  0.408  0.397  0.000  0.000
 1990 313   101   150      1     72    343     0     0   125  0.522  0.523  0.512  0.381  0.362  0.385  0.408  0.397  0.000  0.000
 1990 314   102   146      1     72    343     0     0   125  0.521  0.513  0.504  0.379  0.361  0.382  0.408  0.397  0.000  0.000
 1990 315   103   141      1     72    343     0     0   125  0.503  0.504  0.494  0.375  0.360  0.378  0.407  0.397  0.000  0.000
 1990 316   104   139      1     72    343     0     0   125  0.497  0.498  0.489  0.374  0.360  0.376  0.407  0.397  0.000  0.000
 1990 317   105   132      1     72    343     0     0   125  0.480  0.483  0.476  0.369  0.358  0.372  0.406  0.397  0.000  0.000
 1990 318   106   130      1     72    345     0     0   125  0.511  0.474  0.467  0.367  0.357  0.370  0.406  0.397  0.000  0.000
 1990 319   107   128      1     72    345     0     0   125  0.493  0.476  0.463  0.366  0.356  0.369  0.405  0.397  0.000  0.000
 1990 320   108   178      1     72    398     0     0   125  0.553  0.562  0.560  0.468  0.414  0.367  0.405  0.397  0.000  0.000
 1990 321   109   172      1     72    398     0     0   125  0.535  0.545  0.545  0.447  0.423  0.370  0.404  0.397  0.000  0.000
 1990 322   110   165      1     72    398     0     0   125  0.527  0.533  0.536  0.435  0.419  0.369  0.401  0.397  0.000  0.000
 1990 323   111   159      1     72    398     0     0   125  0.516  0.523  0.527  0.426  0.410  0.367  0.397  0.397  0.000  0.000
 1990 324   112   156      1     72    398     0     0   125  0.515  0.519  0.523  0.422  0.407  0.367  0.395  0.396  0.000  0.000
 1990 325   113   150      1     72    400     0     0   125  0.531  0.510  0.513  0.413  0.398  0.365  0.389  0.396  0.000  0.000
 1990 326   114   144      1     72    400     0     0   125  0.503  0.509  0.506  0.406  0.391  0.364  0.384  0.396  0.000  0.000
 1990 327   115   137      1     72    400     0     0   125  0.491  0.499  0.498  0.398  0.384  0.362  0.377  0.395  0.000  0.000
 1990 328   116   132      1     72    400     0     0   125  0.480  0.490  0.490  0.391  0.380  0.361  0.373  0.395  0.000  0.000
 1990 329   117   127      1     72    400     0     0   125  0.471  0.482  0.482  0.385  0.377  0.360  0.370  0.394  0.000  0.000
 1990 330   118   143      1     72    421     0     0   125  0.557  0.559  0.523  0.380  0.374  0.359  0.367  0.393  0.000  0.000
 1990 331   119   137      1     72    421     0     0   125  0.534  0.537  0.519  0.377  0.370  0.357  0.363  0.393  0.000  0.000
 1990 332   120   130      1     72    421     0     0   125  0.518  0.521  0.508  0.374  0.367  0.355  0.360  0.392  0.000  0.000
 1990 333   121   124      1     72    421     0     0   125  0.499  0.505  0.495  0.371  0.363  0.354  0.357  0.391  0.000  0.000
 1990 334   122   121      1     72    421     0     0   125  0.491  0.496  0.488  0.370  0.362  0.353  0.356  0.389  0.000  0.000
 1990 335   123   115      1     72    421     0     0   125  0.476  0.485  0.478  0.367  0.360  0.352  0.354  0.388  0.000  0.000
 1990 336   124   114      1     72    421     0     0   125  0.473  0.479  0.473  0.367  0.359  0.351  0.354  0.387  0.000  0.000
 1990 337   125   117      1     72    431     0     0   125  0.549  0.518  0.461  0.364  0.357  0.350  0.352  0.385  0.000  0.000
 1990 338   126   111      1     72    431     0     0   125  0.507  0.509  0.453  0.361  0.355  0.349  0.350  0.382  0.000  0.000
 1990 339   127   107      1     72    431     0     0   125  0.493  0.495  0.448  0.360  0.354  0.348  0.349  0.379  0.000  0.000
 1990 340   128   145      1     72    473     0     0   125  0.555  0.556  0.562  0.442  0.356  0.347  0.349  0.376  0.000  0.000
 1990 341   129   200      3     72    536     0     0   125  0.549  0.559  0.559  0.459  0.461  0.446  0.391  0.373  0.000  0.000
 1990 342   130   192      3     73    536     0     0   125  0.531  0.547  0.547  0.445  0.444  0.430  0.403  0.393  0.000  0.000
 1990 343   131   188      3     75    536     0     0   125  0.537  0.539  0.544  0.441  0.437  0.424  0.407  0.394  0.000  0.000
 1990 344   132   222      6    108    606     0     0   125  0.565  0.567  0.566  0.468  0.459  0.446  0.438  0.431  0.000  0.000
 1990 345   133   202      6    122    606     0     0   125  0.540  0.554  0.554  0.449  0.445  0.432  0.419  0.414  0.000  0.000
 1990 346   134   193      6    128    606     0     0   125  0.534  0.547  0.547  0.442  0.437  0.425  0.412  0.405  0.000  0.000
 1990 347   135   186      6    131    606     0     0   125  0.531  0.538  0.542  0.437  0.432  0.420  0.407  0.400  0.000  0.000
 1990 348   136   180      6    131    606     0     0   125  0.522  0.532  0.536  0.432  0.427  0.415  0.402  0.396  0.000  0.000
 1990 349   137   173      6    131    606     0     0   125  0.512  0.525  0.530  0.427  0.422  0.410  0.397  0.393  0.000  0.000
 1990 350   138   167      6    131    606     0     0   125  0.503  0.517  0.523  0.422  0.416  0.405  0.392  0.391  0.000  0.000
 1990 351   139   163      6    131    606     0     0   125  0.502  0.512  0.519  0.419  0.414  0.402  0.390  0.390  0.000  0.000
 1990 352   140   193      6    131    642     0     0   125  0.557  0.562  0.562  0.465  0.456  0.415  0.386  0.388  0.000  0.000
 1990 353   141   186      6    131    642     0     0   125  0.532  0.549  0.549  0.449  0.440  0.414  0.403  0.386  0.000  0.000
 1990 354   142   180      6    131    642     0     0   125  0.521  0.536  0.541  0.439  0.431  0.414  0.399  0.383  0.000  0.000
 1990 355   143   174      6    131    642     0     0   125  0.516  0.528  0.535  0.434  0.426  0.409  0.395  0.382  0.000  0.000
 1990 356   144   199      6    131    670     0     0   125  0.570  0.564  0.565  0.468  0.459  0.423  0.400  0.381  0.000  0.000
 1990 357   145   192      6    134    670     0     0   125  0.545  0.552  0.552  0.452  0.444  0.418  0.405  0.394  0.000  0.000
 1990 358   146   204      6    134    684     0     0   125  0.559  0.566  0.566  0.468  0.458  0.425  0.409  0.395  0.000  0.000
 1990 359   147   191      6    141    684     0     0   125  0.533  0.553  0.553  0.452  0.444  0.417  0.402  0.392  0.000  0.000
 1990 360   148   183      6    142    684     0     0   125  0.516  0.540  0.545  0.442  0.434  0.413  0.402  0.392  0.000  0.000
 1990 361   149   175      6    142    684     0     0   125  0.510  0.528  0.538  0.434  0.427  0.408  0.396  0.390  0.000  0.000
 1990 362   150   169      6    142    684     0     0   125  0.499  0.521  0.531  0.429  0.422  0.403  0.391  0.387  0.000  0.000
 1990 363   151   163      6    142    684     0     0   125  0.490  0.514  0.524  0.425  0.418  0.399  0.387  0.385  0.000  0.000
 1990 364   152   156      6    142    684     0     0   125  0.477  0.506  0.517  0.420  0.413  0.394  0.382  0.383  0.000  0.000
 1990 365   153   149      6    142    684     0     0   125  0.469  0.497  0.510  0.414  0.407  0.389  0.378  0.380  0.000  0.000
 1991 001   154   144      6    142    684     0     0   125  0.455  0.490  0.503  0.409  0.402  0.386  0.375  0.378  0.000  0.000
 1991 002   155   138      6    142    684     0     0   125  0.441  0.482  0.497  0.404  0.397  0.383  0.372  0.375  0.000  0.000
 1991 003   156   132      6    142    684     0     0   125  0.423  0.473  0.490  0.399  0.392  0.380  0.370  0.373  0.000  0.000
 1991 004   157   125      6    142    684     0     0   125  0.403  0.463  0.481  0.392  0.386  0.377  0.367  0.369  0.000  0.000
 1991 005   158   118      6    142    684     0     0   125  0.391  0.453  0.473  0.385  0.381  0.374  0.364  0.367  0.000  0.000
 1991 006   159   111      6    142    684     0     0   125  0.380  0.442  0.463  0.379  0.377  0.371  0.361  0.364  0.000  0.000
 1991 007   160   105      6    142    684     0     0   125  0.370  0.430  0.452  0.374  0.373  0.368  0.359  0.361  0.000  0.000
 1991 008   161    98      6    142    684     0     0   125  0.361  0.421  0.440  0.369  0.369  0.365  0.356  0.358  0.000  0.000
 1991 009   162    96      6    142    684     0     0   125  0.354  0.417  0.435  0.368  0.368  0.364  0.355  0.357  0.000  0.000
 1991 010   163    95      6    142    690     0     0   125  0.443  0.411  0.424  0.364  0.364  0.362  0.352  0.354  0.000  0.000
 1991 011   164    90      6    142    690     0     0   125  0.406  0.410  0.418  0.361  0.361  0.359  0.350  0.352  0.000  0.000
 1991 012   165    84      6    142    690     0     0   125  0.384  0.405  0.411  0.357  0.358  0.356  0.347  0.350  0.000  0.000
 1991 013   166    81      6    142    690     0     0   125  0.368  0.401  0.407  0.354  0.355  0.354  0.345  0.348  0.000  0.000
 1991 014   167    75      6    142    690     0     0   125  0.354  0.396  0.401  0.350  0.352  0.351  0.342  0.344  0.000  0.000
 1991 015   168    70      6    142    690     0     0   125  0.342  0.390  0.395  0.345  0.348  0.347  0.338  0.341  0.000  0.000
 1991 016   169    66      6    142    690     0     0   125  0.331  0.386  0.392  0.343  0.345  0.345  0.336  0.339  0.000  0.000
 1991 017   170    61      6    142    690     0     0   125  0.322  0.382  0.388  0.339  0.342  0.342  0.333  0.336  0.000  0.000
 1991 018   171    56      6    142    690     0     0   125  0.313  0.377  0.383  0.335  0.338  0.338  0.330  0.333  0.000  0.000
 1991 019   172    52      6    142    690     0     0   125  0.304  0.373  0.379  0.332  0.334  0.335  0.327  0.330  0.000  0.000
 1991 020   173    48      6    142    690     0     0   125  0.295  0.370  0.376  0.329  0.332  0.332  0.324  0.328  0.000  0.000
 1991 021   174   100      6    142    744     0     0   125  0.549  0.566  0.512  0.328  0.331  0.331  0.323  0.326  0.000  0.000
 1991 022   175   100      6    142    752     0     0   125  0.496  0.549  0.539  0.336  0.330  0.330  0.322  0.326  0.000  0.000
 1991 023   176    94      6    142    752     0     0   125  0.471  0.520  0.524  0.339  0.330  0.330  0.322  0.325  0.000  0.000

*DSSAT Cropping System Model Ver. 4.0.2.000               Aug 03, 2016; 15:29:28

*RUN   2        : UYMZ                    
 MODEL          : MZCER040 - Maize           
 EXPERIMENT     : UYMZ0128 MZ    late to create DSS                             
 TREATMENT  1   : UYMZ                    

@YEAR DOY   DAS  SWXD   ROFC   DRNC   PREC  IR#C  IRRC  DTWT   SW1D   SW2D   SW3D   SW4D   SW5D   SW6D   SW7D   SW8D   SW9D   SW10
 1991 212     0   142      0      0     26     0     0   125  0.523  0.557  0.401  0.335  0.375  0.419  0.408  0.395  0.000  0.000
 1991 213     1   139      0      0     26     0     0   125  0.489  0.533  0.411  0.335  0.376  0.418  0.408  0.395  0.000  0.000
 1991 214     2   137      0      0     26     0     0   125  0.480  0.512  0.415  0.336  0.376  0.418  0.408  0.395  0.000  0.000
 1991 215     3   160      0      0     51     0     0   125  0.534  0.555  0.519  0.337  0.377  0.417  0.408  0.395  0.000  0.000
 1991 216     4   186      0      0     78     0     0   125  0.559  0.559  0.568  0.448  0.381  0.417  0.408  0.395  0.000  0.000
 1991 217     5   183      0      0     78     0     0   125  0.495  0.552  0.558  0.442  0.404  0.416  0.408  0.395  0.000  0.000
 1991 218     6   182      0      0     78     0     0   125  0.514  0.533  0.550  0.439  0.416  0.416  0.408  0.395  0.000  0.000
 1991 219     7   181      0      0     78     0     0   125  0.499  0.530  0.544  0.439  0.421  0.416  0.408  0.395  0.000  0.000
 1991 220     8   179      0      0     78     0     0   125  0.491  0.525  0.540  0.438  0.421  0.416  0.408  0.395  0.000  0.000
 1991 221     9   178      0      0     78     0     0   125  0.490  0.521  0.537  0.437  0.422  0.416  0.408  0.395  0.000  0.000
 1991 222    10   177      0      0     78     0     0   125  0.489  0.518  0.534  0.436  0.422  0.416  0.408  0.395  0.000  0.000
 1991 223    11   176      0      0     78     0     0   125  0.475  0.515  0.531  0.435  0.423  0.416  0.408  0.395  0.000  0.000
 1991 224    12   175      0      0     78     0     0   125  0.471  0.511  0.528  0.434  0.423  0.416  0.408  0.395  0.000  0.000
 1991 225    13   174      0      0     78     0     0   125  0.470  0.507  0.526  0.433  0.423  0.416  0.408  0.395  0.000  0.000
 1991 226    14   173      0      0     78     0     0   125  0.469  0.504  0.523  0.432  0.423  0.416  0.407  0.395  0.000  0.000
 1991 227    15   172      0      0     78     0     0   125  0.468  0.501  0.521  0.431  0.424  0.416  0.407  0.395  0.000  0.000
 1991 228    16   172      0      0     78     0     0   125  0.467  0.499  0.519  0.431  0.424  0.416  0.407  0.395  0.000  0.000
 1991 229    17   171      0      0     78     0     0   125  0.467  0.497  0.517  0.430  0.424  0.416  0.407  0.395  0.000  0.000
 1991 230    18   170      0      0     78     0     0   125  0.466  0.496  0.515  0.429  0.424  0.416  0.407  0.395  0.000  0.000
 1991 231    19   170      0      0     78     0     0   125  0.465  0.494  0.514  0.428  0.424  0.416  0.407  0.395  0.000  0.000
 1991 232    20   169      0      0     78     0     0   125  0.464  0.493  0.512  0.427  0.424  0.416  0.407  0.395  0.000  0.000
 1991 233    21   169      0      0     78     0     0   125  0.463  0.491  0.511  0.426  0.424  0.416  0.407  0.395  0.000  0.000
 1991 234    22   168      0      0     78     0     0   125  0.462  0.490  0.509  0.426  0.424  0.416  0.407  0.395  0.000  0.000
 1991 235    23   168      0      0     78     0     0   125  0.461  0.488  0.508  0.425  0.423  0.416  0.407  0.395  0.000  0.000
 1991 236    24   167      0      0     78     0     0   125  0.459  0.486  0.507  0.424  0.423  0.416  0.407  0.395  0.000  0.000
 1991 237    25   166      0      0     78     0     0   125  0.458  0.485  0.505  0.424  0.423  0.416  0.407  0.395  0.000  0.000
 1991 238    26   166      0      0     78     0     0   125  0.457  0.484  0.504  0.423  0.423  0.416  0.407  0.395  0.000  0.000
 1991 239    27   167      0      0     80     0     0   125  0.483  0.482  0.503  0.422  0.423  0.416  0.407  0.395  0.000  0.000
 1991 240    28   166      0      0     80     0     0   125  0.473  0.484  0.502  0.422  0.423  0.416  0.407  0.395  0.000  0.000
 1991 241    29   166      0      0     80     0     0   125  0.467  0.484  0.501  0.421  0.422  0.416  0.407  0.395  0.000  0.000
 1991 242    30   165      0      0     80     0     0   125  0.463  0.483  0.500  0.421  0.422  0.415  0.407  0.395  0.000  0.000
 1991 243    31   166      0      0     82     0     0   125  0.488  0.482  0.499  0.420  0.422  0.415  0.407  0.395  0.000  0.000
 1991 244    32   179      0      0     97     0     0   125  0.534  0.570  0.514  0.420  0.422  0.415  0.407  0.395  0.000  0.000
 1991 245    33   179      0      0     97     0     0   125  0.534  0.548  0.525  0.420  0.422  0.415  0.407  0.395  0.000  0.000
 1991 246    34   176      0      0     97     0     0   125  0.497  0.537  0.528  0.421  0.421  0.415  0.407  0.395  0.000  0.000
 1991 247    35   174      0      0     97     0     0   125  0.488  0.521  0.526  0.422  0.421  0.415  0.407  0.395  0.000  0.000
 1991 248    36   172      0      0     97     0     0   125  0.480  0.512  0.522  0.422  0.421  0.415  0.407  0.395  0.000  0.000
 1991 249    37   171      0      0     97     0     0   125  0.474  0.506  0.519  0.423  0.421  0.415  0.407  0.395  0.000  0.000
 1991 250    38   177      0      0    105     0     0   125  0.562  0.531  0.516  0.423  0.421  0.415  0.407  0.395  0.000  0.000
 1991 251    39   176      0      0    105     0     0   125  0.522  0.534  0.518  0.423  0.421  0.415  0.407  0.395  0.000  0.000
 1991 252    40   172      0      0    105     0     0   125  0.478  0.524  0.518  0.423  0.421  0.415  0.407  0.394  0.000  0.000
 1991 253    41   170      0      0    105     0     0   125  0.472  0.509  0.514  0.423  0.421  0.415  0.407  0.394  0.000  0.000
 1991 254    42   168      0      0    105     0     0   125  0.463  0.499  0.509  0.422  0.421  0.415  0.407  0.394  0.000  0.000
 1991 255    43   166      0      0    105     0     0   125  0.454  0.490  0.504  0.422  0.421  0.415  0.407  0.394  0.000  0.000
 1991 256    44   163      0      0    105     0     0   125  0.446  0.483  0.499  0.421  0.421  0.415  0.407  0.394  0.000  0.000
 1991 257    45   162      0      0    105     0     0   125  0.440  0.479  0.497  0.420  0.421  0.415  0.407  0.394  0.000  0.000
 1991 258    46   178      0      0    122     0     0   125  0.562  0.564  0.506  0.419  0.420  0.415  0.407  0.394  0.000  0.000
 1991 259    47   178      0      0    125     0     0   125  0.533  0.557  0.522  0.419  0.420  0.415  0.407  0.394  0.000  0.000
 1991 260    48   190      0      0    138     0     0   125  0.558  0.557  0.569  0.441  0.420  0.415  0.406  0.394  0.000  0.000
 1991 261    49   220      2     22    196     0     0   125  0.517  0.564  0.561  0.468  0.461  0.447  0.439  0.432  0.000  0.000
 1991 262    50   201      2     36    196     0     0   125  0.485  0.542  0.546  0.455  0.449  0.436  0.427  0.417  0.000  0.000
 1991 263    51   192      2     43    196     0     0   125  0.494  0.523  0.537  0.447  0.442  0.429  0.419  0.408  0.000  0.000
 1991 264    52   185      2     47    196     0     0   125  0.483  0.516  0.530  0.442  0.437  0.425  0.415  0.403  0.000  0.000
 1991 265    53   178      2     50    196     0     0   125  0.455  0.506  0.521  0.437  0.435  0.423  0.412  0.400  0.000  0.000
 1991 266    54   174      2     51    196     0     0   125  0.443  0.495  0.513  0.434  0.433  0.421  0.410  0.398  0.000  0.000
 1991 267    55   170      2     51    196     0     0   125  0.435  0.485  0.505  0.430  0.432  0.421  0.410  0.398  0.000  0.000
 1991 268    56   167      2     51    196     0     0   125  0.427  0.475  0.498  0.426  0.431  0.421  0.410  0.398  0.000  0.000
 1991 269    57   164      2     51    196     0     0   125  0.420  0.466  0.491  0.422  0.430  0.421  0.410  0.398  0.000  0.000
 1991 270    58   161      2     51    196     0     0   125  0.413  0.458  0.484  0.417  0.429  0.421  0.410  0.398  0.000  0.000
 1991 271    59   158      2     51    196     0     0   125  0.406  0.450  0.477  0.413  0.427  0.421  0.410  0.398  0.000  0.000
 1991 272    60   155      2     51    196     0     0   125  0.400  0.443  0.470  0.408  0.425  0.421  0.410  0.398  0.000  0.000
 1991 273    61   151      2     51    196     0     0   125  0.393  0.436  0.463  0.402  0.422  0.421  0.410  0.398  0.000  0.000
 1991 274    62   148      2     51    196     0     0   125  0.386  0.430  0.457  0.397  0.420  0.421  0.410  0.398  0.000  0.000
 1991 275    63   145      2     51    196     0     0   125  0.380  0.425  0.451  0.391  0.417  0.421  0.410  0.398  0.000  0.000
 1991 276    64   142      2     51    196     0     0   125  0.373  0.421  0.444  0.385  0.413  0.421  0.410  0.398  0.000  0.000
 1991 277    65   139      2     51    196     0     0   125  0.368  0.417  0.437  0.381  0.409  0.420  0.410  0.398  0.000  0.000
 1991 278    66   138      2     51    196     0     0   125  0.362  0.415  0.435  0.380  0.407  0.420  0.410  0.398  0.000  0.000
 1991 279    67   161      2     51    221     0     0   125  0.556  0.553  0.437  0.378  0.404  0.420  0.410  0.398  0.000  0.000
 1991 280    68   180      2     51    243     0     0   125  0.549  0.554  0.562  0.388  0.401  0.420  0.410  0.398  0.000  0.000
 1991 281    69   176      2     51    243     0     0   125  0.514  0.544  0.545  0.399  0.397  0.419  0.410  0.398  0.000  0.000
 1991 282    70   172      2     51    243     0     0   125  0.506  0.530  0.535  0.397  0.394  0.419  0.410  0.398  0.000  0.000
 1991 283    71   167      2     51    243     0     0   125  0.486  0.519  0.525  0.394  0.390  0.419  0.410  0.398  0.000  0.000
 1991 284    72   162      2     51    243     0     0   125  0.476  0.507  0.514  0.390  0.385  0.418  0.410  0.398  0.000  0.000
 1991 285    73   156      2     51    243     0     0   125  0.451  0.495  0.504  0.384  0.382  0.418  0.410  0.398  0.000  0.000
 1991 286    74   151      2     51    243     0     0   125  0.430  0.481  0.492  0.380  0.378  0.417  0.410  0.398  0.000  0.000
 1991 287    75   155      2     51    250     0     0   125  0.555  0.477  0.485  0.378  0.377  0.416  0.410  0.398  0.000  0.000
 1991 288    76   189      2     51    286     0     0   125  0.529  0.579  0.565  0.457  0.389  0.416  0.410  0.398  0.000  0.000
 1991 289    77   226      6     82    360     0     0   125  0.572  0.560  0.574  0.487  0.461  0.447  0.439  0.432  0.000  0.000
 1991 290    78   208      6     98    360     0     0   125  0.546  0.549  0.557  0.464  0.445  0.435  0.427  0.417  0.000  0.000
 1991 291    79   194      6    107    360     0     0   125  0.518  0.540  0.546  0.449  0.430  0.428  0.419  0.408  0.000  0.000
 1991 292    80   185      6    110    360     0     0   125  0.510  0.527  0.537  0.437  0.423  0.423  0.415  0.403  0.000  0.000
 1991 293    81   178      6    112    360     0     0   125  0.497  0.519  0.529  0.430  0.417  0.419  0.412  0.400  0.000  0.000
 1991 294    82   172      6    112    360     0     0   125  0.487  0.510  0.520  0.423  0.411  0.415  0.410  0.398  0.000  0.000
 1991 295    83   167      6    112    360     0     0   125  0.479  0.502  0.513  0.417  0.406  0.412  0.410  0.398  0.000  0.000
 1991 296    84   168      6    112    363     0     0   125  0.543  0.498  0.510  0.415  0.405  0.411  0.410  0.398  0.000  0.000
 1991 297    85   167      6    112    363     0     0   125  0.512  0.509  0.508  0.413  0.404  0.409  0.410  0.398  0.000  0.000
 1991 298    86   165      6    112    363     0     0   125  0.505  0.508  0.506  0.412  0.402  0.408  0.410  0.398  0.000  0.000
 1991 299    87   160      6    112    363     0     0   125  0.490  0.501  0.501  0.406  0.397  0.404  0.410  0.398  0.000  0.000
 1991 300    88   157      6    112    363     0     0   125  0.487  0.496  0.498  0.403  0.395  0.402  0.410  0.398  0.000  0.000
 1991 301    89   156      6    112    363     0     0   125  0.486  0.493  0.495  0.401  0.393  0.401  0.409  0.398  0.000  0.000
 1991 302    90   154      6    112    363     0     0   125  0.484  0.490  0.493  0.400  0.392  0.400  0.409  0.398  0.000  0.000
 1991 303    91   169      6    112    379     0     0   125  0.565  0.565  0.518  0.398  0.391  0.399  0.409  0.398  0.000  0.000
 1991 304    92   168      6    112    380     0     0   125  0.563  0.554  0.526  0.398  0.390  0.398  0.408  0.398  0.000  0.000
 1991 305    93   164      6    112    380     0     0   125  0.544  0.541  0.528  0.395  0.387  0.395  0.408  0.398  0.000  0.000
 1991 306    94   159      6    112    380     0     0   125  0.528  0.532  0.521  0.391  0.383  0.391  0.408  0.398  0.000  0.000
 1991 307    95   155      6    112    380     0     0   125  0.518  0.523  0.515  0.387  0.380  0.388  0.407  0.398  0.000  0.000
 1991 308    96   149      6    112    380     0     0   125  0.502  0.511  0.505  0.382  0.376  0.384  0.407  0.398  0.000  0.000
 1991 309    97   145      6    112    380     0     0   125  0.491  0.501  0.497  0.379  0.373  0.382  0.406  0.398  0.000  0.000
 1991 310    98   151      6    112    389     0     0   125  0.564  0.542  0.495  0.378  0.372  0.380  0.405  0.398  0.000  0.000
 1991 311    99   147      6    112    389     0     0   125  0.539  0.527  0.495  0.376  0.370  0.378  0.404  0.398  0.000  0.000
 1991 312   100   143      6    112    389     0     0   125  0.515  0.519  0.491  0.374  0.368  0.376  0.403  0.398  0.000  0.000
 1991 313   101   137      6    112    389     0     0   125  0.498  0.505  0.483  0.372  0.366  0.373  0.400  0.397  0.000  0.000
 1991 314   102   133      6    112    389     0     0   125  0.488  0.495  0.478  0.370  0.365  0.372  0.397  0.397  0.000  0.000
 1991 315   103   130      6    112    389     0     0   125  0.478  0.486  0.472  0.369  0.363  0.370  0.394  0.397  0.000  0.000
 1991 316   104   125      6    112    389     0     0   125  0.463  0.475  0.464  0.367  0.362  0.368  0.389  0.397  0.000  0.000
 1991 317   105   121      6    112    389     0     0   125  0.454  0.467  0.458  0.366  0.361  0.367  0.385  0.396  0.000  0.000
 1991 318   106   119      6    112    389     0     0   125  0.451  0.462  0.456  0.365  0.360  0.367  0.384  0.396  0.000  0.000
 1991 319   107   117      6    112    389     0     0   125  0.445  0.457  0.452  0.364  0.360  0.366  0.381  0.395  0.000  0.000
 1991 320   108   113      6    112    389     0     0   125  0.432  0.449  0.445  0.363  0.359  0.364  0.378  0.395  0.000  0.000
 1991 321   109   109      6    112    389     0     0   125  0.420  0.439  0.437  0.361  0.357  0.363  0.374  0.394  0.000  0.000
 1991 322   110   103      6    112    389     0     0   125  0.408  0.428  0.428  0.359  0.356  0.361  0.370  0.394  0.000  0.000
 1991 323   111    97      6    112    389     0     0   125  0.394  0.417  0.418  0.355  0.353  0.358  0.365  0.393  0.000  0.000
 1991 324   112    92      6    112    389     0     0   125  0.383  0.409  0.411  0.352  0.351  0.355  0.360  0.392  0.000  0.000
 1991 325   113    86      6    112    389     0     0   125  0.368  0.400  0.403  0.348  0.347  0.351  0.354  0.392  0.000  0.000
 1991 326   114    79      6    112    389     0     0   125  0.353  0.392  0.395  0.343  0.343  0.346  0.347  0.391  0.000  0.000
 1991 327   115    73      6    112    389     0     0   125  0.340  0.385  0.388  0.338  0.339  0.342  0.341  0.390  0.000  0.000
 1991 328   116    71      6    112    389     0     0   125  0.338  0.383  0.386  0.337  0.338  0.340  0.340  0.389  0.000  0.000
 1991 329   117   151      6    112    471     0     0   125  0.581  0.566  0.566  0.468  0.363  0.339  0.339  0.388  0.000  0.000
 1991 330   118   178      7    112    502     0     0   125  0.556  0.563  0.563  0.463  0.461  0.389  0.339  0.387  0.000  0.000
 1991 331   119   177      7    112    505     0     0   125  0.551  0.563  0.560  0.457  0.453  0.395  0.340  0.386  0.000  0.000
 1991 332   120   172      7    112    505     0     0   125  0.530  0.552  0.549  0.445  0.438  0.405  0.340  0.385  0.000  0.000
 1991 333   121   175      7    112    512     0     0   125  0.565  0.560  0.558  0.447  0.436  0.404  0.341  0.384  0.000  0.000
 1991 334   122   168      7    112    512     0     0   125  0.530  0.549  0.548  0.436  0.427  0.406  0.342  0.382  0.000  0.000
 1991 335   123   163      7    112    512     0     0   125  0.521  0.537  0.541  0.433  0.424  0.400  0.342  0.381  0.000  0.000
 1991 336   124   156      7    112    512     0     0   125  0.509  0.527  0.534  0.427  0.418  0.394  0.343  0.379  0.000  0.000
 1991 337   125   153      7    112    512     0     0   125  0.509  0.521  0.528  0.424  0.415  0.391  0.343  0.377  0.000  0.000
 1991 338   126   146      7    112    512     0     0   125  0.490  0.513  0.519  0.417  0.408  0.386  0.343  0.374  0.000  0.000
 1991 339   127   158      7    112    528     0     0   125  0.567  0.561  0.550  0.423  0.404  0.384  0.343  0.373  0.000  0.000
 1991 340   128   151      7    112    528     0     0   125  0.528  0.546  0.538  0.428  0.398  0.380  0.343  0.370  0.000  0.000
 1991 341   129   147      7    112    528     0     0   125  0.525  0.534  0.535  0.424  0.394  0.378  0.343  0.368  0.000  0.000
 1991 342   130   141      7    112    528     0     0   125  0.504  0.524  0.526  0.417  0.388  0.375  0.343  0.366  0.000  0.000
 1991 343   131   155      7    112    544     0     0   125  0.572  0.561  0.562  0.430  0.387  0.374  0.343  0.365  0.000  0.000
 1991 344   132   167      7    112    562     0     0   125  0.543  0.561  0.560  0.463  0.444  0.377  0.343  0.363  0.000  0.000
 1991 345   133   163      7    112    562     0     0   125  0.523  0.549  0.548  0.448  0.433  0.389  0.343  0.362  0.000  0.000
 1991 346   134   160      7    112    562     0     0   125  0.530  0.537  0.544  0.442  0.431  0.392  0.343  0.361  0.000  0.000
 1991 347   135   163      7    112    572     0     0   125  0.542  0.561  0.555  0.442  0.428  0.388  0.343  0.359  0.000  0.000
 1991 348   136   175      7    112    586     0     0   125  0.558  0.567  0.566  0.467  0.450  0.394  0.343  0.358  0.000  0.000
 1991 349   137   175      7    112    587     0     0   125  0.558  0.562  0.561  0.463  0.450  0.399  0.344  0.358  0.000  0.000
 1991 350   138   178      7    112    595     0     0   125  0.547  0.565  0.565  0.467  0.455  0.405  0.344  0.357  0.000  0.000
 1991 351   139   178      7    112    601     0     0   125  0.536  0.565  0.565  0.466  0.456  0.408  0.344  0.355  0.000  0.000
 1991 352   140   172      7    112    601     0     0   125  0.508  0.549  0.552  0.451  0.442  0.411  0.355  0.354  0.000  0.000
 1991 353   141   192      7    112    627     0     0   125  0.557  0.556  0.564  0.466  0.456  0.435  0.378  0.353  0.000  0.000
 1991 354   142   189      7    112    631     0     0   125  0.530  0.564  0.562  0.460  0.453  0.427  0.390  0.352  0.000  0.000
 1991 355   143   183      7    112    631     0     0   125  0.508  0.547  0.551  0.448  0.441  0.418  0.403  0.366  0.000  0.000
 1991 356   144   181      7    112    631     0     0   125  0.520  0.532  0.545  0.442  0.436  0.417  0.406  0.370  0.000  0.000
 1991 357   145   213      7    113    670     0     0   125  0.544  0.563  0.562  0.466  0.457  0.443  0.435  0.401  0.000  0.000
 1991 358   146   195      7    124    670     0     0   125  0.502  0.548  0.551  0.451  0.443  0.431  0.417  0.396  0.000  0.000
 1991 359   147   186      7    128    670     0     0   125  0.504  0.529  0.543  0.443  0.436  0.423  0.410  0.394  0.000  0.000
 1991 360   148   186      7    128    675     0     0   125  0.553  0.538  0.538  0.438  0.432  0.419  0.408  0.395  0.000  0.000
 1991 361   149   180      7    128    675     0     0   125  0.503  0.538  0.535  0.433  0.428  0.416  0.404  0.394  0.000  0.000
 1991 362   150   173      7    128    675     0     0   125  0.485  0.523  0.529  0.429  0.424  0.412  0.400  0.392  0.000  0.000
 1991 363   151   167      7    128    675     0     0   125  0.470  0.512  0.523  0.425  0.420  0.407  0.396  0.390  0.000  0.000
 1991 364   152   161      7    128    675     0     0   125  0.448  0.503  0.517  0.421  0.416  0.404  0.393  0.388  0.000  0.000
 1991 365   153   156      7    128    675     0     0   125  0.431  0.494  0.512  0.418  0.413  0.401  0.390  0.387  0.000  0.000
 1992 001   154   153      7    128    675     0     0   125  0.430  0.487  0.508  0.417  0.412  0.400  0.389  0.386  0.000  0.000
 1992 002   155   169      7    128    695     0     0   125  0.548  0.561  0.539  0.415  0.409  0.397  0.386  0.385  0.000  0.000
 1992 003   156   163      7    128    695     0     0   125  0.497  0.549  0.537  0.417  0.406  0.394  0.383  0.383  0.000  0.000
 1992 004   157   156      7    128    695     0     0   125  0.477  0.527  0.533  0.414  0.402  0.390  0.380  0.382  0.000  0.000
 1992 005   158   149      7    128    695     0     0   125  0.444  0.513  0.524  0.411  0.398  0.387  0.377  0.380  0.000  0.000
 1992 006   159   145      7    128    695     0     0   125  0.438  0.501  0.518  0.409  0.395  0.385  0.376  0.378  0.000  0.000
 1992 007   160   140      7    128    695     0     0   125  0.432  0.491  0.510  0.406  0.392  0.383  0.374  0.376  0.000  0.000
 1992 008   161   135      7    128    695     0     0   125  0.426  0.482  0.503  0.401  0.388  0.381  0.371  0.374  0.000  0.000
 1992 009   162   131      7    128    695     0     0   125  0.421  0.475  0.496  0.398  0.386  0.379  0.370  0.373  0.000  0.000
 1992 010   163   128      7    128    695     0     0   125  0.416  0.468  0.490  0.394  0.384  0.378  0.368  0.371  0.000  0.000
 1992 011   164   123      7    128    695     0     0   125  0.411  0.461  0.483  0.389  0.381  0.375  0.366  0.369  0.000  0.000

*DSSAT Cropping System Model Ver. 4.0.2.000               Aug 03, 2016; 15:29:28

*RUN   3        : UYMZ                    
 MODEL          : MZCER040 - Maize           
 EXPERIMENT     : UYMZ0128 MZ    late to create DSS                             
 TREATMENT  1   : UYMZ                    

@YEAR DOY   DAS  SWXD   ROFC   DRNC   PREC  IR#C  IRRC  DTWT   SW1D   SW2D   SW3D   SW4D   SW5D   SW6D   SW7D   SW8D   SW9D   SW10
 1992 212     0   121      0      0      4     0     0   125  0.447  0.394  0.394  0.335  0.375  0.419  0.408  0.395  0.000  0.000
 1992 213     1   119      0      0      4     0     0   125  0.419  0.397  0.394  0.335  0.376  0.418  0.408  0.395  0.000  0.000
 1992 214     2   118      0      0      4     0     0   125  0.382  0.397  0.394  0.336  0.376  0.418  0.408  0.395  0.000  0.000
 1992 215     3   115      0      0      4     0     0   125  0.334  0.397  0.394  0.336  0.377  0.417  0.408  0.395  0.000  0.000
 1992 216     4   114      0      0      4     0     0   125  0.307  0.395  0.394  0.337  0.377  0.417  0.408  0.395  0.000  0.000
 1992 217     5   113      0      0      4     0     0   125  0.287  0.394  0.394  0.337  0.378  0.416  0.408  0.395  0.000  0.000
 1992 218     6   112      0      0      4     0     0   125  0.271  0.392  0.394  0.338  0.378  0.416  0.408  0.395  0.000  0.000
 1992 219     7   111      0      0      4     0     0   125  0.257  0.391  0.394  0.338  0.378  0.415  0.408  0.395  0.000  0.000
 1992 220     8   110      0      0      4     0     0   125  0.245  0.389  0.394  0.339  0.378  0.415  0.408  0.395  0.000  0.000
 1992 221     9   111      0      0      6     0     0   125  0.270  0.388  0.394  0.339  0.379  0.415  0.408  0.395  0.000  0.000
 1992 222    10   110      0      0      6     0     0   125  0.257  0.387  0.394  0.340  0.379  0.414  0.408  0.395  0.000  0.000
 1992 223    11   110      0      0      6     0     0   125  0.245  0.386  0.394  0.340  0.379  0.414  0.407  0.395  0.000  0.000
 1992 224    12   109      0      0      6     0     0   125  0.234  0.385  0.394  0.341  0.380  0.414  0.407  0.395  0.000  0.000
 1992 225    13   108      0      0      6     0     0   125  0.224  0.384  0.394  0.341  0.380  0.413  0.407  0.395  0.000  0.000
 1992 226    14   108      0      0      6     0     0   125  0.222  0.383  0.394  0.341  0.380  0.413  0.407  0.395  0.000  0.000
 1992 227    15   108      0      0      6     0     0   125  0.222  0.382  0.394  0.342  0.380  0.413  0.407  0.395  0.000  0.000
 1992 228    16   108      0      0      6     0     0   125  0.221  0.381  0.394  0.342  0.380  0.412  0.407  0.395  0.000  0.000
 1992 229    17   108      0      0      6     0     0   125  0.221  0.380  0.394  0.343  0.381  0.412  0.407  0.395  0.000  0.000
 1992 230    18   108      0      0      6     0     0   125  0.221  0.380  0.394  0.343  0.381  0.412  0.407  0.395  0.000  0.000
 1992 231    19   108      0      0      6     0     0   125  0.221  0.379  0.394  0.344  0.381  0.411  0.407  0.395  0.000  0.000
 1992 232    20   107      0      0      6     0     0   125  0.221  0.378  0.394  0.344  0.381  0.411  0.407  0.395  0.000  0.000
 1992 233    21   107      0      0      6     0     0   125  0.221  0.378  0.393  0.344  0.381  0.411  0.407  0.395  0.000  0.000
 1992 234    22   107      0      0      6     0     0   125  0.221  0.377  0.393  0.345  0.381  0.411  0.407  0.395  0.000  0.000
 1992 235    23   109      0      0      7     0     0   125  0.251  0.376  0.393  0.345  0.381  0.410  0.406  0.395  0.000  0.000
 1992 236    24   113      0      0     13     0     0   125  0.339  0.376  0.393  0.346  0.382  0.410  0.406  0.395  0.000  0.000
 1992 237    25   112      0      0     13     0     0   125  0.320  0.375  0.393  0.346  0.382  0.410  0.406  0.395  0.000  0.000
 1992 238    26   111      0      0     13     0     0   125  0.305  0.375  0.393  0.346  0.382  0.410  0.406  0.395  0.000  0.000
 1992 239    27   110      0      0     13     0     0   125  0.291  0.374  0.393  0.347  0.382  0.409  0.406  0.395  0.000  0.000
 1992 240    28   110      0      0     13     0     0   125  0.278  0.374  0.393  0.347  0.382  0.409  0.406  0.395  0.000  0.000
 1992 241    29   109      0      0     13     0     0   125  0.266  0.373  0.393  0.348  0.382  0.409  0.406  0.394  0.000  0.000
 1992 242    30   108      0      0     13     0     0   125  0.256  0.373  0.393  0.348  0.382  0.409  0.406  0.394  0.000  0.000
 1992 243    31   108      0      0     13     0     0   125  0.246  0.372  0.393  0.348  0.382  0.408  0.406  0.394  0.000  0.000
 1992 244    32   112      0      0     19     0     0   125  0.341  0.372  0.393  0.349  0.382  0.408  0.406  0.394  0.000  0.000
 1992 245    33   111      0      0     19     0     0   125  0.324  0.372  0.393  0.349  0.382  0.408  0.406  0.394  0.000  0.000
 1992 246    34   111      0      0     19     0     0   125  0.309  0.371  0.393  0.349  0.382  0.408  0.405  0.394  0.000  0.000
 1992 247    35   110      0      0     19     0     0   125  0.295  0.371  0.393  0.349  0.383  0.408  0.405  0.394  0.000  0.000
 1992 248    36   109      0      0     19     0     0   125  0.283  0.371  0.393  0.350  0.383  0.407  0.405  0.394  0.000  0.000
 1992 249    37   109      0      0     19     0     0   125  0.272  0.370  0.393  0.350  0.383  0.407  0.405  0.394  0.000  0.000
 1992 250    38   108      0      0     19     0     0   125  0.261  0.370  0.393  0.350  0.383  0.407  0.405  0.394  0.000  0.000
 1992 251    39   107      0      0     19     0     0   125  0.251  0.369  0.393  0.351  0.383  0.407  0.405  0.394  0.000  0.000
 1992 252    40   107      0      0     19     0     0   125  0.242  0.369  0.392  0.351  0.383  0.407  0.405  0.394  0.000  0.000
 1992 253    41   106      0      0     19     0     0   125  0.233  0.369  0.392  0.351  0.383  0.406  0.405  0.394  0.000  0.000
 1992 254    42   106      0      0     19     0     0   125  0.225  0.368  0.392  0.351  0.383  0.406  0.405  0.394  0.000  0.000
 1992 255    43   110      0      0     23     0     0   125  0.301  0.368  0.392  0.352  0.383  0.406  0.405  0.394  0.000  0.000
 1992 256    44   110      0      0     25     0     0   125  0.308  0.367  0.392  0.352  0.383  0.406  0.404  0.394  0.000  0.000
 1992 257    45   109      0      0     25     0     0   125  0.295  0.367  0.392  0.352  0.383  0.406  0.404  0.394  0.000  0.000
 1992 258    46   108      0      0     25     0     0   125  0.284  0.367  0.392  0.352  0.383  0.405  0.404  0.394  0.000  0.000
 1992 259    47   108      0      0     25     0     0   125  0.273  0.366  0.392  0.353  0.383  0.405  0.404  0.394  0.000  0.000
 1992 260    48   107      0      0     25     0     0   125  0.263  0.366  0.392  0.353  0.383  0.405  0.404  0.394  0.000  0.000
 1992 261    49   107      0      0     25     0     0   125  0.254  0.366  0.392  0.353  0.383  0.405  0.404  0.393  0.000  0.000
 1992 262    50   109      0      0     29     0     0   125  0.301  0.365  0.392  0.353  0.383  0.405  0.404  0.393  0.000  0.000
 1992 263    51   108      0      0     29     0     0   125  0.289  0.365  0.392  0.354  0.383  0.405  0.404  0.393  0.000  0.000
 1992 264    52   108      0      0     29     0     0   125  0.278  0.365  0.391  0.354  0.383  0.404  0.404  0.393  0.000  0.000
 1992 265    53   107      0      0     29     0     0   125  0.268  0.364  0.391  0.354  0.383  0.404  0.404  0.393  0.000  0.000
 1992 266    54   118      0      0     41     0     0   125  0.488  0.364  0.391  0.354  0.383  0.404  0.404  0.393  0.000  0.000
 1992 267    55   124      0      0     50     0     0   125  0.490  0.428  0.391  0.354  0.383  0.404  0.403  0.393  0.000  0.000
 1992 268    56   123      0      0     50     0     0   125  0.453  0.432  0.392  0.354  0.383  0.404  0.403  0.393  0.000  0.000
 1992 269    57   136      0      0     68     0     0   125  0.488  0.544  0.393  0.355  0.383  0.404  0.403  0.393  0.000  0.000
 1992 270    58   133      0      0     68     0     0   125  0.464  0.516  0.398  0.355  0.383  0.404  0.403  0.393  0.000  0.000
 1992 271    59   130      0      0     68     0     0   125  0.431  0.498  0.402  0.355  0.383  0.403  0.403  0.393  0.000  0.000
 1992 272    60   128      0      0     68     0     0   125  0.422  0.482  0.404  0.355  0.383  0.403  0.403  0.393  0.000  0.000
 1992 273    61   127      0      0     68     0     0   125  0.414  0.469  0.406  0.356  0.383  0.403  0.403  0.393  0.000  0.000
 1992 274    62   125      0      0     68     0     0   125  0.405  0.458  0.408  0.356  0.383  0.403  0.403  0.393  0.000  0.000
 1992 275    63   124      0      0     68     0     0   125  0.397  0.450  0.409  0.356  0.383  0.403  0.403  0.393  0.000  0.000
 1992 276    64   124      0      0     70     0     0   125  0.412  0.442  0.409  0.356  0.383  0.403  0.403  0.392  0.000  0.000
 1992 277    65   123      0      0     70     0     0   125  0.400  0.434  0.409  0.357  0.383  0.403  0.402  0.392  0.000  0.000
 1992 278    66   121      0      0     70     0     0   125  0.389  0.427  0.409  0.357  0.383  0.402  0.402  0.392  0.000  0.000
 1992 279    67   120      0      0     70     0     0   125  0.380  0.423  0.409  0.357  0.383  0.402  0.402  0.392  0.000  0.000
 1992 280    68   128      0      0     82     0     0   125  0.506  0.440  0.407  0.357  0.383  0.402  0.402  0.392  0.000  0.000
 1992 281    69   125      0      0     82     0     0   125  0.431  0.441  0.407  0.358  0.383  0.402  0.402  0.392  0.000  0.000
 1992 282    70   122      0      0     82     0     0   125  0.401  0.432  0.407  0.358  0.383  0.402  0.402  0.392  0.000  0.000
 1992 283    71   120      0      0     82     0     0   125  0.381  0.423  0.405  0.358  0.383  0.402  0.402  0.392  0.000  0.000
 1992 284    72   118      0      0     82     0     0   125  0.366  0.412  0.403  0.358  0.383  0.402  0.402  0.392  0.000  0.000
 1992 285    73   116      0      0     82     0     0   125  0.352  0.405  0.400  0.357  0.383  0.401  0.402  0.392  0.000  0.000
 1992 286    74   113      0      0     82     0     0   125  0.340  0.397  0.396  0.357  0.383  0.401  0.402  0.392  0.000  0.000
 1992 287    75   111      0      0     82     0     0   125  0.330  0.388  0.390  0.356  0.383  0.401  0.402  0.392  0.000  0.000
 1992 288    76   108      0      0     82     0     0   125  0.320  0.379  0.382  0.353  0.383  0.401  0.401  0.392  0.000  0.000
 1992 289    77   107      0      0     82     0     0   125  0.310  0.376  0.380  0.352  0.383  0.401  0.401  0.392  0.000  0.000
 1992 290    78   135      0      0    112     0     0   125  0.547  0.543  0.379  0.351  0.383  0.401  0.401  0.391  0.000  0.000
 1992 291    79   130      0      0    112     0     0   125  0.484  0.518  0.385  0.351  0.382  0.401  0.401  0.391  0.000  0.000
 1992 292    80   125      0      0    112     0     0   125  0.441  0.486  0.387  0.351  0.382  0.401  0.401  0.391  0.000  0.000
 1992 293    81   123      0      0    112     0     0   125  0.432  0.470  0.389  0.351  0.382  0.401  0.401  0.391  0.000  0.000
 1992 294    82   132      0      0    126     0     0   125  0.524  0.520  0.391  0.350  0.381  0.400  0.401  0.391  0.000  0.000
 1992 295    83   127      0      0    126     0     0   125  0.463  0.497  0.393  0.349  0.381  0.400  0.401  0.391  0.000  0.000
 1992 296    84   122      0      0    126     0     0   125  0.423  0.470  0.394  0.349  0.380  0.400  0.401  0.391  0.000  0.000
 1992 297    85   117      0      0    126     0     0   125  0.379  0.441  0.393  0.347  0.379  0.400  0.401  0.391  0.000  0.000
 1992 298    86   111      0      0    126     0     0   125  0.350  0.410  0.391  0.346  0.377  0.400  0.401  0.391  0.000  0.000
 1992 299    87   109      0      0    126     0     0   125  0.339  0.402  0.389  0.344  0.375  0.400  0.400  0.391  0.000  0.000
 1992 300    88   104      0      0    126     0     0   125  0.321  0.386  0.381  0.340  0.369  0.400  0.400  0.391  0.000  0.000
 1992 301    89    98      0      0    126     0     0   125  0.305  0.374  0.373  0.333  0.361  0.399  0.400  0.391  0.000  0.000
 1992 302    90    98      0      0    128     0     0   125  0.327  0.371  0.371  0.331  0.358  0.399  0.400  0.391  0.000  0.000
 1992 303    91    94      0      0    129     0     0   125  0.321  0.364  0.365  0.325  0.351  0.398  0.400  0.390  0.000  0.000
 1992 304    92    90      0      0    129     0     0   125  0.305  0.360  0.361  0.320  0.345  0.397  0.400  0.390  0.000  0.000
 1992 305    93    86      0      0    129     0     0   125  0.290  0.356  0.357  0.316  0.340  0.395  0.400  0.390  0.000  0.000
 1992 306    94    83      0      0    129     0     0   125  0.276  0.353  0.354  0.313  0.336  0.393  0.400  0.390  0.000  0.000
 1992 307    95    80      0      0    129     0     0   125  0.264  0.350  0.352  0.311  0.332  0.390  0.400  0.390  0.000  0.000
 1992 308    96    94      0      0    146     0     0   125  0.546  0.368  0.349  0.308  0.328  0.387  0.399  0.390  0.000  0.000
 1992 309    97    89      0      0    146     0     0   125  0.448  0.378  0.349  0.307  0.327  0.386  0.399  0.390  0.000  0.000
 1992 310    98    84      0      0    146     0     0   125  0.377  0.377  0.348  0.307  0.326  0.385  0.399  0.390  0.000  0.000
 1992 311    99    80      0      0    146     0     0   125  0.340  0.369  0.346  0.305  0.323  0.381  0.399  0.390  0.000  0.000
 1992 312   100    75      0      0    146     0     0   125  0.314  0.363  0.345  0.303  0.320  0.377  0.399  0.390  0.000  0.000
 1992 313   101    71      0      0    146     0     0   125  0.281  0.359  0.343  0.301  0.317  0.373  0.398  0.390  0.000  0.000
 1992 314   102    67      0      0    146     0     0   125  0.246  0.355  0.342  0.300  0.314  0.369  0.398  0.390  0.000  0.000
 1992 315   103    65      0      0    146     0     0   125  0.236  0.353  0.341  0.299  0.313  0.367  0.398  0.389  0.000  0.000
 1992 316   104    66      0      0    150     0     0   125  0.300  0.350  0.339  0.297  0.311  0.364  0.397  0.389  0.000  0.000
 1992 317   105    63      0      0    150     0     0   125  0.265  0.347  0.338  0.296  0.309  0.361  0.397  0.389  0.000  0.000
 1992 318   106    59      0      0    150     0     0   125  0.233  0.345  0.337  0.295  0.307  0.358  0.397  0.389  0.000  0.000
 1992 319   107    57      0      0    150     0     0   125  0.220  0.343  0.336  0.294  0.305  0.356  0.396  0.389  0.000  0.000
 1992 320   108    82      0      0    177     0     0   125  0.568  0.437  0.335  0.293  0.304  0.353  0.396  0.389  0.000  0.000
 1992 321   109    76      0      0    177     0     0   125  0.467  0.430  0.336  0.293  0.304  0.353  0.396  0.389  0.000  0.000
 1992 322   110    71      0      0    177     0     0   125  0.399  0.410  0.336  0.292  0.304  0.352  0.396  0.389  0.000  0.000
 1992 323   111    65      0      0    177     0     0   125  0.354  0.383  0.336  0.292  0.303  0.350  0.395  0.388  0.000  0.000
 1992 324   112    61      0      0    177     0     0   125  0.327  0.372  0.335  0.291  0.301  0.348  0.395  0.388  0.000  0.000
 1992 325   113    58      0      0    177     0     0   125  0.305  0.365  0.334  0.290  0.300  0.346  0.395  0.388  0.000  0.000
 1992 326   114    57      0      0    177     0     0   125  0.298  0.360  0.333  0.290  0.299  0.344  0.394  0.388  0.000  0.000
 1992 327   115    54      0      0    177     0     0   125  0.276  0.356  0.332  0.290  0.298  0.343  0.394  0.388  0.000  0.000
 1992 328   116    52      0      0    177     0     0   125  0.257  0.352  0.332  0.290  0.297  0.341  0.394  0.388  0.000  0.000
 1992 329   117    50      0      0    177     0     0   125  0.232  0.349  0.331  0.290  0.296  0.340  0.393  0.388  0.000  0.000
 1992 330   118    48      0      0    177     0     0   125  0.220  0.347  0.331  0.290  0.295  0.338  0.390  0.387  0.000  0.000
 1992 331   119    46      0      0    177     0     0   125  0.220  0.344  0.331  0.290  0.294  0.337  0.385  0.387  0.000  0.000
 1992 332   120    44      0      0    177     0     0   125  0.220  0.342  0.331  0.290  0.293  0.335  0.379  0.387  0.000  0.000
 1992 333   121    42      0      0    177     0     0   125  0.220  0.341  0.331  0.290  0.292  0.334  0.371  0.387  0.000  0.000
 1992 334   122    39      0      0    177     0     0   125  0.220  0.339  0.331  0.290  0.292  0.332  0.361  0.386  0.000  0.000
 1992 335   123    71      0      0    211     0     0   125  0.568  0.503  0.331  0.290  0.292  0.331  0.354  0.386  0.000  0.000
 1992 336   124    65      0      0    211     0     0   125  0.471  0.487  0.334  0.290  0.292  0.330  0.353  0.385  0.000  0.000
 1992 337   125    59      0      0    211     0     0   125  0.416  0.453  0.336  0.290  0.292  0.330  0.352  0.384  0.000  0.000
 1992 338   126    53      0      0    211     0     0   125  0.382  0.417  0.337  0.290  0.292  0.330  0.350  0.384  0.000  0.000
 1992 339   127    46      0      0    211     0     0   125  0.348  0.381  0.337  0.290  0.292  0.329  0.345  0.383  0.000  0.000
 1992 340   128    43      0      0    211     0     0   125  0.329  0.371  0.336  0.290  0.292  0.327  0.340  0.382  0.000  0.000
 1992 341   129    69      0      0    241     0     0   125  0.541  0.541  0.338  0.290  0.292  0.326  0.336  0.382  0.000  0.000
 1992 342   130    64      0      0    241     0     0   125  0.492  0.510  0.342  0.290  0.292  0.325  0.336  0.381  0.000  0.000
 1992 343   131    58      0      0    241     0     0   125  0.446  0.474  0.344  0.290  0.292  0.325  0.335  0.380  0.000  0.000
 1992 344   132    53      0      0    241     0     0   125  0.407  0.445  0.346  0.290  0.292  0.325  0.335  0.380  0.000  0.000
 1992 345   133    48      0      0    241     0     0   125  0.383  0.410  0.346  0.290  0.292  0.324  0.335  0.379  0.000  0.000
 1992 346   134    43      0      0    241     0     0   125  0.352  0.385  0.346  0.290  0.292  0.323  0.333  0.377  0.000  0.000
 1992 347   135    38      0      0    241     0     0   125  0.321  0.373  0.344  0.290  0.292  0.322  0.330  0.372  0.000  0.000
 1992 348   136    34      0      0    241     0     0   125  0.292  0.366  0.343  0.290  0.292  0.320  0.327  0.364  0.000  0.000
 1992 349   137    29      0      0    241     0     0   125  0.270  0.360  0.341  0.290  0.292  0.319  0.324  0.355  0.000  0.000
 1992 350   138    26      0      0    241     0     0   125  0.252  0.356  0.340  0.290  0.292  0.317  0.322  0.348  0.000  0.000
 1992 351   139    22      0      0    241     0     0   125  0.236  0.353  0.338  0.290  0.292  0.316  0.319  0.341  0.000  0.000
 1992 352   140    19      0      0    241     0     0   125  0.222  0.350  0.337  0.290  0.292  0.314  0.317  0.335  0.000  0.000
 1992 353   141    17      0      0    241     0     0   125  0.220  0.347  0.336  0.290  0.292  0.313  0.315  0.330  0.000  0.000
 1992 354   142    15      0      0    241     0     0   125  0.220  0.345  0.335  0.290  0.292  0.311  0.313  0.326  0.000  0.000
 1992 355   143    14      0      0    241     0     0   125  0.220  0.343  0.334  0.290  0.292  0.310  0.311  0.323  0.000  0.000
 1992 356   144    12      0      0    241     0     0   125  0.220  0.341  0.333  0.290  0.292  0.309  0.310  0.320  0.000  0.000
 1992 357   145    17      0      0    247     0     0   125  0.340  0.339  0.332  0.290  0.292  0.308  0.308  0.318  0.000  0.000
 1992 358   146    15      0      0    247     0     0   125  0.322  0.338  0.331  0.290  0.292  0.307  0.307  0.316  0.000  0.000
 1992 359   147    43      0      0    278     0     0   125  0.523  0.523  0.331  0.290  0.292  0.306  0.306  0.314  0.000  0.000
 1992 360   148    37      0      0    278     0     0   125  0.466  0.496  0.334  0.290  0.292  0.305  0.305  0.313  0.000  0.000
 1992 361   149    30      0      0    278     0     0   125  0.403  0.458  0.336  0.290  0.292  0.305  0.305  0.313  0.000  0.000
 1992 362   150    23      0      0    278     0     0   125  0.354  0.413  0.337  0.290  0.292  0.305  0.305  0.312  0.000  0.000
 1992 363   151    17      0      0    278     0     0   125  0.325  0.375  0.337  0.290  0.292  0.304  0.304  0.310  0.000  0.000
 1992 364   152    15      0      0    278     0     0   125  0.311  0.369  0.336  0.290  0.292  0.303  0.303  0.309  0.000  0.000
 1992 365   153    18      0      0    283     0     0   125  0.398  0.364  0.335  0.290  0.292  0.302  0.302  0.308  0.000  0.000
 1992 366   154    73      0      0    340     0     0   125  0.541  0.566  0.522  0.290  0.292  0.302  0.301  0.307  0.000  0.000
 1993 001   155   143     17      0    429     0     0   125  0.566  0.559  0.563  0.473  0.460  0.336  0.301  0.307  0.000  0.000
 1993 002   156   147     17      0    435     0     0   125  0.550  0.566  0.566  0.468  0.457  0.351  0.301  0.307  0.000  0.000
 1993 003   157   153     17      0    443     0     0   125  0.551  0.567  0.565  0.468  0.457  0.372  0.302  0.307  0.000  0.000
 1993 004   158   166     17      0    460     0     0   125  0.535  0.565  0.565  0.467  0.457  0.421  0.302  0.307  0.000  0.000
 1993 005   159   160     17      0    460     0     0   125  0.488  0.550  0.553  0.452  0.443  0.415  0.334  0.307  0.000  0.000
 1993 006   160   153     17      0    460     0     0   125  0.466  0.526  0.542  0.442  0.433  0.414  0.341  0.307  0.000  0.000
 1993 007   161   150     17      0    460     0     0   125  0.471  0.515  0.535  0.438  0.431  0.412  0.342  0.307  0.000  0.000
 1993 008   162   171     17      0    486     0     0   125  0.543  0.562  0.561  0.466  0.452  0.418  0.342  0.307  0.000  0.000
 1993 009   163   164     17      0    486     0     0   125  0.479  0.547  0.550  0.449  0.440  0.414  0.367  0.307  0.000  0.000
 1993 010   164   157     17      0    486     0     0   125  0.469  0.522  0.540  0.440  0.431  0.415  0.368  0.307  0.000  0.000
 1993 011   165   150     17      0    486     0     0   125  0.440  0.510  0.531  0.434  0.426  0.410  0.367  0.308  0.000  0.000
 1993 012   166   144     17      0    486     0     0   125  0.432  0.498  0.522  0.429  0.421  0.406  0.366  0.308  0.000  0.000
 1993 013   167   140     17      0    486     0     0   125  0.428  0.490  0.515  0.424  0.417  0.403  0.365  0.308  0.000  0.000
 1993 014   168   136     17      0    486     0     0   125  0.424  0.483  0.509  0.421  0.414  0.401  0.364  0.309  0.000  0.000
 1993 015   169   182     17      0    538     0     0   125  0.518  0.560  0.561  0.465  0.456  0.431  0.380  0.309  0.000  0.000
 1993 016   170   177     17      0    538     0     0   125  0.496  0.540  0.551  0.452  0.443  0.424  0.407  0.318  0.000  0.000
 1993 017   171   172     17      0    538     0     0   125  0.485  0.525  0.541  0.443  0.435  0.420  0.405  0.333  0.000  0.000
 1993 018   172   167     17      0    538     0     0   125  0.453  0.517  0.534  0.438  0.430  0.417  0.405  0.334  0.000  0.000
 1993 019   173   162     17      0    538     0     0   125  0.449  0.506  0.527  0.434  0.427  0.415  0.402  0.334  0.000  0.000
 1993 020   174   157     17      0    538     0     0   125  0.444  0.497  0.520  0.429  0.423  0.412  0.399  0.335  0.000  0.000
 1993 021   175   153     17      0    538     0     0   125  0.439  0.490  0.514  0.425  0.419  0.409  0.396  0.336  0.000  0.000
 1993 022   176   148     17      0    538     0     0   125  0.433  0.483  0.507  0.421  0.415  0.406  0.392  0.336  0.000  0.000
 1993 023   177   144     17      0    538     0     0   125  0.429  0.477  0.502  0.417  0.411  0.403  0.390  0.336  0.000  0.000
 1993 024   178   140     17      0    538     0     0   125  0.424  0.471  0.496  0.413  0.408  0.400  0.387  0.337  0.000  0.000
 1993 025   179   153     17      0    555     0     0   125  0.535  0.554  0.500  0.410  0.406  0.399  0.385  0.337  0.000  0.000
 1993 026   180   147     17      0    555     0     0   125  0.473  0.535  0.505  0.408  0.403  0.397  0.383  0.337  0.000  0.000
