*SOIL WATER DAILY OUTPUT FILE

*DSSAT Cropping System Model Ver. 4.0.2.000               Jul 20, 2016; 15:44:28

*RUN   1        : UYMZ                    
 MODEL          : MZCER040 - Maize           
 EXPERIMENT     : UYMZ0071 MZ    late to create DSS                             
 TREATMENT  1   : UYMZ                    

@YEAR DOY   DAS  SWXD   ROFC   DRNC   PREC  IR#C  IRRC  DTWT   SW1D   SW2D   SW3D   SW4D   SW5D   SW6D   SW7D   SW8D   SW9D   SW10
 1990 191     0   116      0      0      0     0     0   125  0.364  0.394  0.394  0.335  0.375  0.419  0.408  0.395  0.000  0.000
 1990 192     1   115      0      0      0     0     0   125  0.333  0.393  0.394  0.335  0.376  0.418  0.408  0.395  0.000  0.000
 1990 193     2   114      0      0      0     0     0   125  0.312  0.392  0.394  0.336  0.376  0.418  0.408  0.395  0.000  0.000
 1990 194     3   113      0      0      0     0     0   125  0.295  0.390  0.394  0.336  0.377  0.417  0.408  0.395  0.000  0.000
 1990 195     4   112      0      0      0     0     0   125  0.281  0.389  0.394  0.337  0.377  0.417  0.408  0.395  0.000  0.000
 1990 196     5   111      0      0      0     0     0   125  0.268  0.388  0.394  0.337  0.378  0.416  0.408  0.395  0.000  0.000
 1990 197     6   118      0      0      8     0     0   125  0.404  0.387  0.394  0.338  0.378  0.416  0.408  0.395  0.000  0.000
 1990 198     7   116      0      0      8     0     0   125  0.368  0.387  0.394  0.338  0.378  0.415  0.408  0.395  0.000  0.000
 1990 199     8   121      0      0     15     0     0   125  0.464  0.387  0.394  0.339  0.378  0.415  0.408  0.395  0.000  0.000
 1990 200     9   119      0      0     15     0     0   125  0.421  0.391  0.394  0.339  0.379  0.415  0.408  0.395  0.000  0.000
 1990 201    10   117      0      0     15     0     0   125  0.380  0.392  0.394  0.340  0.379  0.414  0.408  0.395  0.000  0.000
 1990 202    11   115      0      0     15     0     0   125  0.350  0.392  0.394  0.340  0.379  0.414  0.407  0.395  0.000  0.000
 1990 203    12   114      0      0     15     0     0   125  0.325  0.391  0.394  0.340  0.380  0.414  0.407  0.395  0.000  0.000
 1990 204    13   113      0      0     15     0     0   125  0.307  0.389  0.394  0.341  0.380  0.413  0.407  0.395  0.000  0.000
 1990 205    14   112      0      0     15     0     0   125  0.292  0.388  0.394  0.341  0.380  0.413  0.407  0.395  0.000  0.000
 1990 206    15   111      0      0     15     0     0   125  0.278  0.387  0.394  0.342  0.380  0.413  0.407  0.395  0.000  0.000
 1990 207    16   111      0      0     15     0     0   125  0.266  0.386  0.394  0.342  0.380  0.412  0.407  0.395  0.000  0.000
 1990 208    17   110      0      0     15     0     0   125  0.255  0.385  0.394  0.343  0.381  0.412  0.407  0.395  0.000  0.000
 1990 209    18   109      0      0     15     0     0   125  0.245  0.384  0.394  0.343  0.381  0.412  0.407  0.395  0.000  0.000
 1990 210    19   109      0      0     15     0     0   125  0.235  0.383  0.394  0.344  0.381  0.411  0.407  0.395  0.000  0.000
 1990 211    20   108      0      0     15     0     0   125  0.227  0.382  0.394  0.344  0.381  0.411  0.407  0.395  0.000  0.000
 1990 212    21   108      0      0     15     0     0   125  0.221  0.381  0.394  0.344  0.381  0.411  0.407  0.395  0.000  0.000
 1990 213    22   108      0      0     15     0     0   125  0.221  0.380  0.394  0.345  0.381  0.411  0.407  0.395  0.000  0.000
 1990 214    23   108      0      0     15     0     0   125  0.221  0.380  0.394  0.345  0.381  0.410  0.406  0.395  0.000  0.000
 1990 215    24   107      0      0     15     0     0   125  0.221  0.379  0.394  0.346  0.382  0.410  0.406  0.395  0.000  0.000
 1990 216    25   107      0      0     15     0     0   125  0.221  0.378  0.394  0.346  0.382  0.410  0.406  0.395  0.000  0.000
 1990 217    26   107      0      0     15     0     0   125  0.221  0.378  0.394  0.346  0.382  0.410  0.406  0.395  0.000  0.000
 1990 218    27   107      0      0     15     0     0   125  0.221  0.377  0.393  0.347  0.382  0.409  0.406  0.395  0.000  0.000
 1990 219    28   107      0      0     15     0     0   125  0.221  0.376  0.393  0.347  0.382  0.409  0.406  0.395  0.000  0.000
 1990 220    29   107      0      0     15     0     0   125  0.221  0.376  0.393  0.348  0.382  0.409  0.406  0.394  0.000  0.000
 1990 221    30   109      0      0     17     0     0   125  0.261  0.375  0.393  0.348  0.382  0.409  0.406  0.394  0.000  0.000
 1990 222    31   108      0      0     17     0     0   125  0.251  0.374  0.393  0.348  0.382  0.408  0.406  0.394  0.000  0.000
 1990 223    32   108      0      0     17     0     0   125  0.242  0.374  0.393  0.349  0.382  0.408  0.406  0.394  0.000  0.000
 1990 224    33   107      0      0     17     0     0   125  0.234  0.373  0.393  0.349  0.382  0.408  0.406  0.394  0.000  0.000
 1990 225    34   107      0      0     17     0     0   125  0.225  0.373  0.393  0.349  0.382  0.408  0.405  0.394  0.000  0.000
 1990 226    35   106      0      0     17     0     0   125  0.221  0.372  0.393  0.350  0.383  0.408  0.405  0.394  0.000  0.000
 1990 227    36   134      0      0     45     0     0   125  0.568  0.478  0.393  0.350  0.383  0.407  0.405  0.394  0.000  0.000
 1990 228    37   131      0      0     45     0     0   125  0.465  0.493  0.396  0.350  0.383  0.407  0.405  0.394  0.000  0.000
 1990 229    38   128      0      0     45     0     0   125  0.408  0.484  0.399  0.350  0.383  0.407  0.405  0.394  0.000  0.000
 1990 230    39   125      0      0     45     0     0   125  0.364  0.471  0.401  0.351  0.383  0.407  0.405  0.394  0.000  0.000
 1990 231    40   123      0      0     45     0     0   125  0.351  0.460  0.403  0.351  0.383  0.407  0.405  0.394  0.000  0.000
 1990 232    41   122      0      0     45     0     0   125  0.342  0.450  0.404  0.352  0.383  0.406  0.405  0.394  0.000  0.000
 1990 233    42   121      0      0     45     0     0   125  0.334  0.441  0.405  0.352  0.383  0.406  0.405  0.394  0.000  0.000
 1990 234    43   120      0      0     45     0     0   125  0.327  0.434  0.406  0.352  0.383  0.406  0.405  0.394  0.000  0.000
 1990 235    44   119      0      0     45     0     0   125  0.321  0.427  0.406  0.353  0.383  0.406  0.404  0.394  0.000  0.000
 1990 236    45   118      0      0     45     0     0   125  0.314  0.421  0.407  0.353  0.383  0.406  0.404  0.394  0.000  0.000
 1990 237    46   117      0      0     45     0     0   125  0.307  0.416  0.406  0.353  0.383  0.405  0.404  0.394  0.000  0.000
 1990 238    47   116      0      0     45     0     0   125  0.301  0.411  0.406  0.354  0.383  0.405  0.404  0.394  0.000  0.000
 1990 239    48   156      0      0     87     0     0   125  0.548  0.564  0.492  0.354  0.383  0.405  0.404  0.394  0.000  0.000
 1990 240    49   155      0      0     89     0     0   125  0.509  0.551  0.504  0.356  0.383  0.405  0.404  0.393  0.000  0.000
 1990 241    50   152      0      0     89     0     0   125  0.477  0.526  0.507  0.359  0.383  0.405  0.404  0.393  0.000  0.000
 1990 242    51   150      0      0     89     0     0   125  0.462  0.511  0.505  0.362  0.383  0.405  0.404  0.393  0.000  0.000
 1990 243    52   149      0      0     89     0     0   125  0.463  0.501  0.502  0.364  0.383  0.404  0.404  0.393  0.000  0.000
 1990 244    53   151      0      0     92     0     0   125  0.515  0.494  0.499  0.367  0.384  0.404  0.404  0.393  0.000  0.000
 1990 245    54   148      0      0     92     0     0   125  0.452  0.499  0.497  0.369  0.384  0.404  0.404  0.393  0.000  0.000
 1990 246    55   146      0      0     92     0     0   125  0.440  0.491  0.495  0.370  0.384  0.404  0.403  0.393  0.000  0.000
 1990 247    56   145      0      0     92     0     0   125  0.433  0.485  0.493  0.372  0.384  0.404  0.403  0.393  0.000  0.000
 1990 248    57   144      0      0     92     0     0   125  0.428  0.480  0.490  0.374  0.384  0.404  0.403  0.393  0.000  0.000
 1990 249    58   144      0      0     93     0     0   125  0.437  0.475  0.488  0.375  0.384  0.404  0.403  0.393  0.000  0.000
 1990 250    59   151      0      0    101     0     0   125  0.556  0.487  0.486  0.376  0.385  0.403  0.403  0.393  0.000  0.000
 1990 251    60   168      0      0    119     0     0   125  0.517  0.580  0.546  0.380  0.385  0.403  0.403  0.393  0.000  0.000
 1990 252    61   163      0      0    119     0     0   125  0.453  0.553  0.540  0.395  0.385  0.403  0.403  0.393  0.000  0.000
 1990 253    62   161      0      0    119     0     0   125  0.457  0.525  0.536  0.399  0.386  0.403  0.403  0.393  0.000  0.000
 1990 254    63   182      0      0    143     0     0   125  0.545  0.563  0.562  0.454  0.396  0.403  0.403  0.393  0.000  0.000
 1990 255    64   179      0      0    143     0     0   125  0.485  0.552  0.553  0.446  0.417  0.403  0.403  0.392  0.000  0.000
 1990 256    65   177      0      0    143     0     0   125  0.480  0.529  0.546  0.442  0.429  0.403  0.402  0.392  0.000  0.000
 1990 257    66   174      0      0    143     0     0   125  0.456  0.519  0.539  0.440  0.431  0.404  0.402  0.392  0.000  0.000
 1990 258    67   172      0      0    143     0     0   125  0.456  0.510  0.533  0.440  0.430  0.404  0.402  0.392  0.000  0.000
 1990 259    68   170      0      0    143     0     0   125  0.455  0.504  0.528  0.439  0.430  0.404  0.402  0.392  0.000  0.000
 1990 260    69   169      0      0    143     0     0   125  0.455  0.500  0.524  0.438  0.430  0.404  0.402  0.392  0.000  0.000
 1990 261    70   199      0      0    175     0     0   125  0.550  0.564  0.564  0.468  0.460  0.417  0.402  0.392  0.000  0.000
 1990 262    71   192      0      4    175     0     0   125  0.497  0.553  0.554  0.456  0.448  0.419  0.408  0.395  0.000  0.000
 1990 263    72   188      0      7    175     0     0   125  0.508  0.533  0.547  0.449  0.441  0.419  0.408  0.395  0.000  0.000
 1990 264    73   185      0      9    175     0     0   125  0.505  0.527  0.541  0.444  0.437  0.419  0.408  0.395  0.000  0.000
 1990 265    74   180      0      9    175     0     0   125  0.453  0.521  0.535  0.441  0.435  0.419  0.408  0.395  0.000  0.000
 1990 266    75   177      0     10    175     0     0   125  0.454  0.509  0.529  0.439  0.433  0.419  0.408  0.395  0.000  0.000
 1990 267    76   175      0     10    175     0     0   125  0.452  0.500  0.523  0.437  0.433  0.419  0.408  0.395  0.000  0.000
 1990 268    77   173      0     10    175     0     0   125  0.449  0.494  0.517  0.435  0.433  0.419  0.408  0.395  0.000  0.000
 1990 269    78   171      0     10    175     0     0   125  0.446  0.488  0.512  0.433  0.433  0.419  0.408  0.395  0.000  0.000
 1990 270    79   169      0     10    175     0     0   125  0.442  0.482  0.506  0.430  0.433  0.419  0.408  0.395  0.000  0.000
 1990 271    80   168      0     10    175     0     0   125  0.438  0.479  0.504  0.429  0.432  0.419  0.408  0.395  0.000  0.000
 1990 272    81   166      0     10    175     0     0   125  0.435  0.474  0.498  0.427  0.432  0.419  0.408  0.395  0.000  0.000
 1990 273    82   164      0     10    175     0     0   125  0.431  0.468  0.493  0.424  0.431  0.419  0.408  0.395  0.000  0.000
 1990 274    83   161      0     10    175     0     0   125  0.426  0.461  0.486  0.422  0.430  0.419  0.408  0.395  0.000  0.000
 1990 275    84   159      0     10    175     0     0   125  0.421  0.454  0.478  0.418  0.429  0.419  0.408  0.395  0.000  0.000
 1990 276    85   156      0     10    175     0     0   125  0.415  0.447  0.470  0.415  0.428  0.419  0.408  0.395  0.000  0.000
 1990 277    86   153      0     10    175     0     0   125  0.409  0.440  0.464  0.412  0.427  0.419  0.408  0.395  0.000  0.000
 1990 278    87   152      0     10    175     0     0   125  0.404  0.437  0.461  0.411  0.426  0.419  0.408  0.395  0.000  0.000
 1990 279    88   174      0     10    199     0     0   125  0.554  0.564  0.476  0.409  0.425  0.419  0.408  0.395  0.000  0.000
 1990 280    89   177      0     10    204     0     0   125  0.554  0.556  0.506  0.408  0.424  0.419  0.408  0.395  0.000  0.000
 1990 281    90   213      1     11    243     0     0   125  0.548  0.556  0.568  0.469  0.459  0.444  0.425  0.402  0.000  0.000
 1990 282    91   197      1     21    243     0     0   125  0.508  0.545  0.547  0.453  0.447  0.434  0.418  0.399  0.000  0.000
 1990 283    92   188      1     26    243     0     0   125  0.503  0.527  0.534  0.443  0.439  0.428  0.414  0.398  0.000  0.000
 1990 284    93   184      1     28    243     0     0   125  0.505  0.519  0.529  0.438  0.435  0.424  0.412  0.398  0.000  0.000
 1990 285    94   215      1     30    281     0     0   125  0.543  0.557  0.557  0.464  0.458  0.447  0.439  0.410  0.000  0.000
 1990 286    95   198      1     42    281     0     0   125  0.510  0.542  0.541  0.447  0.446  0.436  0.427  0.404  0.000  0.000
 1990 287    96   188      1     47    281     0     0   125  0.505  0.523  0.531  0.437  0.437  0.429  0.419  0.400  0.000  0.000
 1990 288    97   180      1     50    281     0     0   125  0.488  0.512  0.522  0.430  0.431  0.425  0.415  0.398  0.000  0.000
 1990 289    98   174      1     51    281     0     0   125  0.481  0.502  0.513  0.423  0.426  0.422  0.412  0.397  0.000  0.000
 1990 290    99   170      1     51    281     0     0   125  0.474  0.496  0.508  0.419  0.422  0.421  0.410  0.397  0.000  0.000
 1990 291   100   165      1     51    281     0     0   125  0.456  0.487  0.500  0.412  0.416  0.421  0.410  0.397  0.000  0.000
 1990 292   101   169      1     51    289     0     0   125  0.560  0.503  0.494  0.407  0.411  0.420  0.410  0.397  0.000  0.000
 1990 293   102   171      1     51    294     0     0   125  0.528  0.551  0.493  0.403  0.406  0.419  0.410  0.397  0.000  0.000
 1990 294   103   166      1     51    294     0     0   125  0.521  0.526  0.495  0.397  0.400  0.417  0.410  0.397  0.000  0.000
 1990 295   104   160      1     51    294     0     0   125  0.503  0.512  0.490  0.390  0.393  0.415  0.410  0.397  0.000  0.000
 1990 296   105   156      1     51    294     0     0   125  0.491  0.501  0.485  0.385  0.388  0.413  0.410  0.397  0.000  0.000
 1990 297   106   151      1     51    294     0     0   125  0.481  0.491  0.479  0.381  0.384  0.411  0.410  0.397  0.000  0.000
 1990 298   107   148      1     51    294     0     0   125  0.474  0.483  0.475  0.379  0.382  0.409  0.410  0.397  0.000  0.000
 1990 299   108   143      1     51    294     0     0   125  0.460  0.472  0.466  0.375  0.378  0.405  0.410  0.397  0.000  0.000
 1990 300   109   138      1     51    294     0     0   125  0.451  0.463  0.458  0.372  0.375  0.402  0.410  0.397  0.000  0.000
 1990 301   110   136      1     51    294     0     0   125  0.448  0.458  0.455  0.371  0.374  0.400  0.409  0.397  0.000  0.000
 1990 302   111   139      1     51    300     0     0   125  0.546  0.455  0.449  0.369  0.372  0.398  0.409  0.397  0.000  0.000
 1990 303   112   154      1     51    321     0     0   125  0.521  0.571  0.496  0.366  0.369  0.393  0.409  0.397  0.000  0.000
 1990 304   113   148      1     51    321     0     0   125  0.524  0.531  0.497  0.365  0.366  0.389  0.408  0.397  0.000  0.000
 1990 305   114   145      1     51    323     0     0   125  0.546  0.518  0.488  0.364  0.364  0.386  0.408  0.397  0.000  0.000
 1990 306   115   141      1     51    323     0     0   125  0.513  0.513  0.482  0.363  0.362  0.383  0.408  0.397  0.000  0.000
 1990 307   116   138      1     51    323     0     0   125  0.504  0.503  0.477  0.363  0.361  0.382  0.407  0.397  0.000  0.000
 1990 308   117   167      1     51    356     0     0   125  0.554  0.556  0.560  0.427  0.360  0.380  0.406  0.397  0.000  0.000
 1990 309   118   162      1     51    356     0     0   125  0.534  0.542  0.543  0.429  0.361  0.378  0.405  0.397  0.000  0.000
 1990 310   119   158      1     51    356     0     0   125  0.531  0.534  0.536  0.423  0.362  0.377  0.402  0.397  0.000  0.000
 1990 311   120   155      1     51    358     0     0   125  0.547  0.532  0.528  0.416  0.362  0.375  0.399  0.397  0.000  0.000
 1990 312   121   154      1     51    358     0     0   125  0.532  0.533  0.526  0.413  0.363  0.375  0.398  0.396  0.000  0.000
 1990 313   122   150      1     51    358     0     0   125  0.523  0.526  0.521  0.409  0.363  0.374  0.395  0.396  0.000  0.000
 1990 314   123   146      1     51    358     0     0   125  0.522  0.518  0.514  0.402  0.363  0.373  0.391  0.396  0.000  0.000
 1990 315   124   141      1     51    358     0     0   125  0.504  0.511  0.506  0.396  0.362  0.371  0.386  0.396  0.000  0.000
 1990 316   125   139      1     51    358     0     0   125  0.500  0.505  0.502  0.392  0.362  0.371  0.384  0.395  0.000  0.000
 1990 317   126   132      1     51    358     0     0   125  0.484  0.494  0.492  0.384  0.361  0.369  0.378  0.395  0.000  0.000
 1990 318   127   130      1     51    360     0     0   125  0.516  0.486  0.485  0.380  0.360  0.368  0.375  0.394  0.000  0.000
 1990 319   128   128      1     51    360     0     0   125  0.497  0.488  0.482  0.379  0.360  0.367  0.374  0.393  0.000  0.000
 1990 320   129   178      1     51    413     0     0   125  0.553  0.562  0.562  0.467  0.447  0.372  0.372  0.393  0.000  0.000
 1990 321   130   172      1     51    413     0     0   125  0.531  0.547  0.546  0.448  0.433  0.387  0.369  0.392  0.000  0.000
 1990 322   131   165      1     51    413     0     0   125  0.523  0.533  0.537  0.437  0.425  0.388  0.367  0.392  0.000  0.000
 1990 323   132   159      1     51    413     0     0   125  0.512  0.523  0.529  0.429  0.417  0.384  0.365  0.391  0.000  0.000
 1990 324   133   156      1     51    413     0     0   125  0.511  0.518  0.524  0.425  0.413  0.383  0.365  0.390  0.000  0.000
 1990 325   134   150      1     51    415     0     0   125  0.525  0.510  0.515  0.416  0.405  0.379  0.363  0.389  0.000  0.000
 1990 326   135   144      1     51    415     0     0   125  0.497  0.507  0.507  0.409  0.398  0.377  0.361  0.388  0.000  0.000
 1990 327   136   137      1     51    415     0     0   125  0.483  0.497  0.499  0.401  0.390  0.374  0.360  0.386  0.000  0.000
 1990 328   137   131      1     51    415     0     0   125  0.471  0.488  0.491  0.394  0.384  0.372  0.359  0.384  0.000  0.000
 1990 329   138   127      1     51    415     0     0   125  0.462  0.480  0.484  0.389  0.381  0.370  0.358  0.382  0.000  0.000
 1990 330   139   142      1     51    435     0     0   125  0.557  0.559  0.521  0.383  0.378  0.369  0.357  0.379  0.000  0.000
 1990 331   140   136      1     51    435     0     0   125  0.532  0.539  0.520  0.380  0.374  0.367  0.355  0.376  0.000  0.000
 1990 332   141   130      1     51    435     0     0   125  0.517  0.523  0.510  0.377  0.370  0.364  0.354  0.372  0.000  0.000
 1990 333   142   123      1     51    435     0     0   125  0.498  0.508  0.499  0.374  0.367  0.362  0.352  0.368  0.000  0.000
 1990 334   143   120      1     51    435     0     0   125  0.492  0.499  0.493  0.373  0.366  0.361  0.351  0.366  0.000  0.000
 1990 335   144   115      1     51    435     0     0   125  0.477  0.488  0.483  0.371  0.364  0.359  0.350  0.363  0.000  0.000
 1990 336   145   113      1     51    435     0     0   125  0.474  0.483  0.479  0.371  0.363  0.359  0.350  0.362  0.000  0.000
 1990 337   146   117      1     51    445     0     0   125  0.548  0.523  0.468  0.367  0.361  0.357  0.348  0.359  0.000  0.000
 1990 338   147   111      1     51    445     0     0   125  0.507  0.513  0.461  0.365  0.359  0.355  0.346  0.356  0.000  0.000
 1990 339   148   107      1     51    445     0     0   125  0.494  0.498  0.456  0.363  0.357  0.354  0.345  0.354  0.000  0.000
 1990 340   149   145      1     51    487     0     0   125  0.555  0.556  0.562  0.450  0.365  0.353  0.345  0.353  0.000  0.000
 1990 341   150   199      3     51    550     0     0   125  0.546  0.559  0.559  0.459  0.460  0.446  0.409  0.353  0.000  0.000
 1990 342   151   192      3     52    550     0     0   125  0.525  0.547  0.547  0.445  0.443  0.430  0.403  0.395  0.000  0.000
 1990 343   152   188      3     54    550     0     0   125  0.534  0.537  0.543  0.441  0.437  0.424  0.407  0.394  0.000  0.000
 1990 344   153   222      6     87    620     0     0   125  0.564  0.567  0.565  0.468  0.459  0.446  0.438  0.431  0.000  0.000
 1990 345   154   202      6    101    620     0     0   125  0.535  0.554  0.553  0.453  0.445  0.432  0.419  0.413  0.000  0.000
 1990 346   155   193      6    107    620     0     0   125  0.531  0.544  0.547  0.445  0.437  0.425  0.412  0.404  0.000  0.000
 1990 347   156   186      6    110    620     0     0   125  0.527  0.537  0.542  0.439  0.432  0.420  0.407  0.399  0.000  0.000
 1990 348   157   180      6    110    620     0     0   125  0.515  0.531  0.536  0.434  0.427  0.416  0.402  0.395  0.000  0.000
 1990 349   158   173      6    110    620     0     0   125  0.503  0.523  0.530  0.429  0.422  0.410  0.397  0.393  0.000  0.000
 1990 350   159   166      6    110    620     0     0   125  0.491  0.515  0.523  0.424  0.417  0.406  0.393  0.390  0.000  0.000
 1990 351   160   163      6    110    620     0     0   125  0.491  0.509  0.519  0.421  0.415  0.403  0.391  0.389  0.000  0.000
 1990 352   161   193      6    110    656     0     0   125  0.553  0.562  0.562  0.465  0.456  0.415  0.386  0.386  0.000  0.000
 1990 353   162   186      6    110    656     0     0   125  0.521  0.549  0.549  0.449  0.441  0.414  0.404  0.384  0.000  0.000
 1990 354   163   179      6    110    656     0     0   125  0.511  0.533  0.541  0.440  0.432  0.414  0.401  0.382  0.000  0.000
 1990 355   164   173      6    110    656     0     0   125  0.502  0.525  0.534  0.435  0.428  0.410  0.397  0.380  0.000  0.000
 1990 356   165   199      6    110    684     0     0   125  0.572  0.563  0.564  0.468  0.459  0.422  0.401  0.379  0.000  0.000
 1990 357   166   192      6    113    684     0     0   125  0.540  0.551  0.552  0.453  0.444  0.418  0.405  0.394  0.000  0.000
 1990 358   167   203      6    113    699     0     0   125  0.557  0.565  0.566  0.468  0.458  0.425  0.409  0.395  0.000  0.000
 1990 359   168   190      6    120    699     0     0   125  0.520  0.553  0.554  0.453  0.445  0.417  0.403  0.392  0.000  0.000
 1990 360   169   182      6    120    699     0     0   125  0.500  0.535  0.545  0.442  0.435  0.413  0.402  0.392  0.000  0.000
 1990 361   170   175      6    120    699     0     0   125  0.485  0.523  0.537  0.436  0.429  0.410  0.397  0.389  0.000  0.000
 1990 362   171   168      6    120    699     0     0   125  0.478  0.513  0.529  0.431  0.424  0.406  0.393  0.387  0.000  0.000
 1990 363   172   162      6    120    699     0     0   125  0.460  0.506  0.523  0.427  0.420  0.402  0.389  0.385  0.000  0.000
 1990 364   173   155      6    120    699     0     0   125  0.438  0.497  0.516  0.422  0.416  0.398  0.385  0.383  0.000  0.000
 1990 365   174   149      6    120    699     0     0   125  0.425  0.487  0.509  0.417  0.411  0.394  0.381  0.380  0.000  0.000
 1991 001   175   144      6    120    699     0     0   125  0.418  0.479  0.502  0.413  0.407  0.390  0.378  0.378  0.000  0.000
 1991 002   176   139      6    120    699     0     0   125  0.412  0.472  0.496  0.408  0.403  0.387  0.376  0.376  0.000  0.000
 1991 003   177   133      6    120    699     0     0   125  0.406  0.464  0.490  0.404  0.398  0.384  0.373  0.373  0.000  0.000
 1991 004   178   128      6    120    699     0     0   125  0.401  0.457  0.483  0.398  0.393  0.381  0.370  0.370  0.000  0.000
 1991 005   179   122      6    120    699     0     0   125  0.395  0.449  0.476  0.392  0.388  0.379  0.368  0.368  0.000  0.000
 1991 006   180   117      6    120    699     0     0   125  0.389  0.442  0.468  0.386  0.383  0.376  0.366  0.365  0.000  0.000
 1991 007   181   112      6    120    699     0     0   125  0.383  0.434  0.460  0.381  0.380  0.374  0.363  0.363  0.000  0.000
 1991 008   182   107      6    120    699     0     0   125  0.376  0.426  0.451  0.377  0.376  0.371  0.361  0.360  0.000  0.000
 1991 009   183   105      6    120    699     0     0   125  0.370  0.424  0.448  0.375  0.375  0.370  0.360  0.359  0.000  0.000

*DSSAT Cropping System Model Ver. 4.0.2.000               Jul 20, 2016; 15:44:28

*RUN   2        : UYMZ                    
 MODEL          : MZCER040 - Maize           
 EXPERIMENT     : UYMZ0071 MZ    late to create DSS                             
 TREATMENT  1   : UYMZ                    

@YEAR DOY   DAS  SWXD   ROFC   DRNC   PREC  IR#C  IRRC  DTWT   SW1D   SW2D   SW3D   SW4D   SW5D   SW6D   SW7D   SW8D   SW9D   SW10
 1991 191     0   131      0      0     14     0     0   125  0.540  0.447  0.394  0.335  0.375  0.419  0.408  0.395  0.000  0.000
 1991 192     1   129      0      0     14     0     0   125  0.485  0.459  0.396  0.335  0.376  0.418  0.408  0.395  0.000  0.000
 1991 193     2   128      0      0     14     0     0   125  0.456  0.460  0.397  0.336  0.376  0.418  0.408  0.395  0.000  0.000
 1991 194     3   126      0      0     14     0     0   125  0.418  0.458  0.399  0.336  0.377  0.417  0.408  0.395  0.000  0.000
 1991 195     4   125      0      0     14     0     0   125  0.400  0.452  0.400  0.337  0.377  0.417  0.408  0.395  0.000  0.000
 1991 196     5   123      0      0     14     0     0   125  0.364  0.447  0.401  0.337  0.378  0.416  0.408  0.395  0.000  0.000
 1991 197     6   121      0      0     14     0     0   125  0.342  0.441  0.402  0.338  0.378  0.416  0.408  0.395  0.000  0.000
 1991 198     7   120      0      0     14     0     0   125  0.328  0.435  0.402  0.338  0.378  0.415  0.408  0.395  0.000  0.000
 1991 199     8   177      0      0     72     0     0   125  0.560  0.563  0.568  0.392  0.378  0.415  0.408  0.395  0.000  0.000
 1991 200     9   183      0      0     80     0     0   125  0.526  0.568  0.564  0.443  0.380  0.415  0.408  0.395  0.000  0.000
 1991 201    10   184      0      0     83     0     0   125  0.537  0.556  0.561  0.447  0.389  0.414  0.408  0.395  0.000  0.000
 1991 202    11   225     14     30    169     0     0   125  0.569  0.568  0.568  0.478  0.463  0.447  0.439  0.432  0.000  0.000
 1991 203    12   223     16     74    213     0     0   125  0.553  0.568  0.568  0.470  0.460  0.447  0.439  0.432  0.000  0.000
 1991 204    13   222     16     99    239     0     0   125  0.538  0.568  0.568  0.470  0.460  0.447  0.439  0.432  0.000  0.000
 1991 205    14   205     16    114    239     0     0   125  0.487  0.555  0.557  0.457  0.449  0.436  0.427  0.417  0.000  0.000
 1991 206    15   194     16    122    239     0     0   125  0.478  0.532  0.550  0.449  0.442  0.429  0.419  0.408  0.000  0.000
 1991 207    16   186     16    127    239     0     0   125  0.452  0.522  0.543  0.445  0.437  0.425  0.415  0.403  0.000  0.000
 1991 208    17   182     16    129    239     0     0   125  0.456  0.514  0.538  0.442  0.435  0.423  0.412  0.400  0.000  0.000
 1991 209    18   180     16    131    239     0     0   125  0.459  0.509  0.533  0.440  0.433  0.421  0.410  0.398  0.000  0.000
 1991 210    19   179     16    131    239     0     0   125  0.461  0.506  0.530  0.439  0.433  0.421  0.410  0.398  0.000  0.000
 1991 211    20   178     16    131    239     0     0   125  0.462  0.503  0.527  0.438  0.433  0.421  0.410  0.398  0.000  0.000
 1991 212    21   201     16    131    265     0     0   125  0.539  0.566  0.565  0.469  0.445  0.423  0.412  0.399  0.000  0.000
 1991 213    22   193     16    137    265     0     0   125  0.492  0.554  0.556  0.456  0.440  0.422  0.411  0.397  0.000  0.000
 1991 214    23   188     16    140    265     0     0   125  0.491  0.533  0.549  0.449  0.436  0.422  0.411  0.397  0.000  0.000
 1991 215    24   210     16    141    290     0     0   125  0.536  0.564  0.565  0.470  0.460  0.437  0.421  0.402  0.000  0.000
 1991 216    25   223     16    154    317     0     0   125  0.558  0.565  0.568  0.470  0.460  0.447  0.439  0.432  0.000  0.000
 1991 217    26   205     16    169    317     0     0   125  0.494  0.556  0.557  0.457  0.449  0.436  0.427  0.417  0.000  0.000
 1991 218    27   196     16    177    317     0     0   125  0.514  0.534  0.551  0.449  0.442  0.429  0.419  0.408  0.000  0.000
 1991 219    28   190     16    182    317     0     0   125  0.500  0.530  0.544  0.445  0.437  0.425  0.415  0.403  0.000  0.000
 1991 220    29   186     16    185    317     0     0   125  0.492  0.526  0.541  0.442  0.435  0.423  0.412  0.400  0.000  0.000
 1991 221    30   183     16    186    317     0     0   125  0.491  0.522  0.537  0.440  0.433  0.421  0.410  0.398  0.000  0.000
 1991 222    31   182     16    186    317     0     0   125  0.490  0.518  0.534  0.439  0.433  0.421  0.410  0.398  0.000  0.000
 1991 223    32   181     16    186    317     0     0   125  0.475  0.516  0.531  0.439  0.433  0.421  0.410  0.398  0.000  0.000
 1991 224    33   180     16    186    317     0     0   125  0.472  0.511  0.529  0.438  0.433  0.421  0.410  0.398  0.000  0.000
 1991 225    34   179     16    186    317     0     0   125  0.470  0.507  0.527  0.437  0.433  0.421  0.410  0.398  0.000  0.000
 1991 226    35   178     16    186    317     0     0   125  0.469  0.504  0.524  0.436  0.433  0.421  0.410  0.398  0.000  0.000
 1991 227    36   177     16    186    317     0     0   125  0.469  0.502  0.522  0.435  0.433  0.421  0.410  0.398  0.000  0.000
 1991 228    37   176     16    186    317     0     0   125  0.467  0.500  0.520  0.434  0.433  0.421  0.410  0.398  0.000  0.000
 1991 229    38   176     16    186    317     0     0   125  0.466  0.497  0.518  0.433  0.432  0.421  0.410  0.398  0.000  0.000
 1991 230    39   175     16    186    317     0     0   125  0.465  0.496  0.517  0.432  0.432  0.421  0.410  0.398  0.000  0.000
 1991 231    40   174     16    186    317     0     0   125  0.464  0.493  0.515  0.431  0.432  0.421  0.410  0.398  0.000  0.000
 1991 232    41   173     16    186    317     0     0   125  0.463  0.492  0.513  0.430  0.431  0.421  0.410  0.398  0.000  0.000
 1991 233    42   173     16    186    317     0     0   125  0.461  0.489  0.511  0.430  0.431  0.421  0.410  0.398  0.000  0.000
 1991 234    43   172     16    186    317     0     0   125  0.459  0.487  0.509  0.429  0.431  0.421  0.410  0.398  0.000  0.000
 1991 235    44   171     16    186    317     0     0   125  0.457  0.485  0.506  0.428  0.430  0.421  0.410  0.398  0.000  0.000
 1991 236    45   170     16    186    317     0     0   125  0.455  0.483  0.503  0.427  0.430  0.421  0.410  0.398  0.000  0.000
 1991 237    46   169     16    186    317     0     0   125  0.453  0.480  0.501  0.426  0.429  0.421  0.410  0.398  0.000  0.000
 1991 238    47   169     16    186    317     0     0   125  0.452  0.479  0.499  0.426  0.429  0.421  0.410  0.398  0.000  0.000
 1991 239    48   169     16    186    319     0     0   125  0.481  0.478  0.498  0.425  0.429  0.421  0.410  0.398  0.000  0.000
 1991 240    49   169     16    186    319     0     0   125  0.470  0.479  0.496  0.424  0.428  0.421  0.410  0.398  0.000  0.000
 1991 241    50   168     16    186    319     0     0   125  0.463  0.479  0.494  0.423  0.428  0.421  0.410  0.398  0.000  0.000
 1991 242    51   167     16    186    319     0     0   125  0.458  0.477  0.492  0.422  0.427  0.421  0.410  0.398  0.000  0.000
 1991 243    52   168     16    186    321     0     0   125  0.486  0.476  0.491  0.422  0.427  0.421  0.410  0.398  0.000  0.000
 1991 244    53   181     16    186    336     0     0   125  0.536  0.570  0.501  0.421  0.426  0.421  0.410  0.398  0.000  0.000
 1991 245    54   180     16    186    337     0     0   125  0.533  0.547  0.513  0.421  0.426  0.421  0.410  0.398  0.000  0.000
 1991 246    55   178     16    186    337     0     0   125  0.505  0.533  0.515  0.421  0.426  0.421  0.410  0.398  0.000  0.000
 1991 247    56   174     16    186    337     0     0   125  0.483  0.519  0.511  0.421  0.425  0.421  0.410  0.398  0.000  0.000
 1991 248    57   172     16    186    337     0     0   125  0.473  0.506  0.506  0.420  0.425  0.421  0.410  0.398  0.000  0.000
 1991 249    58   170     16    186    337     0     0   125  0.470  0.499  0.504  0.420  0.425  0.421  0.410  0.398  0.000  0.000
 1991 250    59   177     16    186    344     0     0   125  0.564  0.521  0.502  0.419  0.424  0.420  0.410  0.398  0.000  0.000
 1991 251    60   176     16    186    344     0     0   125  0.523  0.527  0.503  0.419  0.424  0.420  0.410  0.398  0.000  0.000
 1991 252    61   172     16    186    344     0     0   125  0.487  0.519  0.501  0.418  0.424  0.420  0.410  0.398  0.000  0.000
 1991 253    62   169     16    186    344     0     0   125  0.462  0.505  0.497  0.416  0.423  0.420  0.410  0.398  0.000  0.000
 1991 254    63   165     16    186    344     0     0   125  0.451  0.492  0.490  0.413  0.423  0.420  0.410  0.398  0.000  0.000
 1991 255    64   162     16    186    344     0     0   125  0.442  0.482  0.483  0.410  0.422  0.420  0.410  0.398  0.000  0.000
 1991 256    65   159     16    186    344     0     0   125  0.433  0.473  0.477  0.407  0.421  0.420  0.410  0.398  0.000  0.000
 1991 257    66   158     16    186    344     0     0   125  0.431  0.468  0.475  0.405  0.420  0.420  0.410  0.398  0.000  0.000
 1991 258    67   174     16    186    361     0     0   125  0.566  0.554  0.480  0.404  0.420  0.420  0.410  0.398  0.000  0.000
 1991 259    68   174     16    186    364     0     0   125  0.546  0.553  0.492  0.402  0.419  0.419  0.410  0.398  0.000  0.000
 1991 260    69   186     16    186    377     0     0   125  0.556  0.558  0.557  0.410  0.418  0.419  0.410  0.398  0.000  0.000
 1991 261    70   220     18    204    435     0     0   125  0.538  0.565  0.557  0.468  0.459  0.447  0.439  0.432  0.000  0.000
 1991 262    71   202     18    218    435     0     0   125  0.511  0.552  0.543  0.451  0.445  0.436  0.427  0.417  0.000  0.000
 1991 263    72   193     18    224    435     0     0   125  0.517  0.534  0.538  0.442  0.437  0.429  0.419  0.408  0.000  0.000
 1991 264    73   186     18    228    435     0     0   125  0.513  0.528  0.533  0.437  0.433  0.425  0.415  0.403  0.000  0.000
 1991 265    74   181     18    230    435     0     0   125  0.497  0.521  0.525  0.431  0.428  0.423  0.412  0.400  0.000  0.000
 1991 266    75   176     18    231    435     0     0   125  0.496  0.513  0.519  0.426  0.423  0.421  0.410  0.398  0.000  0.000
 1991 267    76   172     18    231    435     0     0   125  0.477  0.507  0.512  0.420  0.418  0.421  0.410  0.398  0.000  0.000
 1991 268    77   168     18    231    435     0     0   125  0.463  0.499  0.506  0.415  0.413  0.420  0.410  0.398  0.000  0.000
 1991 269    78   163     18    231    435     0     0   125  0.449  0.490  0.500  0.410  0.408  0.419  0.410  0.398  0.000  0.000
 1991 270    79   159     18    231    435     0     0   125  0.437  0.482  0.494  0.405  0.403  0.418  0.410  0.398  0.000  0.000
 1991 271    80   155     18    231    435     0     0   125  0.428  0.475  0.488  0.400  0.399  0.416  0.410  0.398  0.000  0.000
 1991 272    81   151     18    231    435     0     0   125  0.420  0.467  0.482  0.396  0.395  0.414  0.410  0.398  0.000  0.000
 1991 273    82   147     18    231    435     0     0   125  0.413  0.461  0.476  0.391  0.391  0.411  0.410  0.398  0.000  0.000
 1991 274    83   144     18    231    435     0     0   125  0.407  0.455  0.471  0.388  0.388  0.408  0.410  0.398  0.000  0.000
 1991 275    84   140     18    231    435     0     0   125  0.400  0.448  0.466  0.384  0.385  0.405  0.410  0.398  0.000  0.000
 1991 276    85   136     18    231    435     0     0   125  0.394  0.442  0.461  0.381  0.383  0.400  0.410  0.398  0.000  0.000
 1991 277    86   133     18    231    435     0     0   125  0.388  0.436  0.456  0.379  0.381  0.396  0.409  0.398  0.000  0.000
 1991 278    87   131     18    231    435     0     0   125  0.388  0.433  0.454  0.378  0.381  0.395  0.409  0.398  0.000  0.000
 1991 279    88   154     18    231    460     0     0   125  0.563  0.564  0.469  0.377  0.379  0.392  0.409  0.398  0.000  0.000
 1991 280    89   174     18    231    482     0     0   125  0.554  0.555  0.571  0.419  0.378  0.390  0.408  0.398  0.000  0.000
 1991 281    90   170     18    231    482     0     0   125  0.526  0.545  0.553  0.432  0.377  0.387  0.408  0.398  0.000  0.000
 1991 282    91   166     18    231    482     0     0   125  0.517  0.535  0.543  0.432  0.377  0.384  0.408  0.398  0.000  0.000
 1991 283    92   161     18    231    482     0     0   125  0.503  0.526  0.535  0.425  0.376  0.381  0.407  0.398  0.000  0.000
 1991 284    93   156     18    231    482     0     0   125  0.490  0.516  0.526  0.419  0.375  0.379  0.407  0.398  0.000  0.000
 1991 285    94   150     18    231    482     0     0   125  0.474  0.506  0.516  0.411  0.374  0.376  0.406  0.398  0.000  0.000
 1991 286    95   145     18    231    482     0     0   125  0.466  0.495  0.507  0.404  0.372  0.373  0.406  0.398  0.000  0.000
 1991 287    96   149     18    231    489     0     0   125  0.564  0.507  0.501  0.400  0.371  0.372  0.406  0.398  0.000  0.000
 1991 288    97   183     18    231    525     0     0   125  0.538  0.574  0.567  0.468  0.432  0.372  0.405  0.398  0.000  0.000
 1991 289    98   228     23    254    599     0     0   125  0.566  0.567  0.583  0.489  0.458  0.447  0.439  0.432  0.000  0.000
 1991 290    99   209     23    271    599     0     0   125  0.547  0.554  0.564  0.466  0.444  0.433  0.426  0.417  0.000  0.000
 1991 291   100   195     23    280    599     0     0   125  0.524  0.545  0.552  0.451  0.434  0.421  0.419  0.408  0.000  0.000
 1991 292   101   186     23    283    599     0     0   125  0.517  0.532  0.543  0.441  0.427  0.415  0.415  0.403  0.000  0.000
 1991 293   102   179     23    284    599     0     0   125  0.509  0.525  0.536  0.434  0.423  0.410  0.412  0.400  0.000  0.000
 1991 294   103   173     23    285    599     0     0   125  0.501  0.518  0.528  0.428  0.418  0.405  0.410  0.398  0.000  0.000
 1991 295   104   168     23    285    599     0     0   125  0.495  0.511  0.521  0.423  0.413  0.401  0.410  0.398  0.000  0.000
 1991 296   105   169     23    285    602     0     0   125  0.553  0.511  0.518  0.421  0.411  0.399  0.410  0.398  0.000  0.000
 1991 297   106   168     23    285    602     0     0   125  0.523  0.521  0.517  0.419  0.410  0.398  0.409  0.398  0.000  0.000
 1991 298   107   166     23    285    602     0     0   125  0.517  0.519  0.516  0.418  0.408  0.397  0.409  0.398  0.000  0.000
 1991 299   108   161     23    285    602     0     0   125  0.502  0.513  0.511  0.413  0.404  0.392  0.409  0.398  0.000  0.000
 1991 300   109   159     23    285    602     0     0   125  0.500  0.507  0.508  0.410  0.401  0.390  0.408  0.398  0.000  0.000
 1991 301   110   157     23    285    602     0     0   125  0.498  0.504  0.506  0.409  0.399  0.389  0.408  0.398  0.000  0.000
 1991 302   111   156     23    285    602     0     0   125  0.496  0.501  0.503  0.407  0.398  0.388  0.407  0.398  0.000  0.000
 1991 303   112   170     23    285    618     0     0   125  0.565  0.565  0.539  0.405  0.396  0.387  0.407  0.398  0.000  0.000
 1991 304   113   169     23    285    619     0     0   125  0.562  0.559  0.542  0.408  0.394  0.386  0.406  0.398  0.000  0.000
 1991 305   114   166     23    285    619     0     0   125  0.541  0.548  0.535  0.413  0.391  0.384  0.406  0.398  0.000  0.000
 1991 306   115   160     23    285    619     0     0   125  0.524  0.538  0.530  0.408  0.386  0.381  0.404  0.398  0.000  0.000
 1991 307   116   156     23    285    619     0     0   125  0.520  0.527  0.524  0.404  0.384  0.379  0.402  0.398  0.000  0.000
 1991 308   117   150     23    285    619     0     0   125  0.503  0.517  0.515  0.399  0.380  0.376  0.399  0.397  0.000  0.000
 1991 309   118   146     23    285    619     0     0   125  0.495  0.508  0.509  0.394  0.378  0.374  0.396  0.397  0.000  0.000
 1991 310   119   152     23    285    628     0     0   125  0.565  0.548  0.509  0.392  0.377  0.373  0.394  0.397  0.000  0.000
 1991 311   120   148     23    285    628     0     0   125  0.539  0.533  0.512  0.388  0.375  0.372  0.390  0.397  0.000  0.000
 1991 312   121   144     23    285    628     0     0   125  0.518  0.526  0.508  0.386  0.373  0.370  0.387  0.396  0.000  0.000
 1991 313   122   138     23    285    628     0     0   125  0.501  0.514  0.501  0.382  0.371  0.369  0.381  0.396  0.000  0.000
 1991 314   123   134     23    285    628     0     0   125  0.493  0.504  0.496  0.380  0.370  0.367  0.378  0.395  0.000  0.000
 1991 315   124   131     23    285    628     0     0   125  0.483  0.496  0.490  0.378  0.368  0.366  0.376  0.395  0.000  0.000
 1991 316   125   126     23    285    628     0     0   125  0.465  0.485  0.482  0.375  0.366  0.364  0.372  0.394  0.000  0.000
 1991 317   126   122     23    285    628     0     0   125  0.455  0.477  0.476  0.374  0.365  0.363  0.370  0.393  0.000  0.000
 1991 318   127   120     23    285    628     0     0   125  0.452  0.471  0.472  0.373  0.365  0.363  0.369  0.393  0.000  0.000
 1991 319   128   118     23    285    628     0     0   125  0.445  0.465  0.468  0.372  0.364  0.362  0.368  0.392  0.000  0.000
 1991 320   129   114     23    285    628     0     0   125  0.429  0.457  0.461  0.370  0.362  0.361  0.366  0.392  0.000  0.000
 1991 321   130   110     23    285    628     0     0   125  0.420  0.447  0.453  0.367  0.361  0.359  0.364  0.391  0.000  0.000
 1991 322   131   105     23    285    628     0     0   125  0.402  0.437  0.443  0.365  0.359  0.358  0.361  0.389  0.000  0.000
 1991 323   132    98     23    285    628     0     0   125  0.382  0.425  0.431  0.362  0.357  0.356  0.359  0.387  0.000  0.000
 1991 324   133    93     23    285    628     0     0   125  0.366  0.417  0.423  0.359  0.355  0.354  0.356  0.383  0.000  0.000
 1991 325   134    87     23    285    628     0     0   125  0.344  0.408  0.414  0.355  0.353  0.352  0.352  0.377  0.000  0.000
 1991 326   135    80     23    285    628     0     0   125  0.325  0.401  0.407  0.352  0.350  0.350  0.349  0.367  0.000  0.000
 1991 327   136    74     23    285    628     0     0   125  0.310  0.396  0.402  0.348  0.347  0.347  0.345  0.358  0.000  0.000
 1991 328   137    72     23    285    628     0     0   125  0.306  0.393  0.400  0.347  0.346  0.346  0.344  0.355  0.000  0.000
 1991 329   138   152     23    285    710     0     0   125  0.564  0.565  0.566  0.469  0.398  0.345  0.343  0.353  0.000  0.000
 1991 330   139   179     23    285    741     0     0   125  0.553  0.564  0.564  0.465  0.458  0.412  0.343  0.352  0.000  0.000
 1991 331   140   178     23    285    744     0     0   125  0.545  0.564  0.561  0.460  0.453  0.416  0.344  0.351  0.000  0.000
 1991 332   141   173     23    285    744     0     0   125  0.519  0.553  0.551  0.448  0.439  0.413  0.365  0.350  0.000  0.000
 1991 333   142   177     23    285    752     0     0   125  0.566  0.557  0.558  0.448  0.438  0.413  0.364  0.349  0.000  0.000
 1991 334   143   170     23    285    752     0     0   125  0.520  0.547  0.548  0.439  0.430  0.412  0.370  0.348  0.000  0.000
 1991 335   144   164     23    285    752     0     0   125  0.510  0.534  0.542  0.434  0.426  0.409  0.368  0.347  0.000  0.000
 1991 336   145   157     23    285    752     0     0   125  0.491  0.524  0.534  0.429  0.421  0.403  0.366  0.346  0.000  0.000
 1991 337   146   154     23    285    752     0     0   125  0.491  0.516  0.528  0.426  0.418  0.401  0.365  0.345  0.000  0.000
 1991 338   147   147     23    285    752     0     0   125  0.478  0.508  0.520  0.421  0.413  0.395  0.364  0.344  0.000  0.000
 1991 339   148   160     23    285    768     0     0   125  0.562  0.562  0.546  0.424  0.410  0.393  0.363  0.344  0.000  0.000
 1991 340   149   153     23    285    768     0     0   125  0.513  0.548  0.537  0.429  0.404  0.388  0.361  0.342  0.000  0.000
 1991 341   150   149     23    285    768     0     0   125  0.514  0.531  0.535  0.425  0.402  0.386  0.360  0.342  0.000  0.000
 1991 342   151   142     23    285    768     0     0   125  0.485  0.521  0.527  0.419  0.396  0.382  0.359  0.341  0.000  0.000
 1991 343   152   156     23    285    784     0     0   125  0.573  0.560  0.557  0.431  0.395  0.381  0.358  0.340  0.000  0.000
 1991 344   153   168     23    285    802     0     0   125  0.532  0.563  0.562  0.464  0.445  0.385  0.357  0.339  0.000  0.000
 1991 345   154   164     23    285    802     0     0   125  0.512  0.546  0.550  0.450  0.435  0.398  0.356  0.339  0.000  0.000
 1991 346   155   161     23    285    802     0     0   125  0.523  0.533  0.544  0.444  0.431  0.401  0.356  0.338  0.000  0.000
 1991 347   156   164     23    285    811     0     0   125  0.530  0.562  0.552  0.443  0.430  0.398  0.355  0.337  0.000  0.000
 1991 348   157   176     23    285    825     0     0   125  0.565  0.561  0.567  0.468  0.449  0.403  0.355  0.337  0.000  0.000
 1991 349   158   176     23    285    827     0     0   125  0.554  0.560  0.561  0.463  0.450  0.408  0.355  0.337  0.000  0.000
 1991 350   159   179     23    285    835     0     0   125  0.534  0.566  0.566  0.468  0.456  0.414  0.355  0.336  0.000  0.000
 1991 351   160   178     23    285    841     0     0   125  0.526  0.562  0.565  0.467  0.457  0.415  0.357  0.335  0.000  0.000
 1991 352   161   172     23    285    841     0     0   125  0.492  0.544  0.553  0.452  0.443  0.412  0.379  0.334  0.000  0.000
 1991 353   162   193     23    285    867     0     0   125  0.545  0.558  0.564  0.467  0.457  0.436  0.399  0.334  0.000  0.000
 1991 354   163   190     23    285    871     0     0   125  0.513  0.565  0.560  0.461  0.455  0.428  0.406  0.337  0.000  0.000
 1991 355   164   184     23    285    871     0     0   125  0.489  0.542  0.551  0.449  0.443  0.420  0.403  0.371  0.000  0.000
 1991 356   165   181     23    285    871     0     0   125  0.506  0.527  0.543  0.443  0.437  0.419  0.406  0.375  0.000  0.000
 1991 357   166   213     23    286    909     0     0   125  0.534  0.563  0.562  0.467  0.458  0.444  0.436  0.400  0.000  0.000
 1991 358   167   195     23    297    909     0     0   125  0.484  0.546  0.551  0.453  0.445  0.432  0.420  0.393  0.000  0.000
 1991 359   168   186     23    301    909     0     0   125  0.489  0.526  0.543  0.445  0.437  0.425  0.412  0.392  0.000  0.000
 1991 360   169   186     23    301    914     0     0   125  0.540  0.531  0.537  0.439  0.434  0.421  0.411  0.394  0.000  0.000
 1991 361   170   179     23    301    914     0     0   125  0.476  0.532  0.534  0.436  0.430  0.418  0.408  0.392  0.000  0.000
 1991 362   171   173     23    301    914     0     0   125  0.449  0.517  0.528  0.432  0.427  0.415  0.404  0.389  0.000  0.000
 1991 363   172   167     23    301    914     0     0   125  0.443  0.504  0.522  0.428  0.423  0.412  0.401  0.386  0.000  0.000
 1991 364   173   163     23    301    914     0     0   125  0.438  0.496  0.517  0.425  0.421  0.410  0.399  0.383  0.000  0.000
 1991 365   174   159     23    301    914     0     0   125  0.434  0.489  0.512  0.423  0.418  0.407  0.396  0.381  0.000  0.000
 1992 001   175   157     23    301    914     0     0   125  0.432  0.485  0.509  0.421  0.417  0.406  0.395  0.380  0.000  0.000
 1992 002   176   173     23    301    935     0     0   125  0.535  0.563  0.541  0.419  0.415  0.404  0.393  0.378  0.000  0.000
 1992 003   177   166     23    301    935     0     0   125  0.477  0.548  0.538  0.422  0.413  0.402  0.391  0.376  0.000  0.000
 1992 004   178   160     23    301    935     0     0   125  0.469  0.524  0.534  0.420  0.410  0.399  0.388  0.373  0.000  0.000
 1992 005   179   155     23    301    935     0     0   125  0.452  0.512  0.526  0.418  0.407  0.396  0.385  0.371  0.000  0.000
 1992 006   180   151     23    301    935     0     0   125  0.448  0.503  0.521  0.416  0.405  0.394  0.383  0.369  0.000  0.000

*DSSAT Cropping System Model Ver. 4.0.2.000               Jul 20, 2016; 15:44:28

*RUN   3        : UYMZ                    
 MODEL          : MZCER040 - Maize           
 EXPERIMENT     : UYMZ0071 MZ    late to create DSS                             
 TREATMENT  1   : UYMZ                    

@YEAR DOY   DAS  SWXD   ROFC   DRNC   PREC  IR#C  IRRC  DTWT   SW1D   SW2D   SW3D   SW4D   SW5D   SW6D   SW7D   SW8D   SW9D   SW10
 1992 191     0   116      0      0      0     0     0   125  0.355  0.394  0.394  0.335  0.375  0.419  0.408  0.395  0.000  0.000
 1992 192     1   113      0      0      0     0     0   125  0.301  0.393  0.394  0.335  0.376  0.418  0.408  0.395  0.000  0.000
 1992 193     2   112      0      0      0     0     0   125  0.275  0.391  0.394  0.336  0.376  0.418  0.408  0.395  0.000  0.000
 1992 194     3   111      0      0      0     0     0   125  0.255  0.390  0.394  0.336  0.377  0.417  0.408  0.395  0.000  0.000
 1992 195     4   110      0      0      0     0     0   125  0.239  0.389  0.394  0.337  0.377  0.417  0.408  0.395  0.000  0.000
 1992 196     5   155      0      0     47     0     0   125  0.555  0.567  0.476  0.337  0.378  0.416  0.408  0.395  0.000  0.000
 1992 197     6   154      0      0     47     0     0   125  0.515  0.549  0.488  0.339  0.378  0.416  0.408  0.395  0.000  0.000
 1992 198     7   153      0      0     47     0     0   125  0.515  0.527  0.493  0.342  0.378  0.415  0.408  0.395  0.000  0.000
 1992 199     8   151      0      0     47     0     0   125  0.490  0.518  0.494  0.344  0.379  0.415  0.408  0.395  0.000  0.000
 1992 200     9   150      0      0     47     0     0   125  0.479  0.508  0.494  0.347  0.379  0.415  0.408  0.395  0.000  0.000
 1992 201    10   149      0      0     48     0     0   125  0.480  0.500  0.493  0.349  0.379  0.414  0.408  0.395  0.000  0.000
 1992 202    11   147      0      0     48     0     0   125  0.439  0.496  0.491  0.351  0.380  0.414  0.407  0.395  0.000  0.000
 1992 203    12   145      0      0     48     0     0   125  0.428  0.487  0.489  0.354  0.380  0.414  0.407  0.395  0.000  0.000
 1992 204    13   144      0      0     48     0     0   125  0.422  0.481  0.487  0.356  0.380  0.413  0.407  0.395  0.000  0.000
 1992 205    14   143      0      0     48     0     0   125  0.417  0.475  0.485  0.357  0.381  0.413  0.407  0.395  0.000  0.000
 1992 206    15   142      0      0     48     0     0   125  0.413  0.470  0.482  0.359  0.381  0.413  0.407  0.395  0.000  0.000
 1992 207    16   142      0      0     48     0     0   125  0.410  0.466  0.480  0.361  0.381  0.412  0.407  0.395  0.000  0.000
 1992 208    17   141      0      0     48     0     0   125  0.406  0.463  0.478  0.362  0.382  0.412  0.407  0.395  0.000  0.000
 1992 209    18   144      0      0     53     0     0   125  0.467  0.459  0.476  0.364  0.382  0.412  0.407  0.395  0.000  0.000
 1992 210    19   143      0      0     53     0     0   125  0.450  0.462  0.474  0.365  0.382  0.411  0.407  0.395  0.000  0.000
 1992 211    20   143      0      0     54     0     0   125  0.459  0.461  0.472  0.366  0.383  0.411  0.407  0.395  0.000  0.000
 1992 212    21   146      0      0     58     0     0   125  0.512  0.462  0.471  0.367  0.383  0.411  0.407  0.395  0.000  0.000
 1992 213    22   145      0      0     58     0     0   125  0.474  0.470  0.470  0.368  0.383  0.411  0.407  0.395  0.000  0.000
 1992 214    23   144      0      0     58     0     0   125  0.453  0.471  0.470  0.369  0.384  0.410  0.407  0.395  0.000  0.000
 1992 215    24   143      0      0     58     0     0   125  0.440  0.469  0.469  0.370  0.384  0.410  0.406  0.395  0.000  0.000
 1992 216    25   142      0      0     58     0     0   125  0.431  0.466  0.468  0.371  0.384  0.410  0.406  0.395  0.000  0.000
 1992 217    26   141      0      0     58     0     0   125  0.424  0.463  0.468  0.372  0.385  0.410  0.406  0.395  0.000  0.000
 1992 218    27   141      0      0     58     0     0   125  0.418  0.459  0.467  0.372  0.385  0.409  0.406  0.395  0.000  0.000
 1992 219    28   140      0      0     58     0     0   125  0.413  0.457  0.466  0.373  0.385  0.409  0.406  0.395  0.000  0.000
 1992 220    29   139      0      0     58     0     0   125  0.409  0.454  0.465  0.374  0.386  0.409  0.406  0.394  0.000  0.000
 1992 221    30   140      0      0     60     0     0   125  0.426  0.451  0.464  0.374  0.386  0.409  0.406  0.394  0.000  0.000
 1992 222    31   139      0      0     60     0     0   125  0.419  0.450  0.463  0.375  0.386  0.409  0.406  0.394  0.000  0.000
 1992 223    32   139      0      0     60     0     0   125  0.413  0.449  0.462  0.375  0.387  0.408  0.406  0.394  0.000  0.000
 1992 224    33   138      0      0     60     0     0   125  0.408  0.447  0.461  0.376  0.387  0.408  0.406  0.394  0.000  0.000
 1992 225    34   138      0      0     60     0     0   125  0.404  0.445  0.460  0.376  0.387  0.408  0.405  0.394  0.000  0.000
 1992 226    35   137      0      0     60     0     0   125  0.400  0.443  0.459  0.377  0.387  0.408  0.405  0.394  0.000  0.000
 1992 227    36   137      0      0     60     0     0   125  0.396  0.442  0.459  0.377  0.388  0.408  0.405  0.394  0.000  0.000
 1992 228    37   136      0      0     60     0     0   125  0.393  0.440  0.458  0.377  0.388  0.407  0.405  0.394  0.000  0.000
 1992 229    38   136      0      0     60     0     0   125  0.390  0.438  0.457  0.378  0.388  0.407  0.405  0.394  0.000  0.000
 1992 230    39   135      0      0     60     0     0   125  0.387  0.437  0.456  0.378  0.388  0.407  0.405  0.394  0.000  0.000
 1992 231    40   135      0      0     60     0     0   125  0.385  0.435  0.455  0.378  0.388  0.407  0.405  0.394  0.000  0.000
 1992 232    41   135      0      0     60     0     0   125  0.382  0.433  0.454  0.378  0.389  0.407  0.405  0.394  0.000  0.000
 1992 233    42   134      0      0     60     0     0   125  0.380  0.432  0.454  0.379  0.389  0.407  0.405  0.394  0.000  0.000
 1992 234    43   134      0      0     60     0     0   125  0.378  0.430  0.453  0.379  0.389  0.407  0.405  0.394  0.000  0.000
 1992 235    44   134      0      0     61     0     0   125  0.389  0.429  0.452  0.379  0.389  0.406  0.405  0.394  0.000  0.000
 1992 236    45   136      0      0     67     0     0   125  0.437  0.428  0.451  0.379  0.389  0.406  0.404  0.394  0.000  0.000
 1992 237    46   136      0      0     67     0     0   125  0.427  0.429  0.451  0.379  0.390  0.406  0.404  0.394  0.000  0.000
 1992 238    47   135      0      0     67     0     0   125  0.418  0.430  0.450  0.379  0.390  0.406  0.404  0.394  0.000  0.000
 1992 239    48   135      0      0     67     0     0   125  0.411  0.430  0.450  0.380  0.390  0.406  0.404  0.394  0.000  0.000
 1992 240    49   134      0      0     67     0     0   125  0.405  0.429  0.449  0.380  0.390  0.406  0.404  0.393  0.000  0.000
 1992 241    50   134      0      0     67     0     0   125  0.400  0.428  0.448  0.380  0.390  0.406  0.404  0.393  0.000  0.000
 1992 242    51   133      0      0     67     0     0   125  0.395  0.427  0.448  0.380  0.390  0.405  0.404  0.393  0.000  0.000
 1992 243    52   133      0      0     67     0     0   125  0.391  0.426  0.447  0.380  0.390  0.405  0.404  0.393  0.000  0.000
 1992 244    53   138      0      0     73     0     0   125  0.487  0.425  0.446  0.380  0.391  0.405  0.404  0.393  0.000  0.000
 1992 245    54   137      0      0     73     0     0   125  0.465  0.431  0.446  0.380  0.391  0.405  0.404  0.393  0.000  0.000
 1992 246    55   136      0      0     73     0     0   125  0.449  0.434  0.446  0.380  0.391  0.405  0.404  0.393  0.000  0.000
 1992 247    56   136      0      0     73     0     0   125  0.436  0.435  0.445  0.380  0.391  0.405  0.403  0.393  0.000  0.000
 1992 248    57   135      0      0     73     0     0   125  0.425  0.435  0.445  0.380  0.391  0.405  0.403  0.393  0.000  0.000
 1992 249    58   134      0      0     73     0     0   125  0.417  0.433  0.444  0.380  0.391  0.405  0.403  0.393  0.000  0.000
 1992 250    59   133      0      0     73     0     0   125  0.410  0.431  0.443  0.380  0.391  0.404  0.403  0.393  0.000  0.000
 1992 251    60   133      0      0     73     0     0   125  0.403  0.429  0.442  0.380  0.391  0.404  0.403  0.393  0.000  0.000
 1992 252    61   132      0      0     73     0     0   125  0.398  0.428  0.441  0.380  0.391  0.404  0.403  0.393  0.000  0.000
 1992 253    62   131      0      0     73     0     0   125  0.393  0.425  0.440  0.380  0.391  0.404  0.403  0.393  0.000  0.000
 1992 254    63   131      0      0     73     0     0   125  0.389  0.423  0.438  0.380  0.391  0.404  0.403  0.393  0.000  0.000
 1992 255    64   133      0      0     77     0     0   125  0.438  0.421  0.437  0.380  0.391  0.404  0.403  0.393  0.000  0.000
 1992 256    65   132      0      0     79     0     0   125  0.438  0.421  0.435  0.380  0.391  0.404  0.403  0.392  0.000  0.000
 1992 257    66   132      0      0     79     0     0   125  0.425  0.422  0.434  0.380  0.392  0.404  0.403  0.392  0.000  0.000
 1992 258    67   131      0      0     79     0     0   125  0.414  0.421  0.432  0.379  0.392  0.404  0.403  0.392  0.000  0.000
 1992 259    68   129      0      0     79     0     0   125  0.404  0.418  0.429  0.379  0.392  0.404  0.402  0.392  0.000  0.000
 1992 260    69   128      0      0     79     0     0   125  0.397  0.416  0.427  0.379  0.392  0.403  0.402  0.392  0.000  0.000
 1992 261    70   127      0      0     79     0     0   125  0.390  0.413  0.423  0.379  0.392  0.403  0.402  0.392  0.000  0.000
 1992 262    71   127      0      0     83     0     0   125  0.411  0.409  0.419  0.378  0.392  0.403  0.402  0.392  0.000  0.000
 1992 263    72   125      0      0     83     0     0   125  0.399  0.406  0.416  0.378  0.392  0.403  0.402  0.392  0.000  0.000
 1992 264    73   124      0      0     83     0     0   125  0.389  0.403  0.411  0.377  0.392  0.403  0.402  0.392  0.000  0.000
 1992 265    74   122      0      0     83     0     0   125  0.380  0.398  0.406  0.376  0.392  0.403  0.402  0.392  0.000  0.000
 1992 266    75   133      0      0     95     0     0   125  0.552  0.423  0.405  0.375  0.392  0.403  0.402  0.392  0.000  0.000
 1992 267    76   139      0      0    105     0     0   125  0.489  0.522  0.404  0.375  0.391  0.403  0.402  0.392  0.000  0.000
 1992 268    77   138      0      0    105     0     0   125  0.489  0.504  0.409  0.375  0.391  0.403  0.402  0.392  0.000  0.000
 1992 269    78   151      0      0    122     0     0   125  0.520  0.552  0.455  0.374  0.391  0.403  0.402  0.392  0.000  0.000
 1992 270    79   147      0      0    122     0     0   125  0.489  0.524  0.460  0.375  0.391  0.403  0.402  0.392  0.000  0.000
 1992 271    80   144      0      0    122     0     0   125  0.457  0.504  0.460  0.375  0.391  0.402  0.401  0.391  0.000  0.000
 1992 272    81   140      0      0    122     0     0   125  0.419  0.487  0.457  0.375  0.391  0.402  0.401  0.391  0.000  0.000
 1992 273    82   137      0      0    122     0     0   125  0.406  0.472  0.452  0.375  0.391  0.402  0.401  0.391  0.000  0.000
 1992 274    83   134      0      0    122     0     0   125  0.396  0.458  0.447  0.375  0.391  0.402  0.401  0.391  0.000  0.000
 1992 275    84   132      0      0    122     0     0   125  0.386  0.449  0.443  0.375  0.391  0.402  0.401  0.391  0.000  0.000
 1992 276    85   131      0      0    124     0     0   125  0.403  0.441  0.440  0.375  0.391  0.402  0.401  0.391  0.000  0.000
 1992 277    86   129      0      0    124     0     0   125  0.390  0.433  0.434  0.374  0.391  0.402  0.401  0.391  0.000  0.000
 1992 278    87   126      0      0    124     0     0   125  0.378  0.424  0.427  0.373  0.391  0.402  0.401  0.391  0.000  0.000
 1992 279    88   125      0      0    124     0     0   125  0.368  0.420  0.425  0.372  0.391  0.402  0.401  0.391  0.000  0.000
 1992 280    89   132      0      0    136     0     0   125  0.526  0.432  0.417  0.370  0.390  0.402  0.401  0.391  0.000  0.000
 1992 281    90   129      0      0    136     0     0   125  0.465  0.435  0.414  0.369  0.390  0.402  0.401  0.391  0.000  0.000
 1992 282    91   124      0      0    136     0     0   125  0.403  0.427  0.412  0.367  0.389  0.401  0.401  0.391  0.000  0.000
 1992 283    92   120      0      0    136     0     0   125  0.370  0.415  0.407  0.365  0.388  0.401  0.401  0.391  0.000  0.000
 1992 284    93   116      0      0    136     0     0   125  0.349  0.404  0.402  0.360  0.386  0.401  0.400  0.391  0.000  0.000
 1992 285    94   113      0      0    136     0     0   125  0.332  0.398  0.397  0.357  0.384  0.401  0.400  0.390  0.000  0.000
 1992 286    95   109      0      0    136     0     0   125  0.318  0.390  0.392  0.352  0.380  0.401  0.400  0.390  0.000  0.000
 1992 287    96   105      0      0    136     0     0   125  0.306  0.382  0.385  0.346  0.375  0.401  0.400  0.390  0.000  0.000
 1992 288    97   101      0      0    136     0     0   125  0.294  0.376  0.379  0.339  0.368  0.401  0.400  0.390  0.000  0.000
 1992 289    98    99      0      0    136     0     0   125  0.283  0.373  0.377  0.337  0.366  0.401  0.400  0.390  0.000  0.000
 1992 290    99   127      0      0    166     0     0   125  0.557  0.531  0.375  0.335  0.364  0.400  0.400  0.390  0.000  0.000
 1992 291   100   123      0      0    166     0     0   125  0.494  0.512  0.379  0.334  0.363  0.400  0.400  0.390  0.000  0.000
 1992 292   101   117      0      0    166     0     0   125  0.454  0.482  0.381  0.333  0.362  0.400  0.400  0.390  0.000  0.000
 1992 293   102   116      0      0    166     0     0   125  0.445  0.467  0.383  0.333  0.361  0.399  0.400  0.390  0.000  0.000
 1992 294   103   125      0      0    180     0     0   125  0.530  0.523  0.385  0.332  0.360  0.399  0.400  0.390  0.000  0.000
 1992 295   104   120      0      0    180     0     0   125  0.480  0.499  0.388  0.331  0.358  0.399  0.400  0.390  0.000  0.000
 1992 296   105   115      0      0    180     0     0   125  0.443  0.471  0.389  0.330  0.357  0.398  0.399  0.390  0.000  0.000
 1992 297   106   110      0      0    180     0     0   125  0.403  0.444  0.389  0.329  0.355  0.397  0.399  0.390  0.000  0.000
 1992 298   107   104      0      0    180     0     0   125  0.381  0.412  0.387  0.328  0.352  0.395  0.399  0.390  0.000  0.000
 1992 299   108   102      0      0    180     0     0   125  0.373  0.404  0.385  0.328  0.350  0.394  0.399  0.389  0.000  0.000
 1992 300   109    96      0      0    180     0     0   125  0.350  0.388  0.379  0.325  0.344  0.391  0.399  0.389  0.000  0.000
 1992 301   110    90      0      0    180     0     0   125  0.331  0.378  0.373  0.321  0.337  0.385  0.399  0.389  0.000  0.000
 1992 302   111    89      0      0    182     0     0   125  0.358  0.374  0.371  0.320  0.335  0.383  0.399  0.389  0.000  0.000
 1992 303   112    85      0      0    183     0     0   125  0.364  0.368  0.366  0.316  0.329  0.378  0.398  0.389  0.000  0.000
 1992 304   113    80      0      0    183     0     0   125  0.347  0.363  0.362  0.313  0.324  0.371  0.398  0.389  0.000  0.000
 1992 305   114    75      0      0    183     0     0   125  0.334  0.359  0.358  0.311  0.320  0.364  0.398  0.389  0.000  0.000
 1992 306   115    71      0      0    183     0     0   125  0.321  0.355  0.355  0.308  0.317  0.357  0.397  0.389  0.000  0.000
 1992 307   116    67      0      0    183     0     0   125  0.308  0.352  0.352  0.306  0.314  0.352  0.397  0.389  0.000  0.000
 1992 308   117    81      0      0    200     0     0   125  0.559  0.393  0.350  0.304  0.312  0.347  0.397  0.389  0.000  0.000
 1992 309   118    76      0      0    200     0     0   125  0.464  0.401  0.349  0.303  0.311  0.346  0.396  0.389  0.000  0.000
 1992 310   119    72      0      0    200     0     0   125  0.403  0.396  0.349  0.303  0.310  0.345  0.396  0.388  0.000  0.000
 1992 311   120    67      0      0    200     0     0   125  0.368  0.381  0.348  0.301  0.309  0.342  0.396  0.388  0.000  0.000
 1992 312   121    63      0      0    200     0     0   125  0.348  0.371  0.346  0.300  0.307  0.338  0.395  0.388  0.000  0.000
 1992 313   122    60      0      0    200     0     0   125  0.331  0.365  0.344  0.298  0.305  0.335  0.395  0.388  0.000  0.000
 1992 314   123    57      0      0    200     0     0   125  0.313  0.360  0.343  0.297  0.303  0.332  0.395  0.388  0.000  0.000
 1992 315   124    55      0      0    200     0     0   125  0.309  0.356  0.341  0.296  0.302  0.330  0.394  0.388  0.000  0.000
 1992 316   125    56      0      0    204     0     0   125  0.373  0.353  0.340  0.295  0.301  0.327  0.394  0.388  0.000  0.000
 1992 317   126    53      0      0    204     0     0   125  0.345  0.351  0.339  0.293  0.299  0.325  0.394  0.388  0.000  0.000
 1992 318   127    51      0      0    204     0     0   125  0.324  0.348  0.337  0.292  0.298  0.323  0.393  0.387  0.000  0.000
 1992 319   128    48      0      0    204     0     0   125  0.308  0.346  0.336  0.291  0.297  0.321  0.390  0.387  0.000  0.000
 1992 320   129    72      0      0    231     0     0   125  0.549  0.484  0.335  0.290  0.296  0.320  0.384  0.387  0.000  0.000
 1992 321   130    66      0      0    231     0     0   125  0.469  0.468  0.337  0.290  0.296  0.320  0.382  0.387  0.000  0.000
 1992 322   131    61      0      0    231     0     0   125  0.425  0.442  0.339  0.290  0.296  0.319  0.378  0.386  0.000  0.000
 1992 323   132    55      0      0    231     0     0   125  0.392  0.413  0.340  0.290  0.295  0.319  0.371  0.386  0.000  0.000
 1992 324   133    48      0      0    231     0     0   125  0.364  0.393  0.340  0.290  0.295  0.318  0.356  0.386  0.000  0.000
 1992 325   134    44      0      0    231     0     0   125  0.346  0.381  0.339  0.290  0.294  0.317  0.344  0.385  0.000  0.000
 1992 326   135    42      0      0    231     0     0   125  0.341  0.377  0.339  0.290  0.294  0.316  0.341  0.384  0.000  0.000
 1992 327   136    38      0      0    231     0     0   125  0.326  0.368  0.338  0.290  0.293  0.314  0.332  0.384  0.000  0.000
 1992 328   137    34      0      0    231     0     0   125  0.312  0.362  0.337  0.290  0.292  0.312  0.325  0.383  0.000  0.000
 1992 329   138    31      0      0    231     0     0   125  0.295  0.358  0.336  0.290  0.292  0.310  0.320  0.382  0.000  0.000
 1992 330   139    28      0      0    231     0     0   125  0.278  0.354  0.335  0.290  0.292  0.309  0.317  0.381  0.000  0.000
 1992 331   140    26      0      0    231     0     0   125  0.263  0.351  0.334  0.290  0.292  0.307  0.314  0.381  0.000  0.000
 1992 332   141    23      0      0    231     0     0   125  0.240  0.348  0.333  0.290  0.292  0.305  0.311  0.380  0.000  0.000
 1992 333   142    21      0      0    231     0     0   125  0.221  0.346  0.332  0.290  0.292  0.304  0.309  0.379  0.000  0.000
 1992 334   143    20      0      0    231     0     0   125  0.220  0.344  0.331  0.290  0.292  0.302  0.307  0.379  0.000  0.000
 1992 335   144    53      0      0    265     0     0   125  0.568  0.508  0.331  0.290  0.292  0.301  0.305  0.378  0.000  0.000
 1992 336   145    46      0      0    265     0     0   125  0.473  0.488  0.334  0.290  0.292  0.301  0.305  0.377  0.000  0.000
 1992 337   146    40      0      0    265     0     0   125  0.419  0.454  0.336  0.290  0.292  0.300  0.305  0.376  0.000  0.000
 1992 338   147    34      0      0    265     0     0   125  0.384  0.418  0.337  0.290  0.292  0.300  0.305  0.373  0.000  0.000
 1992 339   148    28      0      0    265     0     0   125  0.348  0.385  0.337  0.290  0.292  0.299  0.304  0.366  0.000  0.000
 1992 340   149    24      0      0    265     0     0   125  0.329  0.375  0.336  0.290  0.292  0.298  0.303  0.357  0.000  0.000
 1992 341   150    49      0      0    295     0     0   125  0.539  0.542  0.339  0.290  0.292  0.297  0.301  0.349  0.000  0.000
 1992 342   151    44      0      0    295     0     0   125  0.492  0.510  0.343  0.290  0.292  0.297  0.301  0.348  0.000  0.000
 1992 343   152    38      0      0    295     0     0   125  0.446  0.476  0.346  0.290  0.292  0.297  0.301  0.346  0.000  0.000
 1992 344   153    33      0      0    295     0     0   125  0.408  0.448  0.347  0.290  0.292  0.296  0.301  0.345  0.000  0.000
 1992 345   154    29      0      0    295     0     0   125  0.386  0.413  0.348  0.290  0.292  0.296  0.301  0.343  0.000  0.000
 1992 346   155    23      0      0    295     0     0   125  0.355  0.388  0.347  0.290  0.292  0.296  0.300  0.339  0.000  0.000
 1992 347   156    19      0      0    295     0     0   125  0.323  0.374  0.346  0.290  0.292  0.295  0.298  0.333  0.000  0.000
 1992 348   157    15      0      0    295     0     0   125  0.296  0.367  0.344  0.290  0.292  0.294  0.297  0.329  0.000  0.000
 1992 349   158    12      0      0    295     0     0   125  0.275  0.361  0.342  0.290  0.292  0.293  0.295  0.325  0.000  0.000
 1992 350   159    10      0      0    295     0     0   125  0.257  0.357  0.341  0.290  0.292  0.293  0.294  0.322  0.000  0.000
 1992 351   160     8      0      0    295     0     0   125  0.242  0.353  0.339  0.290  0.292  0.293  0.293  0.320  0.000  0.000
 1992 352   161     6      0      0    295     0     0   125  0.227  0.350  0.338  0.290  0.292  0.293  0.292  0.318  0.000  0.000
 1992 353   162     5      0      0    295     0     0   125  0.220  0.348  0.337  0.290  0.292  0.293  0.291  0.316  0.000  0.000
 1992 354   163     4      0      0    295     0     0   125  0.220  0.345  0.336  0.290  0.292  0.293  0.290  0.314  0.000  0.000
 1992 355   164     3      0      0    295     0     0   125  0.220  0.343  0.335  0.290  0.292  0.293  0.289  0.312  0.000  0.000
 1992 356   165     2      0      0    295     0     0   125  0.220  0.341  0.334  0.290  0.292  0.293  0.288  0.310  0.000  0.000
 1992 357   166     7      0      0    301     0     0   125  0.340  0.340  0.333  0.290  0.292  0.293  0.287  0.309  0.000  0.000
 1992 358   167     6      0      0    301     0     0   125  0.319  0.338  0.332  0.290  0.292  0.293  0.286  0.308  0.000  0.000
 1992 359   168    34      0      0    332     0     0   125  0.516  0.522  0.331  0.290  0.292  0.293  0.286  0.306  0.000  0.000
 1992 360   169    28      0      0    332     0     0   125  0.457  0.494  0.334  0.290  0.292  0.293  0.286  0.306  0.000  0.000
 1992 361   170    22      0      0    332     0     0   125  0.398  0.457  0.336  0.290  0.292  0.293  0.286  0.306  0.000  0.000
 1992 362   171    15      0      0    332     0     0   125  0.348  0.413  0.337  0.290  0.292  0.293  0.286  0.305  0.000  0.000
 1992 363   172    10      0      0    332     0     0   125  0.324  0.375  0.337  0.290  0.292  0.293  0.286  0.304  0.000  0.000
 1992 364   173     8      0      0    332     0     0   125  0.308  0.367  0.336  0.290  0.292  0.293  0.286  0.303  0.000  0.000
 1992 365   174    11      0      0    337     0     0   125  0.391  0.362  0.335  0.290  0.292  0.293  0.286  0.302  0.000  0.000
 1992 366   175    66      0      0    394     0     0   125  0.540  0.566  0.518  0.290  0.292  0.293  0.286  0.301  0.000  0.000
 1993 001   176   136     17      0    483     0     0   125  0.563  0.559  0.564  0.473  0.460  0.325  0.286  0.301  0.000  0.000
 1993 002   177   140     17      0    489     0     0   125  0.547  0.566  0.566  0.468  0.458  0.340  0.286  0.301  0.000  0.000
 1993 003   178   146     17      0    497     0     0   125  0.547  0.567  0.566  0.468  0.458  0.361  0.287  0.301  0.000  0.000
 1993 004   179   159     17      0    514     0     0   125  0.529  0.565  0.565  0.467  0.457  0.410  0.287  0.301  0.000  0.000
 1993 005   180   153     17      0    514     0     0   125  0.479  0.548  0.554  0.453  0.444  0.413  0.304  0.301  0.000  0.000
 1993 006   181   146     17      0    514     0     0   125  0.460  0.524  0.543  0.443  0.435  0.413  0.309  0.301  0.000  0.000
 1993 007   182   143     17      0    514     0     0   125  0.460  0.514  0.536  0.439  0.432  0.413  0.310  0.301  0.000  0.000
 1993 008   183   164     17      0    540     0     0   125  0.534  0.563  0.561  0.466  0.453  0.418  0.311  0.301  0.000  0.000
 1993 009   184   157     17      0    540     0     0   125  0.464  0.546  0.551  0.451  0.441  0.414  0.337  0.301  0.000  0.000
 1993 010   185   150     17      0    540     0     0   125  0.438  0.521  0.541  0.441  0.434  0.414  0.340  0.301  0.000  0.000
 1993 011   186   145     17      0    540     0     0   125  0.439  0.507  0.532  0.436  0.430  0.410  0.340  0.301  0.000  0.000
 1993 012   187   140     17      0    540     0     0   125  0.437  0.498  0.524  0.431  0.426  0.406  0.340  0.301  0.000  0.000
 1993 013   188   136     17      0    540     0     0   125  0.434  0.491  0.517  0.428  0.423  0.402  0.340  0.301  0.000  0.000
 1993 014   189   133     17      0    540     0     0   125  0.432  0.485  0.512  0.425  0.420  0.400  0.340  0.301  0.000  0.000
