*SOIL NITROGEN DAILY OUTPUT FILE

*DSSAT Cropping System Model Ver. 4.0.2.000               Aug 15, 2016; 15:42:04

*RUN   1        : UYMZ                    
 MODEL          : MZCER040 - Maize           
 EXPERIMENT     : UYMZ0203 MZ    late to create DSS                             
 TREATMENT  1   : UYMZ                    

@YEAR DOY   DAS  NAPC  NI#M    NLCC   NIAD    NOAD   NITD   NHTD  NI1D  NI2D  NI3D  NI4D  NI5D  NI6D  NI7D  NI8D  NI9D  NI10  NH1D  NH2D  NH3D  NH4D  NH5D  NH6D  NH7D  NH8D  NH9D  NH10    NMNC    NITC    NDNC    NIMC    AMLC
 1990 196     0     0     0     0.0   99.3   16645   76.5   22.8  16.0  15.3  15.1   8.6   4.6   0.0   0.1   0.1   0.0   0.0   0.6   1.3   1.5   1.4   1.4  1.50  1.46  1.45  0.00  0.00    0.54    1.71    0.00    0.00    0.00
 1990 197     1     0     0     0.0   99.9   16645   77.8   22.0  16.4  15.5  15.3   8.7   4.6   0.0   0.1   0.1   0.0   0.0   0.3   1.2   1.4   1.4   1.4  1.51  1.43  1.41  0.00  0.00    1.09    3.01    0.00    0.00    0.00
 1990 198     2     0     0     0.0  100.4   16644   78.9   21.5  16.1  15.9  15.4   8.8   4.7   0.1   0.1   0.2   0.0   0.0   0.2   1.1   1.4   1.3   1.3  1.51  1.40  1.37  0.00  0.00    1.63    4.12    0.00    0.00    0.00
 1990 199     3     0     0     0.0  100.9   16644   80.0   21.0  15.4  16.5  15.5   8.9   4.8   0.1   0.2   0.2   0.0   0.0   0.1   1.0   1.4   1.3   1.3  1.51  1.36  1.32  0.00  0.00    2.16    5.15    0.00    0.00    0.00
 1990 200     4     0     0     0.0  101.4   16643   80.9   20.5  14.9  16.9  15.7   8.9   4.8   0.1   0.2   0.2   0.0   0.0   0.1   0.9   1.4   1.2   1.3  1.51  1.33  1.28  0.00  0.00    2.65    6.07    0.00    0.00    0.00
 1990 201     5     0     0     0.0  101.9   16643   81.7   20.1  14.8  17.1  15.8   9.0   4.9   0.1   0.3   0.3   0.0   0.0   0.1   0.8   1.4   1.2   1.2  1.52  1.30  1.25  0.00  0.00    3.09    6.90    0.00    0.00    0.00
 1990 202     6     6     2     0.0  108.2   16643   85.5   22.7  20.3  17.2  15.9   9.0   4.9   0.1   0.3   0.3   0.0   0.0   5.4   0.8   1.3   1.2   1.2  1.52  1.28  1.21  0.00  0.00    3.47    7.65    0.00    0.00    0.07
 1990 203     7     6     2     0.0  108.5   16642   87.3   21.2  22.3  17.2  16.0   9.1   5.0   0.1   0.3   0.4   0.0   0.0   3.3   0.7   1.3   1.1   1.2  1.52  1.25  1.18  0.00  0.00    3.82    9.44    0.00    0.00    0.13
 1990 204     8     6     2     0.0  108.7   16642   88.5   20.2  23.4  17.3  16.1   9.1   5.0   0.2   0.4   0.4   0.0   0.0   2.1   0.7   1.3   1.1   1.1  1.52  1.22  1.14  0.00  0.00    4.12   10.65    0.00    0.00    0.20
 1990 205     9     6     2     0.0  108.9   16642   89.4   19.5  24.1  17.3  16.2   9.2   5.0   0.2   0.4   0.4   0.0   0.0   1.3   0.7   1.3   1.1   1.1  1.53  1.20  1.11  0.00  0.00    4.42   11.63    0.00    0.00    0.25
 1990 206    10     6     2     0.0  109.2   16641   90.3   18.9  24.6  17.4  16.3   9.2   5.1   0.2   0.5   0.5   0.0   0.0   0.8   0.6   1.3   1.1   1.1  1.53  1.18  1.08  0.00  0.00    4.76   12.49    0.00    0.00    0.29
 1990 207    11     6     2     0.0  109.5   16641   91.1   18.5  24.9  17.4  16.4   9.3   5.1   0.2   0.5   0.5   0.0   0.0   0.4   0.6   1.2   1.0   1.1  1.53  1.15  1.05  0.00  0.00    5.09   13.24    0.00    0.00    0.33
 1990 208    12     6     2     0.0  109.8   16641   91.7   18.1  25.0  17.5  16.5   9.3   5.2   0.2   0.5   0.5   0.0   0.0   0.2   0.6   1.2   1.0   1.0  1.53  1.13  1.02  0.00  0.00    5.43   13.92    0.00    0.00    0.37
 1990 209    13     6     2     0.0  110.2   16640   92.4   17.8  25.1  17.6  16.5   9.4   5.2   0.2   0.5   0.6   0.0   0.0   0.1   0.6   1.2   1.0   1.0  1.53  1.11  0.99  0.00  0.00    5.81   14.58    0.00    0.00    0.40
 1990 210    14     6     2     0.0  110.5   16640   93.0   17.5  25.2  17.6  16.6   9.4   5.2   0.2   0.6   0.6   0.0   0.0   0.1   0.5   1.2   1.0   1.0  1.54  1.09  0.96  0.00  0.00    6.19   15.19    0.00    0.00    0.43
 1990 211    15     6     2     0.0  110.9   16639   93.6   17.3  25.2  17.7  16.7   9.5   5.3   0.3   0.6   0.6   0.0   0.0   0.0   0.5   1.2   0.9   1.0  1.54  1.07  0.94  0.00  0.00    6.55   15.77    0.00    0.00    0.46
 1990 212    16     6     2     0.0  111.2   16639   94.2   17.1  25.2  17.7  16.8   9.5   5.3   0.3   0.6   0.7   0.0   0.0   0.0   0.5   1.2   0.9   1.0  1.54  1.04  0.91  0.00  0.00    6.94   16.34    0.00    0.00    0.46
 1990 213    17     6     2     0.0  111.6   16639   94.7   16.9  25.2  17.8  16.9   9.5   5.3   0.3   0.7   0.7   0.0   0.0   0.1   0.5   1.2   0.9   0.9  1.54  1.02  0.89  0.00  0.00    7.33   16.92    0.00    0.00    0.46
 1990 214    18     6     2     0.0  112.0   16638   95.3   16.7  25.3  17.9  17.0   9.6   5.4   0.3   0.7   0.7   0.0   0.0   0.1   0.5   1.2   0.9   0.9  1.55  1.01  0.86  0.00  0.00    7.73   17.50    0.00    0.00    0.46
 1990 215    19     6     2     0.0  112.5   16638   95.9   16.5  25.3  17.9  17.1   9.6   5.4   0.3   0.7   0.8   0.0   0.0   0.1   0.5   1.2   0.9   0.9  1.55  0.99  0.84  0.00  0.00    8.16   18.11    0.00    0.00    0.46
 1990 216    20     6     2     0.0  112.9   16637   96.6   16.4  25.4  18.0  17.1   9.7   5.4   0.3   0.8   0.8   0.0   0.0   0.1   0.5   1.2   0.9   0.9  1.55  0.97  0.81  0.00  0.00    8.64   18.75    0.00    0.00    0.47
 1990 217    21     6     2     0.0  113.5   16637   97.2   16.2  25.5  18.1  17.3   9.7   5.5   0.4   0.8   0.8   0.0   0.0   0.1   0.5   1.2   0.8   0.9  1.55  0.95  0.79  0.00  0.00    9.17   19.43    0.00    0.00    0.47
 1990 218    22     6     2     0.0  114.0   16636   98.0   16.1  25.6  18.2  17.4   9.8   5.5   0.4   0.8   0.8   0.0   0.0   0.1   0.5   1.2   0.8   0.8  1.55  0.93  0.77  0.00  0.00    9.75   20.16    0.00    0.00    0.47
 1990 219    23     6     2     0.0  114.7   16636   98.8   15.9  25.7  18.3  17.5   9.8   5.6   0.4   0.9   0.9   0.0   0.0   0.1   0.5   1.2   0.8   0.8  1.56  0.91  0.75  0.00  0.00   10.37   20.94    0.00    0.00    0.47
 1990 220    24     6     2     0.0  115.3   16635   99.6   15.8  25.9  18.4  17.6   9.9   5.6   0.4   0.9   0.9   0.0   0.0   0.1   0.5   1.2   0.8   0.8  1.56  0.89  0.73  0.00  0.00   11.02   21.75    0.00    0.00    0.47
 1990 221    25     6     2     0.0  115.8   16634  100.2   15.6  26.0  18.4  17.7   9.9   5.6   0.4   0.9   0.9   0.0   0.0   0.1   0.5   1.1   0.8   0.8  1.56  0.88  0.70  0.00  0.00   11.70   22.57    0.00    0.00    0.47
 1990 222    26     6     2     0.0  116.5   16634  101.0   15.5  26.2  18.5  17.9  10.0   5.7   0.5   0.9   0.9   0.0   0.0   0.1   0.5   1.1   0.8   0.8  1.56  0.86  0.68  0.00  0.00   12.37   23.39    0.00    0.00    0.47
 1990 223    27     6     2     0.0  117.0   16633  101.8   15.2  26.3  18.6  18.0  10.0   5.7   0.5   1.0   1.0   0.0   0.0   0.0   0.4   1.1   0.7   0.8  1.57  0.84  0.66  0.00  0.00   12.92   24.18    0.00    0.00    0.48
 1990 224    28     6     2     0.0  117.6   16633  102.5   15.0  26.4  18.7  18.1  10.1   5.8   0.5   1.0   1.0   0.0   0.0   0.0   0.4   1.1   0.7   0.8  1.57  0.83  0.65  0.00  0.00   13.48   24.92    0.00    0.00    0.48
 1990 225    29     6     2     0.0  118.1   16632  103.3   14.9  26.5  18.8  18.3  10.1   5.8   0.5   1.0   1.0   0.0   0.0   0.0   0.4   1.1   0.7   0.7  1.57  0.81  0.63  0.00  0.00   14.05   25.65    0.00    0.00    0.48
 1990 226    30     6     2     0.0  118.7   16631  104.0   14.7  26.5  18.8  18.4  10.2   5.8   0.5   1.1   1.0   0.0   0.0   0.0   0.3   1.1   0.7   0.7  1.57  0.80  0.61  0.00  0.00   14.62   26.37    0.00    0.00    0.48
 1990 227    31     6     2     0.0  119.3   16631  104.7   14.6  13.6  25.4  18.5  10.2   5.9   0.6   1.1   1.1   0.0   0.0   0.0   0.3   1.1   0.7   0.7  1.58  0.78  0.59  0.00  0.00   15.20   27.10    0.00    0.00    0.48
 1990 228    32     6     2     0.0  119.9   16630  105.3   14.6  12.7  25.7  18.8  10.3   5.9   0.6   1.1   1.1   0.0   0.0   0.2   0.3   1.1   0.7   0.7  1.58  0.77  0.58  0.00  0.00   15.88   27.77    0.00    0.00    0.48
 1990 229    33     6     2     0.0  120.4   16630  106.0   14.4  12.8  25.5  19.1  10.3   6.0   0.6   1.1   1.1   0.0   0.0   0.1   0.4   1.1   0.7   0.7  1.58  0.75  0.56  0.00  0.00   16.46   28.48    0.00    0.00    0.48
 1990 230    34     6     2     0.0  120.9   16629  106.6   14.3  12.9  25.4  19.3  10.4   6.0   0.6   1.2   1.1   0.0   0.0   0.1   0.4   1.0   0.7   0.7  1.58  0.74  0.55  0.00  0.00   16.99   29.15    0.00    0.00    0.49
 1990 231    35     6     2     0.0  121.2   16629  107.0   14.2  13.0  25.2  19.5  10.4   6.0   0.6   1.2   1.1   0.0   0.0   0.1   0.4   1.0   0.7   0.7  1.59  0.73  0.53  0.00  0.00   17.48   29.76    0.00    0.00    0.49
 1990 232    36     6     2     0.0  121.4   16628  107.4   14.1  13.0  25.1  19.6  10.4   6.0   0.7   1.2   1.2   0.0   0.0   0.1   0.4   1.0   0.7   0.7  1.59  0.72  0.52  0.00  0.00   17.95   30.35    0.00    0.00    0.49
 1990 233    37     6     2     0.0  121.6   16628  107.6   13.9  13.0  24.9  19.7  10.5   6.1   0.7   1.2   1.2   0.0   0.0   0.1   0.4   1.0   0.6   0.7  1.59  0.71  0.51  0.00  0.00   18.43   30.94    0.00    0.00    0.49
 1990 234    38     6     2     0.0  121.7   16627  107.8   13.8  13.1  24.8  19.7  10.5   6.1   0.7   1.2   1.2   0.0   0.0   0.1   0.4   0.9   0.6   0.7  1.59  0.70  0.49  0.00  0.00   18.91   31.54    0.00    0.00    0.50
 1990 235    39     6     2     0.0  121.8   16627  108.1   13.7  13.1  24.7  19.7  10.6   6.1   0.7   1.3   1.2   0.0   0.0   0.1   0.4   0.9   0.6   0.7  1.59  0.68  0.48  0.00  0.00   19.38   32.11    0.00    0.00    0.50
 1990 236    40     6     2     0.0  121.8   16626  108.2   13.6  13.2  24.6  19.7  10.6   6.2   0.7   1.3   1.2   0.0   0.0   0.1   0.4   0.9   0.6   0.6  1.60  0.67  0.47  0.00  0.00   19.82   32.65    0.00    0.00    0.50
 1990 237    41     6     2     0.0  122.2   16626  108.7   13.5  13.2  24.6  19.8  10.6   6.2   0.7   1.3   1.2   0.0   0.0   0.1   0.4   0.9   0.6   0.6  1.60  0.67  0.46  0.00  0.00   20.25   33.17    0.00    0.00    0.50
 1990 238    42     6     2     0.0  122.4   16625  109.0   13.4  13.3  24.6  19.8  10.7   6.2   0.8   1.3   1.3   0.0   0.0   0.1   0.4   0.9   0.6   0.6  1.60  0.66  0.45  0.00  0.00   20.68   33.69    0.00    0.00    0.50
 1990 239    43     6     2     0.0  122.3   16625  109.0   13.3   4.7  21.6  24.5  10.7   6.2   0.8   1.3   1.3   0.0   0.0   0.1   0.4   0.9   0.6   0.6  1.60  0.65  0.44  0.00  0.00   21.12   34.22    0.00    0.00    0.51
 1990 240    44     6     2     0.0  122.3   16624  108.8   13.4   4.5  20.8  24.7  10.8   6.3   0.8   1.4   1.3   0.0   0.0   0.1   0.5   0.9   0.6   0.6  1.60  0.64  0.43  0.00  0.00   21.67   34.65    0.00    0.00    0.51
 1990 241    45     6     2     0.0  122.1   16624  108.6   13.5   4.5  20.3  24.6  11.0   6.3   0.8   1.4   1.3   0.0   0.0   0.1   0.5   0.9   0.6   0.6  1.60  0.63  0.42  0.00  0.00   22.19   35.12    0.00    0.00    0.51
 1990 242    46     6     2     0.0  122.6   16623  109.2   13.4   4.6  20.3  24.6  11.1   6.3   0.8   1.4   1.3   0.0   0.0   0.1   0.5   0.9   0.6   0.6  1.61  0.62  0.41  0.00  0.00   22.71   35.66    0.00    0.00    0.51
 1990 243    47     6     2     0.0  123.1   16623  109.7   13.4   4.8  20.4  24.6  11.3   6.3   0.8   1.4   1.3   0.0   0.0   0.1   0.5   0.9   0.6   0.6  1.61  0.61  0.40  0.00  0.00   23.20   36.18    0.00    0.00    0.52
 1990 244    48     6     2     0.0  123.5   16622  110.1   13.4   5.0  20.3  24.5  11.4   6.4   0.9   1.4   1.3   0.0   0.0   0.1   0.5   0.9   0.6   0.6  1.61  0.61  0.39  0.00  0.00   23.64   36.65    0.00    0.00    0.52
 1990 245    49     6     2     0.0  123.8   16622  110.4   13.3   5.0  20.4  24.4  11.5   6.4   0.9   1.5   1.3   0.0   0.0   0.1   0.5   0.9   0.6   0.6  1.61  0.60  0.38  0.00  0.00   24.04   37.09    0.00    0.00    0.52
 1990 246    50     6     2     0.0  124.1   16622  110.8   13.3   5.2  20.4  24.4  11.6   6.4   0.9   1.5   1.4   0.0   0.0   0.1   0.5   0.9   0.6   0.6  1.61  0.59  0.37  0.00  0.00   24.43   37.53    0.00    0.00    0.52
 1990 247    51     6     2     0.0  124.5   16621  111.3   13.3   5.3  20.4  24.4  11.7   6.4   0.9   1.5   1.4   0.0   0.0   0.1   0.5   1.0   0.6   0.6  1.61  0.58  0.36  0.00  0.00   24.84   37.97    0.00    0.00    0.53
 1990 248    52     6     2     0.0  124.9   16621  111.7   13.2   5.5  20.4  24.4  11.8   6.4   0.9   1.5   1.4   0.0   0.0   0.1   0.5   1.0   0.6   0.6  1.61  0.58  0.36  0.00  0.00   25.23   38.39    0.00    0.00    0.53
 1990 249    53     6     2     0.0  125.1   16620  111.9   13.2   5.7  20.3  24.3  11.9   6.5   0.9   1.5   1.4   0.0   0.0   0.1   0.5   1.0   0.6   0.6  1.62  0.57  0.35  0.00  0.00   25.64   38.83    0.00    0.00    0.53
 1990 250    54     6     2     0.0  125.5   16620  112.3   13.2   5.5  20.5  24.3  11.9   6.5   1.0   1.5   1.4   0.0   0.0   0.1   0.5   1.0   0.6   0.6  1.62  0.57  0.34  0.00  0.00   26.09   39.30    0.00    0.00    0.53
 1990 251    55     6     2     0.0  125.8   16619  112.7   13.2   3.2  18.0  26.5  12.2   6.5   1.0   1.6   1.4   0.0   0.0   0.2   0.5   1.0   0.6   0.6  1.62  0.56  0.34  0.00  0.00   26.57   39.75    0.00    0.00    0.54
 1990 252    56     6     2     0.0  126.2   16619  112.9   13.3   3.2  17.6  25.9  13.0   6.5   1.0   1.6   1.4   0.0   0.0   0.1   0.5   1.0   0.6   0.6  1.62  0.55  0.33  0.00  0.00   27.02   40.09    0.00    0.00    0.54
 1990 253    57     6     2     0.0  126.6   16619  113.1   13.4   3.6  17.3  25.7  13.3   6.6   1.0   1.6   1.4   0.0   0.0   0.1   0.6   1.1   0.6   0.6  1.62  0.55  0.32  0.00  0.00   27.53   40.45    0.00    0.00    0.54
 1990 254    58     6     2     0.0  126.4   16618  113.0   13.4   2.3  14.0  25.0  15.5   7.1   1.0   1.6   1.5   0.0   0.0   0.1   0.6   1.1   0.6   0.6  1.62  0.54  0.32  0.00  0.00   28.08   41.04    0.00    0.00    0.55
 1990 255    59     6     2     0.0  126.2   16617  112.6   13.7   2.3  13.6  24.3  15.3   7.8   1.0   1.6   1.5   0.0   0.0   0.2   0.7   1.2   0.6   0.6  1.62  0.54  0.31  0.00  0.00   28.65   41.31    0.00    0.00    0.55
 1990 256    60     6     2     0.0  126.1   16617  112.2   13.9   2.5  13.3  23.8  15.2   8.2   1.1   1.6   1.5   0.0   0.0   0.1   0.7   1.2   0.6   0.6  1.63  0.53  0.30  0.00  0.00   29.22   41.67    0.00    0.00    0.55
 1990 257    61     6     2     0.0  125.8   16616  111.9   14.0   2.9  13.1  23.4  15.1   8.3   1.2   1.7   1.5   0.0   0.0   0.1   0.7   1.3   0.7   0.6  1.63  0.53  0.30  0.00  0.00   29.77   42.09    0.00    0.00    0.56
 1990 258    62     6     2     0.0  125.8   16616  111.9   13.9   3.4  12.9  23.3  15.0   8.3   1.2   1.7   1.5   0.0   0.0   0.1   0.7   1.3   0.7   0.6  1.63  0.52  0.29  0.00  0.00   30.28   42.64    0.00    0.00    0.56
 1990 259    63     6     2     0.0  125.4   16615  111.5   13.8   3.7  12.7  23.0  15.0   8.3   1.2   1.7   1.5   0.0   0.0   0.1   0.6   1.3   0.7   0.6  1.63  0.52  0.29  0.00  0.00   30.75   43.14    0.01    0.00    0.56
 1990 260    64     6     2     0.0  124.5   16615  110.8   13.8   4.0  12.5  22.5  15.0   8.4   1.2   1.7   1.5   0.0   0.0   0.1   0.6   1.2   0.7   0.6  1.63  0.51  0.28  0.00  0.00   31.21   43.63    0.01    0.00    0.56
 1990 261    65     6     2     0.0  124.2   16614  110.5   13.7   2.2   9.6  21.2  16.2   9.8   1.5   1.7   1.5   0.0   0.0   0.1   0.6   1.2   0.7   0.6  1.63  0.51  0.28  0.00  0.00   31.68   44.18    0.01    0.00    0.57
 1990 262    66     6     2     0.2  123.7   16614  109.7   14.0   2.1   9.3  20.4  15.7   9.9   1.9   1.7   1.5   0.0   0.0   0.2   0.7   1.3   0.7   0.6  1.65  0.50  0.27  0.00  0.00   32.18   44.32    0.01    0.00    0.57
 1990 263    67     6     2     0.4  123.0   16613  108.7   14.3   2.2   9.0  19.8  15.4   9.9   2.0   1.8   1.6   0.0   0.0   0.1   0.7   1.3   0.8   0.6  1.66  0.51  0.27  0.00  0.00   32.71   44.53    0.01    0.00    0.57
 1990 264    68     6     2     0.5  122.6   16613  108.1   14.5   2.4   8.9  19.5  15.2   9.9   2.1   1.8   1.6   0.0   0.0   0.1   0.7   1.4   0.8   0.7  1.67  0.51  0.27  0.00  0.00   33.23   44.84    0.01    0.00    0.58
 1990 265    69     6     2     0.6  123.0   16612  108.5   14.6   2.7   9.0  19.6  15.1   9.9   2.2   1.8   1.6   0.0   0.0   0.1   0.6   1.4   0.8   0.7  1.69  0.52  0.27  0.00  0.00   33.75   45.28    0.01    0.00    0.58
 1990 266    70     6     2     0.6  122.2   16612  107.6   14.6   2.9   8.8  19.1  15.0   9.8   2.2   1.8   1.6   0.0   0.0   0.1   0.6   1.3   0.8   0.7  1.70  0.52  0.27  0.00  0.00   34.28   45.72    0.03    0.00    0.58
 1990 267    71     6     2     0.6  120.5   16611  105.8   14.6   3.1   8.5  18.4  14.8   9.8   2.2   1.8   1.6   0.0   0.0   0.1   0.6   1.3   0.8   0.7  1.72  0.53  0.27  0.00  0.00   34.79   46.13    0.05    0.00    0.59
 1990 268    72     6     2     0.6  120.6   16611  105.9   14.7   3.3   8.5  18.3  14.8   9.9   2.2   1.8   1.6   0.0   0.0   0.1   0.6   1.3   0.8   0.7  1.73  0.53  0.27  0.00  0.00   35.28   46.59    0.05    0.00    0.59
 1990 269    73     6     2     0.6  120.6   16610  105.9   14.7   3.5   8.5  18.2  14.8   9.9   2.2   1.8   1.6   0.0   0.0   0.1   0.6   1.2   0.8   0.7  1.74  0.54  0.27  0.00  0.00   35.77   47.03    0.06    0.00    0.59
 1990 270    74     6     2     0.6  120.1   16610  105.4   14.7   3.7   8.5  17.9  14.8   9.9   2.2   1.8   1.6   0.0   0.0   0.1   0.6   1.2   0.8   0.8  1.75  0.55  0.27  0.00  0.00   36.26   47.47    0.07    0.00    0.59
 1990 271    75     6     2     0.6  118.8   16609  104.1   14.7   3.8   8.3  17.4  14.6   9.9   2.2   1.8   1.6   0.0   0.0   0.1   0.5   1.2   0.8   0.8  1.77  0.55  0.28  0.00  0.00   36.76   47.92    0.08    0.00    0.60
 1990 272    76     6     2     0.6  118.4   16609  103.7   14.7   3.9   8.2  17.1  14.5   9.9   2.2   1.8   1.6   0.0   0.0   0.1   0.5   1.2   0.8   0.8  1.78  0.56  0.28  0.00  0.00   37.30   48.39    0.08    0.00    0.60
 1990 273    77     6     2     0.6  116.4   16608  101.7   14.7   3.9   8.0  16.4  14.3   9.9   2.2   1.8   1.6   0.0   0.0   0.1   0.5   1.1   0.7   0.8  1.80  0.56  0.28  0.00  0.00   37.86   48.89    0.09    0.00    0.60
 1990 274    78     6     2     0.6  114.8   16608  100.0   14.7   4.0   7.7  15.7  14.1   9.9   2.2   1.8   1.6   0.0   0.0   0.1   0.5   1.1   0.7   0.8  1.81  0.57  0.28  0.00  0.00   38.46   49.42    0.09    0.00    0.60
 1990 275    79     6     2     0.6  112.3   16607   97.6   14.7   3.9   7.4  14.9  13.8   9.8   2.2   1.8   1.6   0.0   0.0   0.1   0.5   1.1   0.7   0.8  1.82  0.57  0.28  0.00  0.00   39.08   50.04    0.10    0.00    0.61
 1990 276    80     6     2     0.6  109.4   16606   94.8   14.6   3.8   7.0  13.9  13.5   9.8   2.3   1.8   1.6   0.0   0.0   0.1   0.5   1.0   0.7   0.8  1.84  0.58  0.28  0.00  0.00   39.70   50.65    0.10    0.00    0.61
 1990 277    81     6     2     0.6  106.4   16606   91.9   14.5   3.7   6.7  13.0  13.1   9.6   2.3   1.8   1.6   0.0   0.0   0.1   0.4   1.0   0.7   0.8  1.85  0.58  0.28  0.00  0.00   40.34   51.28    0.10    0.00    0.61
 1990 278    82     6     2     0.6  102.9   16605   88.5   14.4   3.6   6.3  12.0  12.7   9.4   2.3   1.9   1.6   0.0   0.0   0.1   0.4   0.9   0.7   0.7  1.87  0.59  0.28  0.00  0.00   40.99   51.94    0.11    0.00    0.61
 1990 279    83     6     2     0.6  101.6   16604   87.2   14.4   2.0   6.5  11.8  12.5   9.3   2.3   1.9   1.6   0.0   0.0   0.1   0.4   0.9   0.7   0.7  1.88  0.59  0.28  0.00  0.00   41.62   52.54    0.11    0.00    0.62
 1990 280    84     6     2     0.6   98.9   16604   84.3   14.5   1.6   5.9  11.2  12.1   9.1   2.3   1.9   1.6   0.0   0.0   0.2   0.5   0.9   0.6   0.7  1.90  0.60  0.28  0.00  0.00   42.29   52.96    0.11    0.00    0.62
 1990 281    85     6     2     0.6   97.0   16603   82.3   14.7   0.7   3.6   8.9  11.5  10.3   3.1   2.0   1.7   0.0   0.0   0.3   0.6   0.9   0.6   0.7  1.91  0.60  0.28  0.00  0.00   42.96   53.39    0.11    0.00    0.62
 1990 282    86     6     2     1.3   93.8   16603   78.7   15.1   0.6   3.1   8.1  10.6   9.7   3.3   2.1   1.7   0.0   0.0   0.3   0.7   1.0   0.7   0.7  1.93  0.61  0.28  0.00  0.00   43.59   53.53    0.17    0.00    0.63
 1990 283    87     6     2     1.6   89.3   16602   74.1   15.2   0.9   2.7   7.0   9.8   9.1   3.4   2.2   1.7   0.0   0.0   0.1   0.7   1.0   0.7   0.7  1.94  0.61  0.29  0.00  0.00   44.20   53.85    0.20    0.00    0.63
 1990 284    88     6     2     1.7   86.2   16601   71.0   15.2   0.9   2.5   6.3   9.3   8.7   3.4   2.2   1.7   0.0   0.0   0.1   0.7   0.9   0.7   0.7  1.95  0.62  0.29  0.00  0.00   44.81   54.34    0.22    0.00    0.64
 1990 285    89     6     2     1.8   84.5   16601   69.3   15.2   0.5   1.7   4.9   8.0   8.7   4.1   2.5   1.8   0.0   0.0   0.1   0.6   0.9   0.7   0.8  1.96  0.63  0.29  0.00  0.00   45.42   54.80    0.23    0.00    0.64
 1990 286    90     6     2     2.5   78.5   16600   63.2   15.3   0.3   1.4   3.8   6.9   7.8   4.1   2.6   1.9   0.0   0.0   0.2   0.7   0.9   0.7   0.8  1.96  0.63  0.29  0.00  0.00   46.02   54.92    0.44    0.00    0.64
 1990 287    91     6     2     2.9   74.6   16600   59.5   15.1   0.5   1.3   3.2   6.3   7.2   4.0   2.6   1.9   0.0   0.0   0.1   0.6   0.9   0.7   0.8  1.95  0.64  0.29  0.00  0.00   46.63   55.41    0.54    0.00    0.65
 1990 288    92     6     2     3.1   70.7   16599   55.9   14.8   0.5   1.1   2.6   5.9   6.6   3.8   2.6   1.9   0.0   0.0   0.1   0.6   0.8   0.7   0.8  1.91  0.64  0.29  0.00  0.00   47.24   55.91    0.58    0.00    0.65
 1990 289    93     6     2     3.2   67.0   16598   52.5   14.4   0.5   1.0   2.1   5.4   6.2   3.6   2.6   1.9   0.0   0.0   0.1   0.5   0.8   0.7   0.7  1.86  0.65  0.29  0.00  0.00   47.85   56.44    0.59    0.00    0.66
 1990 290    94     6     2     3.2   63.6   16598   49.5   14.1   0.5   0.9   1.7   5.0   5.8   3.4   2.6   1.9   0.0   0.0   0.1   0.5   0.8   0.7   0.7  1.81  0.65  0.29  0.00  0.00   48.45   56.96    0.60    0.00    0.66
 1990 291    95     6     2     3.2   62.1   16597   48.2   13.9   0.6   0.9   1.6   4.8   5.6   3.3   2.6   1.9   0.0   0.0   0.1   0.5   0.8   0.6   0.7  1.78  0.66  0.29  0.00  0.00   49.05   57.46    0.61    0.00    0.66
 1990 292    96     6     2     3.2   56.7   16597   43.4   13.3   0.4   0.7   1.1   4.2   4.9   3.0   2.6   1.9   0.0   0.0   0.1   0.5   0.7   0.6   0.7  1.68  0.66  0.29  0.00  0.00   49.67   57.97    0.61    0.00    0.66
 1990 293    97     6     2     3.2   53.0   16596   40.1   12.9   0.3   0.6   0.8   3.8   4.5   2.8   2.6   1.9   0.0   0.0   0.2   0.5   0.7   0.6   0.6  1.59  0.67  0.29  0.00  0.00   50.29   58.41    0.62    0.00    0.67
 1990 294    98     6     2     3.2   48.7   16595   36.3   12.4   0.5   0.5   0.6   3.2   3.9   2.5   2.6   1.9   0.0   0.0   0.1   0.6   0.7   0.6   0.6  1.49  0.67  0.30  0.00  0.00   50.93   58.86    0.62    0.00    0.67
 1990 295    99     6     2     3.2   43.3   16595   31.7   11.6   0.4   0.4   0.3   2.6   3.2   2.1   2.6   1.9   0.0   0.0   0.1   0.5   0.6   0.6   0.6  1.34  0.68  0.30  0.00  0.00   51.59   59.44    0.62    0.00    0.67
 1990 296   100     6     2     3.2   38.7   16594   27.7   10.9   0.4   0.4   0.3   2.0   2.5   1.8   2.6   1.9   0.0   0.0   0.1   0.5   0.6   0.5   0.6  1.20  0.68  0.30  0.00  0.00   52.26   60.01    0.62    0.00    0.68
 1990 297   101     6     2     3.2   35.0   16593   24.7   10.4   0.4   0.4   0.3   1.5   2.0   1.5   2.6   1.9   0.0   0.0   0.1   0.5   0.6   0.5   0.5  1.08  0.69  0.30  0.00  0.00   52.93   60.55    0.62    0.00    0.68
 1990 298   102     6     2     3.2   32.2   16593   22.2   10.0   0.4   0.4   0.3   1.2   1.5   1.2   2.6   1.9   0.0   0.0   0.1   0.5   0.6   0.5   0.5  0.99  0.69  0.30  0.00  0.00   53.59   61.08    0.63    0.00    0.68
 1990 299   103     6     2     3.2   29.9   16592   20.3    9.6   0.4   0.4   0.3   0.9   1.2   1.0   2.6   2.0   0.0   0.0   0.1   0.5   0.6   0.5   0.5  0.91  0.69  0.30  0.00  0.00   54.23   61.60    0.63    0.00    0.68
 1990 300   104     6     2     3.2   28.2   16592   18.9    9.3   0.4   0.4   0.3   0.7   1.0   0.8   2.6   2.0   0.0   0.0   0.1   0.5   0.6   0.5   0.5  0.85  0.70  0.30  0.00  0.00   54.86   62.13    0.63    0.00    0.69
 1990 301   105     6     2     3.2   26.8   16591   17.7    9.1   0.4   0.4   0.3   0.6   0.8   0.7   2.7   2.0   0.0   0.0   0.1   0.5   0.6   0.5   0.5  0.80  0.70  0.30  0.00  0.00   55.49   62.66    0.63    0.00    0.69
 1990 302   106     6     2     3.2   25.6   16590   16.7    8.9   0.4   0.4   0.3   0.5   0.6   0.6   2.7   2.0   0.0   0.0   0.1   0.5   0.6   0.5   0.5  0.75  0.71  0.30  0.00  0.00   56.11   63.18    0.63    0.00    0.69
 1990 303   107     6     2     3.2   24.8   16590   16.0    8.8   0.1   0.4   0.4   0.4   0.5   0.5   2.7   2.0   0.0   0.0   0.2   0.4   0.6   0.5   0.5  0.72  0.71  0.30  0.00  0.00   56.73   63.64    0.63    0.00    0.69
 1990 304   108     6     2     3.2   24.2   16589   15.4    8.8   0.4   0.3   0.3   0.3   0.4   0.4   2.7   2.0   0.0   0.0   0.1   0.6   0.6   0.5   0.5  0.69  0.71  0.30  0.00  0.00   57.44   64.14    0.64    0.00    0.70
 1990 305   109     6     2     3.2   23.7   16588   15.0    8.7   0.3   0.4   0.3   0.3   0.4   0.3   2.7   2.0   0.0   0.0   0.1   0.5   0.6   0.5   0.5  0.67  0.72  0.30  0.00  0.00   58.15   64.69    0.64    0.00    0.70
 1990 306   110     6     2     3.2   23.3   16588   14.7    8.6   0.3   0.4   0.3   0.3   0.3   0.3   2.7   2.0   0.0   0.0   0.2   0.5   0.6   0.5   0.5  0.66  0.72  0.30  0.00  0.00   58.83   65.16    0.64    0.00    0.70
 1990 307   111     6     2     3.2   23.1   16587   14.7    8.4   0.6   0.4   0.3   0.3   0.3   0.3   2.7   2.0   0.0   0.0   0.1   0.5   0.6   0.5   0.5  0.64  0.71  0.30  0.00  0.00   59.52   65.83    0.64    0.00    0.70
 1990 308   112     6     2     3.2   23.0   16586   14.6    8.4   0.1   0.4   0.4   0.3   0.3   0.3   2.7   2.0   0.0   0.0   0.1   0.5   0.6   0.5   0.5  0.63  0.70  0.30  0.00  0.00   60.20   66.39    0.64    0.00    0.70
 1990 309   113     6     2     3.2   22.7   16586   14.1    8.6   0.1   0.3   0.3   0.3   0.3   0.3   2.7   2.0   0.0   0.0   0.2   0.6   0.7   0.5   0.5  0.62  0.68  0.31  0.00  0.00   60.89   66.67    0.64    0.00    0.71
 1990 310   114     6     2     3.2   22.0   16585   13.7    8.4   0.3   0.4   0.3   0.3   0.3   0.3   2.4   2.0   0.0   0.0   0.1   0.5   0.7   0.5   0.5  0.61  0.65  0.31  0.00  0.00   61.56   67.23    0.64    0.00    0.71
 1990 311   115     6     2     3.2   21.2   16584   13.0    8.2   0.4   0.4   0.3   0.3   0.3   0.3   2.1   2.0   0.0   0.0   0.1   0.5   0.6   0.5   0.5  0.60  0.62  0.31  0.00  0.00   62.20   67.75    0.64    0.00    0.71
 1990 312   116     6     2     3.2   20.5   16584   12.4    8.1   0.3   0.4   0.3   0.3   0.3   0.3   1.8   2.0   0.0   0.0   0.2   0.5   0.6   0.5   0.5  0.60  0.60  0.31  0.00  0.00   62.83   68.19    0.64    0.00    0.71
 1990 313   117     6     2     3.2   19.9   16583   11.9    8.0   0.4   0.4   0.3   0.3   0.3   0.3   1.6   2.0   0.0   0.0   0.1   0.5   0.6   0.5   0.5  0.59  0.58  0.31  0.00  0.00   63.41   68.69    0.64    0.00    0.71
 1990 314   118     6     2     3.2   19.3   16583   11.4    7.9   0.4   0.4   0.3   0.3   0.3   0.3   1.4   2.0   0.0   0.0   0.1   0.5   0.6   0.5   0.5  0.58  0.56  0.31  0.00  0.00   63.99   69.15    0.64    0.00    0.72
 1990 315   119     6     2     3.2   18.9   16582   11.0    7.9   0.4   0.4   0.3   0.3   0.3   0.3   1.3   2.0   0.0   0.0   0.1   0.5   0.6   0.5   0.5  0.58  0.55  0.31  0.00  0.00   64.59   69.62    0.64    0.00    0.72
 1990 316   120     6     2     3.2   18.5   16582   10.7    7.8   0.4   0.4   0.3   0.3   0.3   0.3   1.1   2.0   0.0   0.0   0.1   0.5   0.6   0.5   0.5  0.58  0.54  0.31  0.00  0.00   65.21   70.11    0.64    0.00    0.72
 1990 317   121     6     2     3.2   18.2   16581   10.4    7.8   0.4   0.4   0.3   0.3   0.3   0.3   1.0   2.0   0.0   0.0   0.1   0.5   0.6   0.5   0.5  0.57  0.53  0.31  0.00  0.00   65.83   70.60    0.64    0.00    0.72
 1990 318   122     6     2     3.2   17.9   16580   10.2    7.7   0.4   0.4   0.3   0.3   0.3   0.3   0.9   2.0   0.0   0.0   0.1   0.5   0.6   0.5   0.5  0.57  0.52  0.30  0.00  0.00   66.53   71.19    0.64    0.00    0.72
 1990 319   123     6     2     3.2   17.7   16580   10.1    7.6   0.4   0.4   0.3   0.3   0.3   0.3   0.8   2.0   0.0   0.0   0.1   0.5   0.6   0.5   0.4  0.57  0.51  0.30  0.00  0.00   67.26   71.83    0.64    0.00    0.73
 1990 320   124     6     2     3.2   17.5   16579    9.9    7.6   0.1   0.3   0.4   0.3   0.4   0.3   0.7   2.0   0.0   0.0   0.1   0.5   0.6   0.5   0.4  0.57  0.50  0.29  0.00  0.00   67.99   72.45    0.64    0.00    0.73
 1990 321   125     6     2     3.2   17.4   16578    9.3    8.1   0.2   0.3   0.3   0.3   0.3   0.3   0.6   2.1   0.0   0.0   0.2   0.6   0.7   0.5   0.5  0.57  0.50  0.29  0.00  0.00   68.74   72.62    0.64    0.00    0.73
 1990 322   126     6     2     3.2   17.5   16578    9.3    8.1   0.5   0.3   0.3   0.3   0.3   0.3   0.6   2.1   0.0   0.0   0.1   0.7   0.7   0.6   0.5  0.57  0.49  0.28  0.00  0.00   69.51   73.02    0.64    0.00    0.73
 1990 323   127     6     2     3.2   17.3   16577    9.5    7.8   0.3   0.5   0.3   0.3   0.3   0.3   0.5   2.1   0.0   0.0   0.1   0.5   0.6   0.6   0.5  0.57  0.48  0.28  0.00  0.00   70.27   73.66    0.64    0.00    0.73
 1990 324   128     6     2     3.2   17.1   16576    9.4    7.7   0.4   0.4   0.3   0.3   0.3   0.3   0.5   2.1   0.0   0.0   0.1   0.5   0.6   0.5   0.5  0.57  0.48  0.27  0.00  0.00   71.02   74.30    0.64    0.00    0.74
 1990 325   129     6     2     3.2   16.9   16575    9.2    7.7   0.4   0.4   0.3   0.3   0.3   0.3   0.4   2.0   0.0   0.0   0.1   0.5   0.6   0.5   0.5  0.57  0.47  0.27  0.00  0.00   71.80   74.92    0.64    0.00    0.74
 1990 326   130     6     2     3.2   16.6   16575    9.0    7.6   0.4   0.4   0.3   0.3   0.3   0.3   0.4   2.0   0.0   0.0   0.1   0.5   0.6   0.5   0.5  0.57  0.47  0.26  0.00  0.00   72.62   75.60    0.64    0.00    0.74
 1990 327   131     6     2     3.2   16.3   16574    8.7    7.6   0.4   0.4   0.3   0.3   0.3   0.3   0.3   1.9   0.0   0.0   0.1   0.5   0.6   0.5   0.5  0.57  0.46  0.26  0.00  0.00   73.44   76.28    0.64    0.00    0.74
 1990 328   132     6     2     3.2   15.9   16573    8.3    7.6   0.4   0.4   0.3   0.3   0.3   0.3   0.3   1.8   0.0   0.0   0.1   0.5   0.6   0.5   0.5  0.57  0.45  0.25  0.00  0.00   74.26   76.95    0.64    0.00    0.75
 1990 329   133     6     2     3.2   15.5   16572    8.0    7.5   0.4   0.4   0.3   0.3   0.3   0.3   0.3   1.7   0.0   0.0   0.1   0.5   0.6   0.5   0.5  0.57  0.45  0.25  0.00  0.00   75.03   77.58    0.64    0.00    0.75
 1990 330   134     6     2     3.2   15.2   16572    7.7    7.5   0.3   0.4   0.4   0.3   0.3   0.3   0.3   1.6   0.0   0.0   0.1   0.5   0.6   0.5   0.5  0.57  0.44  0.24  0.00  0.00   75.79   78.22    0.64    0.00    0.75
 1990 331   135     6     2     3.2   14.9   16571    7.3    7.6   0.3   0.3   0.3   0.3   0.3   0.3   0.3   1.5   0.0   0.0   0.2   0.6   0.6   0.5   0.5  0.57  0.44  0.24  0.00  0.00   76.54   78.62    0.64    0.00    0.75
 1990 332   136     6     2     3.2   14.8   16570    7.4    7.4   0.6   0.4   0.3   0.3   0.3   0.3   0.3   1.4   0.0   0.0   0.1   0.5   0.6   0.5   0.5  0.57  0.43  0.24  0.00  0.00   77.26   79.35    0.64    0.00    0.76
 1990 333   137     6     2     3.2   14.4   16570    7.0    7.4   0.3   0.4   0.3   0.3   0.3   0.3   0.3   1.3   0.0   0.0   0.1   0.5   0.6   0.5   0.5  0.57  0.43  0.23  0.00  0.00   77.95   79.89    0.64    0.00    0.76
 1990 334   138     6     2     3.2   14.2   16569    6.8    7.3   0.4   0.4   0.3   0.3   0.3   0.3   0.3   1.2   0.0   0.0   0.1   0.5   0.6   0.5   0.5  0.56  0.42  0.23  0.00  0.00   78.62   80.46    0.64    0.00    0.76
 1990 335   139     6     2     3.2   13.9   16568    6.6    7.3   0.4   0.4   0.3   0.3   0.3   0.3   0.3   1.2   0.0   0.0   0.1   0.5   0.6   0.5   0.5  0.56  0.41  0.23  0.00  0.00   79.28   81.01    0.64    0.00    0.76
 1990 336   140     6     2     3.2   13.7   16568    6.5    7.2   0.4   0.4   0.3   0.3   0.3   0.3   0.3   1.1   0.0   0.0   0.1   0.5   0.6   0.5   0.5  0.56  0.41  0.22  0.00  0.00   79.93   81.56    0.64    0.00    0.77
 1990 337   141     6     2     3.2   13.5   16567    6.3    7.2   0.3   0.4   0.3   0.3   0.3   0.3   0.3   1.0   0.0   0.0   0.1   0.5   0.6   0.5   0.5  0.56  0.40  0.22  0.00  0.00   80.57   82.11    0.64    0.00    0.77
 1990 338   142     6     2     3.2   13.3   16567    6.1    7.2   0.3   0.4   0.3   0.3   0.3   0.3   0.3   1.0   0.0   0.0   0.2   0.5   0.6   0.5   0.5  0.56  0.40  0.21  0.00  0.00   81.19   82.59    0.64    0.00    0.77
 1990 339   143     6     2     3.2   13.2   16566    6.1    7.1   0.5   0.4   0.3   0.3   0.3   0.3   0.3   0.9   0.0   0.0   0.1   0.5   0.6   0.5   0.5  0.56  0.39  0.21  0.00  0.00   81.81   83.20    0.64    0.00    0.77
 1990 340   144     6     2     3.2   13.0   16565    5.9    7.0   0.0   0.3   0.4   0.4   0.3   0.3   0.3   0.9   0.0   0.0   0.1   0.5   0.6   0.5   0.5  0.55  0.39  0.21  0.00  0.00   82.44   83.74    0.64    0.00    0.78
 1990 341   145     6     2     3.2   12.9   16565    5.4    7.4   0.0   0.1   0.2   0.2   0.3   0.3   0.3   0.8   0.0   0.0   0.2   0.6   0.7   0.5   0.5  0.55  0.38  0.20  0.00  0.00   83.13   83.95    0.64    0.00    0.78
 1990 342   146     6     2     3.2   13.0   16564    5.1    7.9   0.1   0.1   0.2   0.2   0.2   0.3   0.3   0.8   0.0   0.0   0.3   0.7   0.7   0.6   0.5  0.57  0.39  0.20  0.00  0.00   83.87   84.10    0.64    0.00    0.78
 1990 343   147     6     2     3.3   13.0   16563    5.1    7.8   0.6   0.2   0.2   0.2   0.3   0.2   0.3   0.7   0.0   0.0   0.0   0.7   0.7   0.6   0.5  0.57  0.39  0.20  0.00  0.00   84.64   84.53    0.64    0.00    0.78
 1990 344   148     6     2     4.0   12.3   16563    4.5    7.7   0.0   0.3   0.2   0.2   0.2   0.3   0.3   0.6   0.0   0.0   0.1   0.5   0.7   0.6   0.5  0.58  0.38  0.19  0.00  0.00   85.37   84.90    0.64    0.00    0.79
 1990 345   149     6     2     4.2   12.3   16562    4.2    8.1   0.0   0.3   0.2   0.2   0.2   0.2   0.2   0.5   0.0   0.0   0.2   0.6   0.8   0.6   0.6  0.59  0.39  0.20  0.00  0.00   86.02   84.98    0.65    0.00    0.79
 1990 346   150     6     2     4.3   12.4   16561    4.2    8.1   0.3   0.3   0.2   0.2   0.2   0.2   0.2   0.4   0.0   0.0   0.1   0.7   0.7   0.6   0.6  0.59  0.40  0.20  0.00  0.00   86.68   85.23    0.65    0.00    0.79
 1990 347   151     6     2     4.3   12.4   16561    4.3    8.1   0.4   0.3   0.2   0.2   0.2   0.2   0.2   0.4   0.0   0.0   0.1   0.7   0.7   0.6   0.6  0.59  0.40  0.20  0.00  0.00   87.32   85.42    0.66    0.00    0.79
 1990 348   152     6     2     4.3   12.4   16560    4.6    7.9   0.4   0.4   0.3   0.2   0.3   0.2   0.3   0.4   0.0   0.0   0.1   0.5   0.6   0.6   0.6  0.59  0.40  0.20  0.00  0.00   87.96   85.85    0.66    0.00    0.80
 1990 349   153     6     2     4.3   12.3   16560    4.7    7.7   0.4   0.4   0.3   0.3   0.3   0.3   0.3   0.3   0.0   0.0   0.1   0.5   0.6   0.6   0.6  0.59  0.40  0.20  0.00  0.00   88.61   86.37    0.66    0.00    0.80
 1990 350   154     6     2     4.3   12.2   16559    4.7    7.6   0.4   0.4   0.3   0.3   0.3   0.3   0.3   0.3   0.0   0.0   0.1   0.5   0.6   0.6   0.6  0.59  0.40  0.20  0.00  0.00   89.31   86.91    0.66    0.00    0.80
 1990 351   155     6     2     4.3   12.2   16558    4.7    7.5   0.4   0.4   0.3   0.3   0.3   0.3   0.3   0.3   0.0   0.0   0.1   0.5   0.6   0.6   0.5  0.59  0.40  0.20  0.00  0.00   90.03   87.48    0.66    0.00    0.80
 1990 352   156     6     2     4.3   12.1   16558    4.7    7.4   0.2   0.3   0.3   0.3   0.3   0.3   0.3   0.3   0.0   0.0   0.1   0.5   0.6   0.5   0.5  0.59  0.39  0.19  0.00  0.00   90.80   88.08    0.66    0.00    0.81
 1990 353   157     6     2     4.3   12.1   16557    4.2    7.9   0.2   0.3   0.3   0.3   0.3   0.3   0.3   0.3   0.0   0.0   0.2   0.6   0.7   0.6   0.6  0.58  0.39  0.19  0.00  0.00   91.58   88.25    0.66    0.00    0.81
 1990 354   158     6     2     4.3   12.4   16556    4.4    8.0   0.6   0.3   0.3   0.3   0.3   0.3   0.3   0.3   0.0   0.0   0.0   0.7   0.7   0.6   0.6  0.59  0.39  0.19  0.00  0.00   92.39   88.64    0.66    0.00    0.81
 1990 355   159     6     2     4.3   12.3   16555    4.6    7.7   0.3   0.5   0.3   0.3   0.3   0.3   0.3   0.3   0.0   0.0   0.1   0.5   0.6   0.6   0.6  0.59  0.39  0.18  0.00  0.00   93.20   89.21    0.66    0.00    0.82
 1990 356   160     6     2     4.3   12.2   16555    4.7    7.6   0.3   0.3   0.4   0.3   0.3   0.3   0.3   0.3   0.0   0.0   0.1   0.5   0.6   0.6   0.6  0.59  0.39  0.18  0.00  0.00   94.02   89.89    0.66    0.00    0.82
 1990 357   161     6     2     4.3   12.2   16554    4.2    8.0   0.3   0.3   0.3   0.3   0.3   0.3   0.3   0.3   0.0   0.0   0.2   0.6   0.7   0.6   0.6  0.59  0.39  0.18  0.00  0.00   94.79   90.02    0.66    0.00    0.82
 1990 358   162     6     2     4.3   12.5   16553    4.4    8.1   0.5   0.3   0.3   0.3   0.3   0.3   0.3   0.3   0.0   0.0   0.1   0.7   0.7   0.6   0.6  0.59  0.39  0.18  0.00  0.00   95.60   90.39    0.66    0.00    0.82
 1990 359   163     6     2     4.4   12.5   16553    4.1    8.5   0.3   0.3   0.3   0.3   0.2   0.2   0.3   0.3   0.0   0.0   0.2   0.7   0.8   0.6   0.6  0.60  0.40  0.18  0.00  0.00   96.37   90.51    0.66    0.00    0.83
 1990 360   164     6     2     4.4   12.7   16552    4.3    8.4   0.5   0.3   0.3   0.3   0.3   0.3   0.3   0.3   0.0   0.0   0.1   0.7   0.8   0.6   0.6  0.59  0.40  0.17  0.00  0.00   97.16   90.86    0.66    0.00    0.83
 1990 361   165     6     2     4.4   12.6   16551    4.5    8.1   0.4   0.5   0.3   0.3   0.3   0.3   0.3   0.3   0.0   0.0   0.1   0.5   0.7   0.6   0.6  0.59  0.40  0.17  0.00  0.00   97.96   91.35    0.66    0.00    0.83
 1990 362   166     6     2     4.4   12.4   16550    4.7    7.7   0.4   0.4   0.3   0.3   0.3   0.3   0.3   0.3   0.0   0.0   0.1   0.5   0.6   0.6   0.6  0.59  0.40  0.17  0.00  0.00   98.80   92.07    0.66    0.00    0.84
 1990 363   167     6     2     4.4   12.2   16550    4.6    7.6   0.4   0.4   0.3   0.3   0.3   0.3   0.3   0.3   0.0   0.0   0.1   0.5   0.6   0.6   0.6  0.59  0.40  0.17  0.00  0.00   99.61   92.71    0.66    0.00    0.84
 1990 364   168     6     2     4.4   12.1   16549    4.6    7.5   0.4   0.4   0.3   0.3   0.3   0.3   0.3   0.3   0.0   0.0   0.1   0.5   0.6   0.6   0.6  0.59  0.40  0.17  0.00  0.00  100.42   93.34    0.66    0.00    0.84
 1990 365   169     6     2     4.4   12.1   16548    4.6    7.4   0.4   0.4   0.3   0.3   0.3   0.3   0.3   0.3   0.0   0.0   0.1   0.5   0.6   0.6   0.6  0.59  0.40  0.17  0.00  0.00  101.23   93.97    0.66    0.00    0.84
 1991 001   170     6     2     4.4   12.0   16548    4.6    7.4   0.4   0.4   0.3   0.3   0.3   0.3   0.3   0.3   0.0   0.0   0.1   0.5   0.6   0.5   0.5  0.59  0.40  0.17  0.00  0.00  102.03   94.58    0.66    0.00    0.85
 1991 002   171     6     2     4.4   12.0   16547    4.6    7.4   0.4   0.4   0.3   0.3   0.3   0.3   0.3   0.3   0.0   0.0   0.1   0.5   0.6   0.5   0.5  0.59  0.40  0.17  0.00  0.00  102.81   95.18    0.66    0.00    0.85
 1991 003   172     6     2     4.4   12.0   16546    4.6    7.3   0.4   0.4   0.3   0.3   0.3   0.3   0.3   0.3   0.0   0.0   0.1   0.5   0.6   0.5   0.5  0.59  0.40  0.16  0.00  0.00  103.62   95.81    0.66    0.00    0.85
 1991 004   173     6     2     4.4   11.9   16546    4.6    7.3   0.4   0.4   0.3   0.3   0.3   0.3   0.3   0.3   0.0   0.0   0.1   0.4   0.6   0.5   0.5  0.59  0.40  0.16  0.00  0.00  104.45   96.46    0.66    0.00    0.85
 1991 005   174     6     2     4.4   11.9   16545    4.6    7.2   0.4   0.4   0.3   0.3   0.3   0.3   0.3   0.3   0.0   0.0   0.1   0.4   0.6   0.5   0.5  0.59  0.39  0.16  0.00  0.00  105.26   97.11    0.66    0.00    0.86
 1991 006   175     6     2     4.4   11.8   16544    4.6    7.2   0.4   0.4   0.3   0.3   0.3   0.3   0.3   0.3   0.0   0.0   0.1   0.4   0.6   0.5   0.5  0.59  0.39  0.16  0.00  0.00  106.04   97.74    0.66    0.00    0.86
 1991 007   176     6     2     4.4   11.7   16543    4.6    7.1   0.4   0.4   0.3   0.3   0.3   0.3   0.3   0.3   0.0   0.0   0.1   0.4   0.6   0.5   0.5  0.59  0.39  0.16  0.00  0.00  106.79   98.36    0.66    0.00    0.86
 1991 008   177     6     2     4.4   12.5   16543    5.2    7.2   0.5   0.5   0.4   0.3   0.3   0.3   0.3   0.3   0.0   0.0   0.1   0.4   0.6   0.5   0.5  0.60  0.39  0.16  0.00  0.00  107.52   98.99    0.66    0.00    0.86
 1991 009   178     6     2     4.4   13.2   16542    5.9    7.3   0.7   0.7   0.5   0.4   0.4   0.3   0.3   0.3   0.0   0.0   0.1   0.3   0.7   0.5   0.5  0.62  0.39  0.16  0.00  0.00  108.25   99.64    0.66    0.00    0.86

*DSSAT Cropping System Model Ver. 4.0.2.000               Aug 15, 2016; 15:42:04

*RUN   2        : UYMZ                    
 MODEL          : MZCER040 - Maize           
 EXPERIMENT     : UYMZ0203 MZ    late to create DSS                             
 TREATMENT  1   : UYMZ                    

@YEAR DOY   DAS  NAPC  NI#M    NLCC   NIAD    NOAD   NITD   NHTD  NI1D  NI2D  NI3D  NI4D  NI5D  NI6D  NI7D  NI8D  NI9D  NI10  NH1D  NH2D  NH3D  NH4D  NH5D  NH6D  NH7D  NH8D  NH9D  NH10    NMNC    NITC    NDNC    NIMC    AMLC
 1991 196     0     0     0     0.0   99.1   16646   75.9   23.2  15.5  15.1  15.1   8.6   4.6   0.0   0.1   0.1   0.0   0.0   1.0   1.4   1.5   1.5   1.5  1.50  1.47  1.46  0.00  0.00    0.32    1.10    0.00    0.00    0.00
 1991 197     1     0     0     0.0   99.4   16645   76.9   22.5  15.9  15.3  15.2   8.6   4.6   0.0   0.1   0.1   0.0   0.0   0.7   1.3   1.4   1.4   1.4  1.50  1.44  1.41  0.00  0.00    0.64    2.10    0.00    0.00    0.00
 1991 198     2     0     0     0.0   99.8   16645   77.9   21.9  16.1  15.4  15.3   8.7   4.7   0.1   0.1   0.1   0.0   0.0   0.4   1.2   1.4   1.4   1.4  1.51  1.41  1.37  0.00  0.00    1.00    3.04    0.00    0.00    0.00
 1991 199     3     0     0     0.0  100.2   16645   78.8   21.4   4.4  12.6  20.5   9.5   4.7   0.1   0.2   0.2   0.0   0.0   0.3   1.1   1.4   1.3   1.3  1.51  1.37  1.33  0.00  0.00    1.41    4.00    0.00    0.00    0.00
 1991 200     4     0     0     0.0  100.6   16644   79.4   21.2   3.5  11.6  19.8  11.1   4.8   0.1   0.2   0.2   0.0   0.0   0.3   1.1   1.5   1.3   1.3  1.51  1.34  1.29  0.00  0.00    1.85    4.59    0.00    0.00    0.00
 1991 201     5     0     0     0.0  101.1   16644   80.1   21.0   3.6  11.4  19.4  11.6   4.8   0.1   0.3   0.3   0.0   0.0   0.2   1.2   1.5   1.2   1.3  1.52  1.31  1.26  0.00  0.00    2.32    5.27    0.00    0.00    0.00
 1991 202     6     6     2     0.5  107.0   16643   83.3   23.8   6.5   5.7  13.4  11.0  10.1   2.3   0.2   0.4   0.0   0.0   5.4   1.2   1.6   1.2   1.2  1.52  1.28  1.22  0.00  0.00    2.85    5.96    0.00    0.00    0.08
 1991 203     7     6     2     1.4  106.6   16643   82.8   23.9   3.0   4.4  10.4   9.7   9.8   4.0   2.1   0.2   0.0   0.0   5.0   1.3   1.7   1.2   1.2  1.54  1.29  1.21  0.00  0.00    3.37    6.33    0.00    0.00    0.11
 1991 204     8     6     2     1.9  106.4   16642   82.5   23.9   2.1   3.6   8.8   8.9   9.4   4.7   2.7   0.9   0.0   0.0   4.5   1.3   1.7   1.2   1.3  1.55  1.29  1.21  0.00  0.00    3.84    6.75    0.17    0.00    0.15
 1991 205     9     6     2     2.4  106.1   16642   83.2   22.9   4.4   3.5   8.5   8.6   9.1   4.8   2.8   1.1   0.0   0.0   2.2   1.4   1.8   1.3   1.3  1.57  1.30  1.21  0.00  0.00    4.28    8.16    0.31    0.00    0.20
 1991 206    10     6     2     2.8  106.0   16641   83.6   22.4   5.5   3.5   8.4   8.4   9.0   4.8   2.9   1.3   0.0   0.0   0.9   1.4   1.8   1.3   1.3  1.58  1.30  1.20  0.00  0.00    4.72    8.95    0.39    0.00    0.30
 1991 207    11     6     2     3.0  106.0   16641   83.9   22.1   6.1   3.6   8.3   8.3   8.9   4.8   3.0   1.3   0.0   0.0   0.4   1.3   1.9   1.3   1.3  1.60  1.30  1.19  0.00  0.00    5.13    9.56    0.50    0.00    0.38
 1991 208    12     6     2     3.1  106.2   16640   84.2   22.0   6.4   3.7   8.3   8.2   8.8   4.8   3.0   1.4   0.0   0.0   0.1   1.2   1.9   1.3   1.3  1.61  1.30  1.18  0.00  0.00    5.58   10.07    0.56    0.00    0.48
 1991 209    13     6     2     3.2  106.6   16640   84.8   21.8   6.5   3.9   8.5   8.2   8.8   4.8   3.0   1.4   0.0   0.0   0.0   1.1   1.9   1.3   1.3  1.63  1.30  1.17  0.00  0.00    6.11   10.74    0.59    0.00    0.52
 1991 210    14     6     2     3.2  107.1   16639   85.5   21.7   6.7   4.1   8.6   8.3   8.8   4.8   3.0   1.4   0.0   0.0   0.1   1.0   1.8   1.3   1.3  1.64  1.30  1.16  0.00  0.00    6.71   11.46    0.60    0.00    0.53
 1991 211    15     6     2     3.2  107.8   16639   86.3   21.5   6.9   4.3   8.8   8.3   8.9   4.8   3.0   1.5   0.0   0.0   0.1   0.8   1.7   1.3   1.3  1.66  1.29  1.15  0.00  0.00    7.37   12.26    0.62    0.00    0.55
 1991 212    16     6     2     3.2  108.2   16638   86.9   21.3   3.6   4.7   8.9   8.8   9.1   4.9   3.1   1.5   0.0   0.0   0.1   0.8   1.7   1.3   1.4  1.67  1.29  1.14  0.00  0.00    8.05   13.17    0.63    0.00    0.55
 1991 213    17     6     2     3.6  108.4   16637   86.8   21.6   3.7   4.7   8.7   8.5   8.9   5.0   3.2   1.6   0.0   0.0   0.1   0.8   1.7   1.3   1.4  1.69  1.29  1.13  0.00  0.00    8.68   13.44    0.69    0.00    0.58
 1991 214    18     6     2     3.7  108.8   16637   86.9   21.9   3.8   4.6   8.7   8.3   8.8   5.1   3.3   1.7   0.0   0.0   0.1   0.9   1.8   1.3   1.4  1.70  1.29  1.12  0.00  0.00    9.23   13.70    0.72    0.00    0.58
 1991 215    19     6     2     3.8  109.2   16636   87.2   22.0   2.2   4.2   8.1   8.2   9.1   5.5   3.5   1.8   0.0   0.0   0.1   0.8   1.9   1.3   1.4  1.72  1.29  1.11  0.00  0.00    9.69   14.08    0.74    0.00    0.58
 1991 216    20     6     2     4.8  108.4   16636   86.2   22.2   1.2   3.3   7.1   7.4   8.6   6.0   4.1   2.3   0.0   0.0   0.1   0.9   1.9   1.4   1.4  1.73  1.29  1.11  0.00  0.00   10.07   14.25    0.86    0.00    0.58
 1991 217    21     6     2     6.0  107.2   16636   84.8   22.4   1.2   3.3   6.9   7.1   8.2   5.9   4.2   2.5   0.0   0.0   0.1   0.9   1.9   1.4   1.4  1.75  1.29  1.10  0.00  0.00   10.42   14.37    1.18    0.00    0.58
 1991 218    22     6     2     6.7  106.6   16635   84.1   22.6   1.2   3.2   6.8   7.0   8.0   5.8   4.2   2.6   0.0   0.0   0.1   0.9   2.0   1.4   1.4  1.76  1.29  1.10  0.00  0.00   10.76   14.55    1.36    0.00    0.59
 1991 219    23     6     2     7.2  106.5   16635   83.9   22.6   1.3   3.3   6.7   6.9   7.9   5.8   4.2   2.7   0.0   0.0   0.1   0.9   2.0   1.4   1.4  1.77  1.29  1.09  0.00  0.00   11.10   14.84    1.47    0.00    0.59
 1991 220    24     6     2     7.4  106.5   16635   83.9   22.7   1.4   3.4   6.7   6.9   7.9   5.8   4.2   2.7   0.0   0.0   0.1   0.8   2.0   1.4   1.4  1.79  1.29  1.08  0.00  0.00   11.47   15.16    1.52    0.00    0.59
 1991 221    25     6     2     7.5  106.7   16634   84.2   22.6   1.5   3.4   6.9   6.9   7.9   5.8   4.2   2.7   0.0   0.0   0.1   0.8   2.0   1.4   1.4  1.80  1.29  1.08  0.00  0.00   11.86   15.64    1.55    0.00    0.59
 1991 222    26     6     2     7.5  107.1   16634   84.7   22.5   1.6   3.5   7.0   6.9   7.9   5.8   4.2   2.7   0.0   0.0   0.1   0.7   1.9   1.4   1.4  1.81  1.29  1.07  0.00  0.00   12.28   16.15    1.57    0.00    0.60
 1991 223    27     6     2     7.5  107.5   16633   85.1   22.4   1.8   3.6   7.1   6.9   7.9   5.8   4.3   2.7   0.0   0.0   0.1   0.7   1.9   1.4   1.5  1.82  1.29  1.06  0.00  0.00   12.69   16.63    1.58    0.00    0.60
 1991 224    28     6     2     7.5  107.9   16633   85.6   22.3   1.9   3.7   7.2   6.9   7.9   5.8   4.3   2.7   0.0   0.0   0.1   0.7   1.8   1.4   1.5  1.84  1.29  1.05  0.00  0.00   13.11   17.12    1.60    0.00    0.60
 1991 225    29     6     2     7.5  108.4   16632   86.2   22.2   2.0   3.7   7.3   7.0   8.0   5.8   4.3   2.8   0.0   0.0   0.1   0.6   1.8   1.4   1.5  1.85  1.28  1.04  0.00  0.00   13.54   17.71    1.61    0.00    0.60
 1991 226    30     6     2     7.5  108.8   16632   86.8   22.0   2.1   3.8   7.4   7.1   8.0   5.8   4.3   2.8   0.0   0.0   0.1   0.6   1.7   1.3   1.5  1.86  1.28  1.03  0.00  0.00   13.98   18.29    1.63    0.00    0.61
 1991 227    31     6     2     7.5  109.3   16632   87.4   21.9   2.3   3.9   7.5   7.1   8.0   5.8   4.3   2.8   0.0   0.0   0.1   0.6   1.7   1.3   1.5  1.88  1.28  1.03  0.00  0.00   14.47   18.90    1.64    0.00    0.61
 1991 228    32     6     2     7.5  109.8   16631   88.0   21.8   2.4   4.0   7.6   7.2   8.0   5.8   4.3   2.8   0.0   0.0   0.1   0.6   1.6   1.2   1.5  1.89  1.28  1.02  0.00  0.00   15.01   19.57    1.66    0.00    0.61
 1991 229    33     6     2     7.5  110.4   16630   88.7   21.6   2.6   4.1   7.8   7.3   8.0   5.8   4.3   2.8   0.0   0.0   0.1   0.6   1.6   1.2   1.5  1.90  1.28  1.01  0.00  0.00   15.62   20.31    1.67    0.00    0.61
 1991 230    34     6     2     7.5  111.0   16630   89.5   21.5   2.8   4.2   7.9   7.4   8.1   5.8   4.3   2.8   0.0   0.0   0.1   0.5   1.5   1.1   1.5  1.92  1.28  1.00  0.00  0.00   16.29   21.11    1.68    0.00    0.62
 1991 231    35     6     2     7.5  111.6   16629   90.3   21.4   3.0   4.3   8.1   7.5   8.1   5.8   4.3   2.8   0.0   0.0   0.1   0.5   1.5   1.1   1.5  1.93  1.28  0.99  0.00  0.00   16.98   21.93    1.70    0.00    0.62
 1991 232    36     6     2     7.5  112.0   16628   90.8   21.2   3.1   4.4   8.1   7.6   8.1   5.8   4.4   2.8   0.0   0.0   0.1   0.5   1.5   1.1   1.5  1.95  1.27  0.98  0.00  0.00   17.67   22.73    1.71    0.00    0.62
 1991 233    37     6     2     7.5  112.4   16628   91.3   21.1   3.2   4.4   8.2   7.6   8.2   5.8   4.4   2.9   0.0   0.0   0.1   0.5   1.4   1.0   1.5  1.96  1.27  0.98  0.00  0.00   18.36   23.51    1.72    0.00    0.65
 1991 234    38     6     2     7.5  112.6   16627   91.5   21.0   3.2   4.4   8.2   7.7   8.2   5.8   4.4   2.9   0.0   0.0   0.1   0.5   1.4   1.0   1.5  1.98  1.27  0.97  0.00  0.00   19.04   24.24    1.73    0.00    0.66
 1991 235    39     6     2     7.5  112.7   16626   92.0   20.8   3.3   4.4   8.2   7.8   8.3   5.8   4.4   2.9   0.0   0.0   0.1   0.5   1.3   1.0   1.5  1.99  1.27  0.96  0.00  0.00   19.73   25.10    1.74    0.00    0.68
 1991 236    40     6     2     7.5  112.6   16626   92.1   20.6   3.3   4.4   8.0   7.8   8.4   5.8   4.4   2.9   0.0   0.0   0.1   0.5   1.3   0.9   1.4  2.01  1.27  0.95  0.00  0.00   20.41   25.94    1.75    0.00    0.70
 1991 237    41     6     2     7.5  112.6   16625   92.2   20.4   3.4   4.3   7.9   7.9   8.5   5.8   4.4   2.9   0.0   0.0   0.1   0.5   1.2   0.9   1.3  2.02  1.27  0.94  0.00  0.00   21.07   26.73    1.76    0.00    0.72
 1991 238    42     6     2     7.5  112.7   16624   92.5   20.2   3.4   4.3   7.8   8.0   8.5   5.8   4.4   2.9   0.0   0.0   0.1   0.5   1.2   0.9   1.3  2.04  1.26  0.94  0.00  0.00   21.73   27.49    1.78    0.00    0.74
 1991 239    43     6     2     7.5  112.8   16624   92.7   20.1   3.5   4.4   7.7   8.0   8.6   5.8   4.4   2.9   0.0   0.0   0.1   0.5   1.2   0.9   1.3  2.05  1.26  0.93  0.00  0.00   22.35   28.20    1.79    0.00    0.76
 1991 240    44     6     2     7.5  112.9   16623   92.9   20.0   3.5   4.4   7.7   8.1   8.7   5.9   4.5   2.9   0.0   0.0   0.1   0.5   1.2   0.8   1.2  2.06  1.26  0.92  0.00  0.00   22.92   28.83    1.80    0.00    0.78
 1991 241    45     6     2     7.5  112.9   16623   93.0   19.9   3.5   4.4   7.6   8.1   8.8   5.9   4.5   2.9   0.0   0.0   0.1   0.5   1.1   0.8   1.2  2.08  1.26  0.91  0.00  0.00   23.47   29.45    1.81    0.00    0.80
 1991 242    46     6     2     7.5  112.8   16622   93.0   19.8   3.5   4.3   7.4   8.1   8.8   5.9   4.5   3.0   0.0   0.0   0.1   0.5   1.1   0.8   1.1  2.09  1.26  0.91  0.00  0.00   24.04   30.06    1.82    0.00    0.81
 1991 243    47     6     2     7.5  112.6   16621   92.9   19.7   3.5   4.3   7.2   8.2   8.9   5.9   4.5   3.0   0.0   0.0   0.1   0.5   1.1   0.8   1.1  2.10  1.26  0.90  0.00  0.00   24.60   30.66    1.82    0.00    0.83
 1991 244    48     6     2     7.5  112.0   16621   92.4   19.6   2.3   4.5   7.0   8.2   8.9   5.9   4.5   3.0   0.0   0.0   0.1   0.5   1.1   0.8   1.1  2.12  1.26  0.89  0.00  0.00   25.16   31.25    1.83    0.00    0.85
 1991 245    49     6     2     7.5  111.7   16620   92.1   19.6   2.3   4.3   6.9   8.2   9.0   5.9   4.5   3.0   0.0   0.0   0.1   0.6   1.0   0.8   1.0  2.13  1.25  0.89  0.00  0.00   25.72   31.75    1.84    0.00    0.87
 1991 246    50     6     2     7.5  112.0   16620   92.4   19.6   2.3   4.2   6.9   8.3   9.1   5.9   4.5   3.0   0.0   0.0   0.1   0.6   1.0   0.7   1.0  2.14  1.25  0.88  0.00  0.00   26.27   32.23    1.85    0.00    0.89
 1991 247    51     6     2     7.5  111.6   16619   92.1   19.5   2.3   4.2   6.7   8.3   9.1   5.9   4.5   3.0   0.0   0.0   0.1   0.6   1.0   0.7   1.0  2.16  1.25  0.87  0.00  0.00   26.82   32.81    1.86    0.00    0.91
 1991 248    52     6     2     7.5  110.4   16619   91.0   19.4   2.1   3.9   6.2   8.2   9.2   5.9   4.5   3.0   0.0   0.0   0.1   0.6   1.0   0.7   1.0  2.17  1.25  0.87  0.00  0.00   27.37   33.38    1.87    0.00    0.93
 1991 249    53     6     2     7.5  109.2   16618   89.9   19.3   2.1   3.7   5.8   8.1   9.2   5.9   4.6   3.0   0.0   0.0   0.1   0.6   1.0   0.7   0.9  2.18  1.25  0.86  0.00  0.00   27.98   34.00    1.88    0.00    0.94
 1991 250    54     6     2     7.5  108.4   16617   89.2   19.2   1.8   3.7   5.5   7.9   9.3   5.9   4.6   3.0   0.0   0.0   0.1   0.5   0.9   0.7   0.9  2.19  1.25  0.86  0.00  0.00   28.62   34.63    1.89    0.00    0.96
 1991 251    55     6     2     7.5  108.3   16617   89.1   19.2   1.7   3.7   5.4   7.9   9.3   5.9   4.6   3.1   0.0   0.0   0.2   0.5   0.9   0.7   0.9  2.21  1.25  0.85  0.00  0.00   29.26   35.22    1.90    0.00    0.98
 1991 252    56     6     2     7.5  107.9   16616   88.8   19.1   1.8   3.6   5.2   7.8   9.4   5.9   4.6   3.1   0.0   0.0   0.1   0.5   0.9   0.7   0.9  2.22  1.25  0.84  0.00  0.00   29.87   35.85    1.90    0.00    1.01
 1991 253    57     6     2     7.5  105.5   16616   86.5   19.0   1.6   3.2   4.5   7.4   9.4   5.9   4.6   3.1   0.0   0.0   0.1   0.5   0.9   0.7   0.9  2.23  1.24  0.84  0.00  0.00   30.46   36.40    1.91    0.00    1.03
 1991 254    58     6     2     7.5  104.2   16615   85.3   18.9   1.5   2.9   4.2   7.2   9.5   5.9   4.6   3.1   0.0   0.0   0.1   0.5   0.9   0.6   0.8  2.25  1.24  0.83  0.00  0.00   31.02   36.92    1.92    0.00    1.05
 1991 255    59     6     2     7.5  102.5   16614   83.6   18.9   1.4   2.7   3.7   6.8   9.5   5.9   4.6   3.1   0.0   0.0   0.1   0.5   0.8   0.6   0.8  2.26  1.24  0.82  0.00  0.00   31.58   37.44    1.93    0.00    1.07
 1991 256    60     6     2     7.5  100.0   16614   81.3   18.8   1.2   2.3   3.1   6.4   9.4   6.0   4.6   3.1   0.0   0.0   0.1   0.5   0.8   0.6   0.8  2.27  1.24  0.82  0.00  0.00   32.19   37.99    1.93    0.00    1.09
 1991 257    61     6     2     7.5   97.7   16613   79.0   18.7   1.1   2.0   2.6   6.0   9.2   6.0   4.6   3.1   0.0   0.0   0.1   0.5   0.8   0.6   0.8  2.28  1.24  0.81  0.00  0.00   32.85   38.60    1.94    0.00    1.11
 1991 258    62     6     2     7.5   97.3   16613   78.6   18.7   0.8   2.1   2.6   5.9   9.1   6.0   4.7   3.1   0.0   0.0   0.1   0.5   0.8   0.6   0.8  2.30  1.24  0.81  0.00  0.00   33.50   39.20    1.95    0.00    1.12
 1991 259    63     6     2     7.5   96.7   16612   77.8   18.8   0.7   2.0   2.5   5.8   8.9   6.0   4.7   3.1   0.0   0.0   0.2   0.6   0.8   0.6   0.7  2.31  1.24  0.80  0.00  0.00   34.13   39.61    1.95    0.00    1.12
 1991 260    64     6     2     7.5   95.2   16611   76.3   18.9   0.5   1.6   2.5   5.6   8.6   6.0   4.7   3.1   0.0   0.0   0.3   0.7   0.8   0.6   0.7  2.32  1.24  0.80  0.00  0.00   34.76   40.03    1.96    0.00    1.13
 1991 261    65     6     2    10.2   91.2   16611   72.1   19.1   0.2   0.8   1.7   3.6   6.7   6.5   5.4   3.9   0.0   0.0   0.3   0.7   0.9   0.6   0.7  2.33  1.23  0.79  0.00  0.00   35.35   40.34    1.96    0.00    1.13
 1991 262    66     6     2    11.9   85.9   16610   66.8   19.1   0.4   0.6   1.1   3.0   5.6   6.3   5.3   4.0   0.0   0.0   0.2   0.7   0.8   0.6   0.7  2.35  1.24  0.79  0.00  0.00   35.89   40.58    2.11    0.00    1.14
 1991 263    67     6     2    12.8   82.3   16610   63.2   19.1   0.4   0.4   0.7   2.5   4.9   6.2   5.3   4.0   0.0   0.0   0.1   0.7   0.8   0.6   0.7  2.36  1.24  0.79  0.00  0.00   36.43   40.79    2.20    0.00    1.14
 1991 264    68     6     2    13.3   80.8   16609   61.8   19.0   0.4   0.5   0.7   2.3   4.5   6.1   5.3   4.0   0.0   0.0   0.1   0.6   0.8   0.6   0.7  2.38  1.24  0.78  0.00  0.00   37.01   41.24    2.26    0.00    1.15
 1991 265    69     6     2    13.6   78.0   16608   59.2   18.8   0.4   0.4   0.4   2.0   3.9   6.1   5.2   4.0   0.0   0.0   0.1   0.6   0.7   0.6   0.7  2.39  1.24  0.78  0.00  0.00   37.61   41.74    2.29    0.00    1.15
 1991 266    70     6     2    13.8   74.8   16608   56.3   18.5   0.4   0.4   0.3   1.5   3.0   6.1   5.2   4.0   0.0   0.0   0.1   0.5   0.6   0.6   0.6  2.40  1.24  0.77  0.00  0.00   38.21   42.26    2.31    0.00    1.15
 1991 267    71     6     2    13.8   72.8   16607   54.5   18.4   0.4   0.4   0.3   1.2   2.4   6.1   5.2   4.0   0.0   0.0   0.1   0.5   0.6   0.6   0.6  2.41  1.24  0.77  0.00  0.00   38.79   42.73    2.32    0.00    1.16
 1991 268    72     6     2    13.8   71.4   16607   53.1   18.3   0.4   0.4   0.3   0.9   1.9   6.1   5.2   4.0   0.0   0.0   0.1   0.5   0.6   0.5   0.6  2.43  1.24  0.76  0.00  0.00   39.37   43.20    2.33    0.00    1.16
 1991 269    73     6     2    13.8   70.3   16606   52.0   18.3   0.4   0.4   0.3   0.7   1.5   6.1   5.3   4.0   0.0   0.0   0.1   0.5   0.6   0.5   0.6  2.44  1.24  0.76  0.00  0.00   39.95   43.66    2.34    0.00    1.16
 1991 270    74     6     2    13.8   69.5   16606   51.2   18.3   0.3   0.3   0.3   0.6   1.2   6.1   5.3   4.0   0.0   0.0   0.1   0.5   0.6   0.5   0.5  2.45  1.24  0.75  0.00  0.00   40.52   44.11    2.35    0.00    1.16
 1991 271    75     6     2    13.8   64.5   16605   47.3   17.2   0.4   0.4   0.3   0.5   0.9   5.3   5.3   4.0   0.0   0.0   0.1   0.5   0.6   0.5   0.5  2.19  1.23  0.75  0.00  0.00   41.10   44.58    2.36    0.00    1.17
 1991 272    76     6     2    13.8   59.3   16604   43.3   16.0   0.3   0.4   0.3   0.4   0.8   4.4   5.3   4.0   0.0   0.0   0.1   0.5   0.6   0.5   0.5  1.92  1.23  0.74  0.00  0.00   41.68   45.04    2.37    0.00    1.17
 1991 273    77     6     2    13.8   56.1   16604   40.8   15.3   0.3   0.4   0.3   0.3   0.7   3.8   5.3   4.0   0.0   0.0   0.1   0.5   0.6   0.5   0.5  1.73  1.23  0.74  0.00  0.00   42.24   45.55    2.37    0.00    1.17
 1991 274    78     6     2    13.8   53.5   16603   38.9   14.6   0.3   0.3   0.3   0.3   0.6   3.4   5.3   4.1   0.0   0.0   0.1   0.5   0.6   0.5   0.5  1.58  1.23  0.73  0.00  0.00   42.79   46.05    2.37    0.00    1.17
 1991 275    79     6     2    13.8   51.0   16603   37.0   14.0   0.3   0.3   0.3   0.3   0.5   2.9   5.3   4.1   0.0   0.0   0.1   0.5   0.6   0.5   0.5  1.44  1.23  0.73  0.00  0.00   43.30   46.52    2.38    0.00    1.18
 1991 276    80     6     2    13.8   48.4   16602   35.1   13.4   0.3   0.3   0.3   0.3   0.4   2.5   5.3   4.1   0.0   0.0   0.1   0.4   0.6   0.5   0.5  1.30  1.23  0.73  0.00  0.00   43.77   46.94    2.38    0.00    1.18
 1991 277    81     6     2    13.8   46.0   16602   33.2   12.7   0.3   0.3   0.3   0.3   0.4   2.1   5.3   4.1   0.0   0.0   0.1   0.4   0.6   0.5   0.5  1.16  1.23  0.72  0.00  0.00   44.23   47.36    2.39    0.00    1.18
 1991 278    82     6     2    13.8   44.0   16601   31.7   12.3   0.3   0.3   0.3   0.3   0.3   1.7   5.4   4.1   0.0   0.0   0.1   0.4   0.5   0.5   0.5  1.05  1.23  0.72  0.00  0.00   44.70   47.78    2.39    0.00    1.18
 1991 279    83     6     2    13.8   42.8   16601   30.8   12.0   0.2   0.4   0.3   0.3   0.3   1.5   5.4   4.1   0.0   0.0   0.1   0.4   0.6   0.5   0.5  0.98  1.23  0.71  0.00  0.00   45.14   48.17    2.40    0.00    1.19
 1991 280    84     6     2    13.8   41.4   16601   29.7   11.7   0.1   0.2   0.3   0.3   0.3   1.2   5.4   4.1   0.0   0.0   0.2   0.5   0.5   0.5   0.5  0.90  1.22  0.71  0.00  0.00   45.60   48.44    2.40    0.00    1.19
 1991 281    85     6     2    13.8   40.4   16600   28.7   11.7   0.1   0.2   0.3   0.3   0.3   1.0   5.4   4.1   0.0   0.0   0.2   0.5   0.6   0.5   0.5  0.84  1.22  0.70  0.00  0.00   46.06   48.66    2.40    0.00    1.19
 1991 282    86     6     2    13.8   39.6   16600   28.1   11.5   0.2   0.2   0.3   0.3   0.3   0.8   5.4   4.1   0.0   0.0   0.2   0.6   0.6   0.5   0.5  0.79  1.22  0.70  0.00  0.00   46.51   48.94    2.40    0.00    1.19
 1991 283    87     6     2    13.8   39.0   16599   27.8   11.2   0.3   0.3   0.3   0.3   0.3   0.7   5.4   4.1   0.0   0.0   0.1   0.5   0.6   0.5   0.5  0.75  1.22  0.70  0.00  0.00   46.97   49.27    2.41    0.00    1.20
 1991 284    88     6     2    13.8   38.4   16599   27.4   11.0   0.3   0.3   0.3   0.3   0.3   0.6   5.4   4.1   0.0   0.0   0.1   0.5   0.6   0.5   0.5  0.71  1.22  0.69  0.00  0.00   47.46   49.67    2.41    0.00    1.20
 1991 285    89     6     2    13.8   38.0   16598   27.2   10.8   0.3   0.3   0.3   0.3   0.3   0.5   5.5   4.1   0.0   0.0   0.1   0.5   0.6   0.5   0.5  0.69  1.19  0.69  0.00  0.00   48.01   50.16    2.41    0.00    1.20
 1991 286    90     6     2    13.8   37.7   16598   27.0   10.7   0.4   0.4   0.3   0.3   0.3   0.4   5.5   4.1   0.0   0.0   0.1   0.5   0.6   0.5   0.5  0.66  1.17  0.68  0.00  0.00   48.64   50.71    2.41    0.00    1.21
 1991 287    91     6     2    13.8   37.5   16597   26.9   10.5   0.4   0.4   0.3   0.3   0.3   0.3   5.5   4.2   0.0   0.0   0.1   0.5   0.6   0.5   0.5  0.65  1.14  0.68  0.00  0.00   49.34   51.34    2.41    0.00    1.21
 1991 288    92     6     2    13.8   37.3   16596   26.8   10.4   0.1   0.3   0.4   0.3   0.3   0.3   5.6   4.2   0.0   0.0   0.2   0.5   0.6   0.5   0.5  0.63  1.12  0.68  0.00  0.00   50.10   51.94    2.42    0.00    1.21
 1991 289    93     6     2    17.3   33.7   16596   23.1   10.6   0.4   0.1   0.2   0.2   0.3   0.3   4.1   4.4   0.0   0.0   0.0   0.6   0.7   0.6   0.5  0.62  1.09  0.67  0.00  0.00   50.84   52.39    2.42    0.00    1.22
 1991 290    94     6     2    19.5   31.9   16595   20.8   11.1   0.3   0.2   0.2   0.2   0.2   0.2   3.5   4.1   0.0   0.0   0.2   0.7   0.8   0.6   0.5  0.63  1.10  0.67  0.00  0.00   51.51   52.48    2.44    0.00    1.22
 1991 291    95     6     2    20.6   31.0   16594   19.7   11.3   0.3   0.2   0.2   0.2   0.2   0.2   3.3   3.9   0.0   0.0   0.3   0.7   0.8   0.6   0.5  0.63  1.10  0.67  0.00  0.00   52.19   52.62    2.46    0.00    1.22
 1991 292    96     6     2    21.1   30.7   16594   19.6   11.1   0.5   0.2   0.2   0.2   0.3   0.2   3.2   3.9   0.0   0.0   0.1   0.7   0.8   0.6   0.6  0.62  1.10  0.67  0.00  0.00   52.83   52.91    2.46    0.00    1.22
 1991 293    97     6     2    21.2   30.4   16593   19.7   10.8   0.4   0.4   0.2   0.2   0.3   0.3   3.2   3.8   0.0   0.0   0.1   0.5   0.7   0.6   0.5  0.61  1.10  0.66  0.00  0.00   53.43   53.31    2.47    0.00    1.23
 1991 294    98     6     2    21.3   30.3   16593   19.8   10.5   0.4   0.4   0.3   0.3   0.3   0.3   3.2   3.8   0.0   0.0   0.1   0.5   0.6   0.6   0.5  0.61  1.10  0.66  0.00  0.00   54.03   53.80    2.47    0.00    1.23
 1991 295    99     6     2    21.3   30.3   16592   20.0   10.4   0.4   0.4   0.3   0.3   0.3   0.3   3.2   3.8   0.0   0.0   0.1   0.5   0.6   0.6   0.5  0.60  1.10  0.66  0.00  0.00   54.70   54.32    2.48    0.00    1.23
 1991 296   100     6     2    21.3   30.4   16591   20.1   10.3   0.4   0.4   0.3   0.3   0.3   0.3   3.2   3.8   0.0   0.0   0.1   0.5   0.6   0.5   0.5  0.60  1.10  0.65  0.00  0.00   55.44   54.90    2.48    0.00    1.24
 1991 297   101     6     2    21.3   30.4   16591   20.0   10.3   0.3   0.4   0.3   0.3   0.3   0.3   3.2   3.8   0.0   0.0   0.2   0.5   0.6   0.5   0.5  0.60  1.10  0.65  0.00  0.00   56.17   55.40    2.48    0.00    1.24
 1991 298   102     6     2    21.3   30.4   16590   20.2   10.2   0.5   0.4   0.3   0.3   0.3   0.3   3.2   3.8   0.0   0.0   0.1   0.5   0.6   0.5   0.5  0.59  1.10  0.65  0.00  0.00   56.86   55.99    2.49    0.00    1.24
 1991 299   103     6     2    21.3   30.3   16589   20.1   10.2   0.4   0.4   0.3   0.3   0.3   0.3   3.2   3.8   0.0   0.0   0.1   0.5   0.6   0.5   0.5  0.59  1.10  0.64  0.00  0.00   57.53   56.49    2.49    0.00    1.24
 1991 300   104     6     2    21.3   30.3   16589   20.2   10.2   0.4   0.4   0.3   0.3   0.3   0.3   3.2   3.9   0.0   0.0   0.1   0.5   0.6   0.5   0.5  0.59  1.10  0.64  0.00  0.00   58.17   56.97    2.49    0.00    1.24
 1991 301   105     6     2    21.3   30.3   16588   20.2   10.1   0.4   0.4   0.3   0.3   0.3   0.3   3.2   3.9   0.0   0.0   0.1   0.5   0.6   0.5   0.5  0.59  1.10  0.63  0.00  0.00   58.77   57.42    2.49    0.00    1.24
 1991 302   106     6     2    21.3   30.0   16588   20.0   10.1   0.4   0.4   0.3   0.3   0.3   0.3   3.1   3.9   0.0   0.0   0.1   0.5   0.6   0.5   0.5  0.58  1.08  0.63  0.00  0.00   59.38   57.88    2.49    0.00    1.25
 1991 303   107     6     2    21.3   29.7   16587   19.7    9.9   0.2   0.4   0.3   0.3   0.3   0.3   3.0   3.9   0.0   0.0   0.1   0.5   0.6   0.5   0.5  0.58  1.04  0.63  0.00  0.00   59.99   58.38    2.50    0.00    1.25
 1991 304   108     6     2    21.3   29.2   16586   19.2    9.9   0.2   0.3   0.3   0.3   0.3   0.3   2.9   3.9   0.0   0.0   0.2   0.6   0.6   0.5   0.5  0.58  0.98  0.62  0.00  0.00   60.58   58.73    2.50    0.00    1.25
 1991 305   109     6     2    21.3   28.6   16586   18.8    9.9   0.3   0.3   0.3   0.3   0.3   0.3   2.7   3.9   0.0   0.0   0.3   0.6   0.6   0.5   0.5  0.58  0.93  0.62  0.00  0.00   61.16   59.07    2.50    0.00    1.25
 1991 306   110     6     2    21.3   28.0   16585   18.4    9.7   0.5   0.3   0.3   0.3   0.3   0.3   2.5   3.9   0.0   0.0   0.2   0.6   0.6   0.5   0.5  0.58  0.87  0.62  0.00  0.00   61.73   59.53    2.50    0.00    1.25
 1991 307   111     6     2    21.3   27.1   16585   17.8    9.3   0.4   0.4   0.3   0.3   0.3   0.3   2.2   3.9   0.0   0.0   0.1   0.5   0.6   0.5   0.5  0.58  0.81  0.62  0.00  0.00   62.30   60.05    2.50    0.00    1.26
 1991 308   112     6     2    21.3   26.3   16584   17.1    9.2   0.4   0.4   0.3   0.3   0.3   0.3   1.9   3.9   0.0   0.0   0.1   0.5   0.6   0.5   0.5  0.58  0.76  0.61  0.00  0.00   62.90   60.54    2.50    0.00    1.26
 1991 309   113     6     2    21.3   25.7   16584   16.6    9.0   0.4   0.4   0.3   0.3   0.3   0.3   1.7   3.9   0.0   0.0   0.1   0.5   0.6   0.5   0.5  0.57  0.71  0.61  0.00  0.00   63.54   61.06    2.50    0.00    1.26
 1991 310   114     6     2    21.3   25.1   16583   16.2    8.9   0.3   0.4   0.3   0.3   0.3   0.3   1.5   3.9   0.0   0.0   0.1   0.5   0.6   0.5   0.5  0.57  0.68  0.61  0.00  0.00   64.19   61.59    2.51    0.00    1.26
 1991 311   115     6     2    21.3   24.6   16582   15.6    9.0   0.3   0.3   0.3   0.3   0.3   0.3   1.3   3.9   0.0   0.0   0.2   0.6   0.6   0.5   0.5  0.57  0.64  0.60  0.00  0.00   64.85   61.96    2.51    0.00    1.27
 1991 312   116     6     2    21.3   24.3   16582   15.5    8.8   0.5   0.4   0.3   0.3   0.3   0.3   1.2   3.9   0.0   0.0   0.1   0.5   0.6   0.5   0.5  0.57  0.62  0.60  0.00  0.00   65.52   62.59    2.51    0.00    1.27
 1991 313   117     6     2    21.3   23.8   16581   15.1    8.7   0.4   0.4   0.3   0.3   0.3   0.3   1.1   3.9   0.0   0.0   0.1   0.5   0.6   0.5   0.5  0.57  0.59  0.60  0.00  0.00   66.17   63.12    2.51    0.00    1.27
 1991 314   118     6     2    21.3   23.4   16581   14.8    8.6   0.4   0.4   0.3   0.3   0.3   0.3   0.9   3.9   0.0   0.0   0.1   0.5   0.6   0.5   0.5  0.57  0.57  0.59  0.00  0.00   66.81   63.64    2.51    0.00    1.28
 1991 315   119     6     2    21.3   23.1   16580   14.6    8.6   0.4   0.4   0.3   0.3   0.3   0.3   0.8   4.0   0.0   0.0   0.1   0.5   0.6   0.5   0.5  0.57  0.56  0.59  0.00  0.00   67.44   64.16    2.51    0.00    1.28
 1991 316   120     6     2    21.3   22.9   16579   14.4    8.5   0.4   0.4   0.3   0.3   0.3   0.3   0.7   4.0   0.0   0.0   0.1   0.5   0.6   0.5   0.5  0.57  0.54  0.57  0.00  0.00   68.05   64.68    2.51    0.00    1.28
 1991 317   121     6     2    21.3   22.6   16579   14.2    8.4   0.4   0.4   0.3   0.3   0.3   0.3   0.7   4.0   0.0   0.0   0.1   0.5   0.6   0.5   0.5  0.57  0.53  0.56  0.00  0.00   68.63   65.19    2.51    0.00    1.28
 1991 318   122     6     2    21.3   22.4   16578   14.1    8.3   0.4   0.4   0.3   0.3   0.3   0.3   0.6   4.0   0.0   0.0   0.1   0.5   0.6   0.5   0.5  0.56  0.52  0.55  0.00  0.00   69.18   65.68    2.51    0.00    1.29
 1991 319   123     6     2    21.3   22.2   16578   14.0    8.2   0.4   0.4   0.3   0.3   0.3   0.3   0.5   4.0   0.0   0.0   0.1   0.5   0.6   0.5   0.5  0.56  0.51  0.53  0.00  0.00   69.70   66.15    2.51    0.00    1.29
 1991 320   124     6     2    21.3   22.0   16577   13.8    8.1   0.4   0.3   0.3   0.3   0.3   0.3   0.5   4.0   0.0   0.0   0.1   0.5   0.6   0.5   0.5  0.56  0.50  0.52  0.00  0.00   70.20   66.60    2.51    0.00    1.29
 1991 321   125     6     2    21.3   21.8   16577   13.8    8.0   0.4   0.4   0.3   0.3   0.3   0.3   0.4   4.1   0.0   0.0   0.1   0.5   0.6   0.5   0.5  0.56  0.50  0.51  0.00  0.00   70.70   67.06    2.51    0.00    1.29
 1991 322   126     6     2    21.3   21.7   16576   13.7    8.0   0.4   0.4   0.3   0.3   0.3   0.3   0.4   4.1   0.0   0.0   0.1   0.5   0.6   0.5   0.5  0.56  0.49  0.50  0.00  0.00   71.19   67.53    2.51    0.00    1.30
 1991 323   127     6     2    21.3   21.2   16576   13.3    7.9   0.4   0.4   0.3   0.3   0.3   0.3   0.4   3.9   0.0   0.0   0.1   0.4   0.6   0.5   0.5  0.56  0.48  0.48  0.00  0.00   71.69   68.01    2.51    0.00    1.30
 1991 324   128     6     2    21.3   20.5   16576   12.7    7.8   0.4   0.4   0.3   0.3   0.3   0.3   0.3   3.7   0.0   0.0   0.1   0.4   0.5   0.5   0.5  0.56  0.48  0.47  0.00  0.00   72.17   68.50    2.51    0.00    1.30
 1991 325   129     6     2    21.3   19.8   16575   12.1    7.7   0.3   0.4   0.3   0.3   0.3   0.3   0.3   3.5   0.0   0.0   0.1   0.4   0.5   0.5   0.5  0.55  0.47  0.46  0.00  0.00   72.64   68.98    2.51    0.00    1.30
 1991 326   130     6     2    21.3   19.1   16575   11.6    7.5   0.4   0.4   0.3   0.3   0.3   0.3   0.3   3.3   0.0   0.0   0.1   0.4   0.5   0.5   0.5  0.55  0.46  0.45  0.00  0.00   73.10   69.48    2.51    0.00    1.31
 1991 327   131     6     2    21.3   18.6   16574   11.2    7.4   0.5   0.4   0.3   0.3   0.3   0.3   0.3   3.1   0.0   0.0   0.1   0.3   0.5   0.5   0.5  0.55  0.45  0.44  0.00  0.00   73.57   69.99    2.51    0.00    1.31
 1991 328   132     6     2    21.3   18.1   16574   10.8    7.3   0.6   0.4   0.3   0.3   0.3   0.3   0.3   2.9   0.0   0.0   0.1   0.3   0.5   0.5   0.4  0.55  0.45  0.43  0.00  0.00   74.05   70.53    2.51    0.00    1.31
 1991 329   133     6     2    21.3   17.6   16573   10.4    7.2   0.2   0.2   0.4   0.4   0.3   0.3   0.3   2.7   0.0   0.0   0.1   0.3   0.5   0.5   0.4  0.55  0.44  0.42  0.00  0.00   74.51   71.02    2.51    0.00    1.31
 1991 330   134     6     2    21.3   17.4   16573    9.7    7.6   0.1   0.2   0.2   0.3   0.3   0.3   0.3   2.6   0.0   0.0   0.2   0.4   0.6   0.5   0.5  0.55  0.43  0.41  0.00  0.00   75.21   71.22    2.51    0.00    1.31
 1991 331   135     6     2    21.3   17.2   16572    9.1    8.1   0.1   0.2   0.2   0.3   0.3   0.3   0.3   2.4   0.0   0.0   0.3   0.5   0.7   0.5   0.5  0.55  0.43  0.40  0.00  0.00   75.90   71.39    2.51    0.00    1.31
 1991 332   136     6     2    21.3   17.1   16571    8.8    8.3   0.2   0.2   0.2   0.3   0.2   0.3   0.3   2.3   0.0   0.0   0.4   0.6   0.7   0.6   0.5  0.56  0.42  0.39  0.00  0.00   76.55   71.58    2.51    0.00    1.32
 1991 333   137     6     2    21.3   17.0   16571    8.7    8.3   0.5   0.3   0.3   0.3   0.3   0.3   0.3   2.1   0.0   0.0   0.1   0.7   0.7   0.6   0.5  0.56  0.41  0.38  0.00  0.00   77.18   71.94    2.51    0.00    1.32
 1991 334   138     6     2    21.3   16.8   16570    8.3    8.4   0.4   0.3   0.3   0.3   0.3   0.3   0.3   2.0   0.0   0.0   0.2   0.7   0.7   0.6   0.5  0.56  0.41  0.37  0.00  0.00   77.83   72.13    2.51    0.00    1.33
 1991 335   139     6     2    21.3   16.5   16570    8.2    8.3   0.5   0.3   0.3   0.3   0.3   0.3   0.3   1.9   0.0   0.0   0.1   0.7   0.7   0.6   0.5  0.57  0.40  0.36  0.00  0.00   78.54   72.53    2.52    0.00    1.33
 1991 336   140     6     2    21.3   16.2   16569    8.3    7.9   0.4   0.5   0.3   0.3   0.3   0.3   0.3   1.8   0.0   0.0   0.1   0.5   0.6   0.6   0.5  0.57  0.40  0.35  0.00  0.00   79.30   73.23    2.52    0.00    1.34
 1991 337   141     6     2    21.3   15.7   16568    8.0    7.8   0.4   0.4   0.3   0.3   0.3   0.3   0.3   1.7   0.0   0.0   0.1   0.5   0.6   0.6   0.5  0.57  0.39  0.34  0.00  0.00   80.09   73.90    2.52    0.00    1.34
 1991 338   142     6     2    21.3   15.4   16567    7.7    7.7   0.4   0.4   0.3   0.3   0.3   0.3   0.3   1.6   0.0   0.0   0.1   0.5   0.6   0.5   0.5  0.58  0.39  0.33  0.00  0.00   80.88   74.54    2.52    0.00    1.34
 1991 339   143     6     2    21.3   15.2   16567    7.5    7.6   0.3   0.4   0.4   0.3   0.3   0.3   0.3   1.5   0.0   0.0   0.1   0.5   0.6   0.5   0.5  0.58  0.39  0.32  0.00  0.00   81.70   75.21    2.52    0.00    1.34
 1991 340   144     6     2    21.3   15.0   16566    7.0    8.0   0.3   0.3   0.3   0.3   0.3   0.3   0.3   1.4   0.0   0.0   0.2   0.6   0.7   0.5   0.5  0.58  0.38  0.32  0.00  0.00   82.52   75.52    2.52    0.00    1.35
 1991 341   145     6     2    21.3   15.0   16565    7.2    7.8   0.7   0.3   0.3   0.3   0.3   0.3   0.3   1.3   0.0   0.0   0.0   0.7   0.6   0.5   0.5  0.58  0.38  0.31  0.00  0.00   83.36   76.21    2.52    0.00    1.35
 1991 342   146     6     2    21.3   14.6   16565    7.0    7.6   0.3   0.5   0.3   0.3   0.3   0.3   0.3   1.3   0.0   0.0   0.2   0.5   0.6   0.5   0.5  0.58  0.37  0.30  0.00  0.00   84.18   76.87    2.52    0.00    1.35
 1991 343   147     6     2    21.3   14.4   16564    6.9    7.5   0.4   0.4   0.4   0.3   0.3   0.3   0.3   1.2   0.0   0.0   0.1   0.5   0.6   0.5   0.5  0.58  0.37  0.29  0.00  0.00   85.02   77.60    2.52    0.00    1.36
 1991 344   148     6     2    21.3   14.2   16563    6.4    7.9   0.2   0.3   0.3   0.3   0.3   0.3   0.3   1.1   0.0   0.0   0.2   0.6   0.7   0.5   0.5  0.58  0.37  0.28  0.00  0.00   85.81   77.89    2.52    0.00    1.36
 1991 345   149     6     2    21.3   14.3   16562    6.2    8.1   0.5   0.3   0.3   0.3   0.3   0.3   0.3   1.1   0.0   0.0   0.1   0.7   0.8   0.6   0.5  0.59  0.36  0.28  0.00  0.00   86.61   78.23    2.52    0.00    1.36
 1991 346   150     6     2    21.3   14.1   16562    6.0    8.2   0.3   0.3   0.3   0.3   0.3   0.3   0.3   1.0   0.0   0.0   0.1   0.7   0.8   0.6   0.6  0.59  0.36  0.27  0.00  0.00   87.39   78.49    2.52    0.00    1.36
 1991 347   151     6     2    21.3   14.0   16561    6.1    7.9   0.3   0.5   0.3   0.3   0.3   0.3   0.3   0.9   0.0   0.0   0.1   0.5   0.7   0.6   0.6  0.59  0.36  0.26  0.00  0.00   88.15   78.97    2.52    0.00    1.37
 1991 348   152     6     2    21.3   13.9   16560    5.8    8.1   0.3   0.3   0.3   0.3   0.3   0.3   0.3   0.9   0.0   0.0   0.1   0.6   0.7   0.6   0.6  0.59  0.35  0.26  0.00  0.00   88.91   79.28    2.52    0.00    1.37
 1991 349   153     6     2    21.3   13.9   16560    5.5    8.4   0.3   0.3   0.3   0.3   0.3   0.3   0.3   0.8   0.0   0.0   0.2   0.7   0.8   0.6   0.6  0.59  0.35  0.25  0.00  0.00   89.64   79.44    2.53    0.00    1.37
 1991 350   154     6     2    21.3   13.9   16559    5.4    8.5   0.2   0.3   0.3   0.3   0.3   0.3   0.3   0.8   0.0   0.0   0.3   0.7   0.8   0.6   0.6  0.59  0.35  0.24  0.00  0.00   90.36   79.63    2.53    0.00    1.37
 1991 351   155     6     2    21.3   14.0   16558    5.5    8.5   0.6   0.3   0.3   0.3   0.3   0.3   0.3   0.7   0.0   0.0   0.1   0.8   0.8   0.7   0.6  0.59  0.34  0.24  0.00  0.00   91.07   80.00    2.54    0.00    1.38
 1991 352   156     6     2    21.3   13.9   16558    5.3    8.6   0.3   0.3   0.3   0.2   0.3   0.3   0.3   0.7   0.0   0.0   0.1   0.8   0.8   0.7   0.6  0.59  0.34  0.23  0.00  0.00   91.81   80.21    2.55    0.00    1.39
 1991 353   157     6     2    21.3   13.7   16557    5.2    8.5   0.2   0.3   0.3   0.3   0.3   0.3   0.3   0.7   0.0   0.0   0.1   0.7   0.8   0.7   0.6  0.59  0.34  0.23  0.00  0.00   92.59   80.50    2.55    0.00    1.39
 1991 354   158     6     2    21.3   13.7   16556    5.0    8.7   0.3   0.3   0.3   0.3   0.3   0.3   0.3   0.6   0.0   0.0   0.2   0.8   0.8   0.7   0.6  0.60  0.34  0.22  0.00  0.00   93.40   80.68    2.56    0.00    1.39
 1991 355   159     6     2    21.3   13.9   16556    5.2    8.7   0.7   0.3   0.3   0.3   0.3   0.2   0.3   0.6   0.0   0.0   0.0   0.8   0.9   0.7   0.7  0.61  0.34  0.22  0.00  0.00   94.26   81.07    2.57    0.00    1.40
 1991 356   160     6     2    21.3   13.7   16555    5.0    8.6   0.3   0.3   0.3   0.3   0.3   0.3   0.3   0.6   0.0   0.0   0.2   0.7   0.8   0.7   0.7  0.61  0.34  0.21  0.00  0.00   95.17   81.32    2.58    0.00    1.40
 1991 357   161     6     2    21.3   13.5   16554    5.4    8.2   0.4   0.5   0.3   0.3   0.3   0.3   0.3   0.6   0.0   0.0   0.1   0.5   0.8   0.7   0.7  0.61  0.34  0.21  0.00  0.00   96.08   81.99    2.58    0.00    1.40
 1991 358   162     6     2    21.5   13.3   16553    4.7    8.6   0.4   0.3   0.3   0.3   0.2   0.2   0.2   0.5   0.0   0.0   0.1   0.6   0.8   0.7   0.7  0.62  0.35  0.21  0.00  0.00   96.97   82.16    2.59    0.00    1.41
 1991 359   163     6     2    21.6   13.3   16552    4.7    8.6   0.5   0.3   0.3   0.3   0.3   0.2   0.2   0.5   0.0   0.0   0.1   0.7   0.8   0.7   0.7  0.63  0.36  0.20  0.00  0.00   97.88   82.47    2.59    0.00    1.41
 1991 360   164     6     2    21.6   13.2   16552    4.9    8.3   0.4   0.5   0.3   0.3   0.3   0.2   0.3   0.4   0.0   0.0   0.1   0.5   0.8   0.7   0.7  0.63  0.37  0.20  0.00  0.00   98.77   82.96    2.59    0.00    1.41
 1991 361   165     6     2    21.6   13.0   16551    4.9    8.1   0.4   0.4   0.3   0.3   0.3   0.2   0.3   0.4   0.0   0.0   0.1   0.5   0.6   0.7   0.7  0.63  0.38  0.20  0.00  0.00   99.61   83.48    2.59    0.00    1.41
 1991 362   166     6     2    21.6   12.9   16550    5.0    7.9   0.4   0.4   0.3   0.3   0.3   0.3   0.3   0.4   0.0   0.0   0.1   0.5   0.6   0.6   0.6  0.63  0.38  0.19  0.00  0.00  100.44   84.14    2.59    0.00    1.42
 1991 363   167     6     2    21.6   12.7   16550    4.9    7.8   0.4   0.4   0.3   0.3   0.3   0.3   0.3   0.4   0.0   0.0   0.1   0.5   0.6   0.6   0.6  0.62  0.38  0.19  0.00  0.00  101.26   84.77    2.59    0.00    1.42
 1991 364   168     6     2    21.6   12.5   16549    4.8    7.7   0.4   0.4   0.3   0.3   0.3   0.3   0.3   0.4   0.0   0.0   0.1   0.5   0.6   0.6   0.6  0.62  0.38  0.19  0.00  0.00  102.07   85.38    2.59    0.00    1.42
 1991 365   169     6     2    21.6   12.4   16548    4.8    7.6   0.4   0.4   0.3   0.3   0.3   0.3   0.3   0.3   0.0   0.0   0.1   0.5   0.6   0.6   0.6  0.62  0.38  0.19  0.00  0.00  102.90   86.00    2.59    0.00    1.42
 1992 001   170     6     2    21.6   12.4   16548    4.8    7.6   0.4   0.4   0.3   0.3   0.3   0.3   0.3   0.3   0.0   0.0   0.1   0.5   0.6   0.6   0.6  0.62  0.38  0.19  0.00  0.00  103.78   86.67    2.59    0.00    1.43
[...]
 1992 293    97     6     2     0.0   70.3   16599   58.7   11.5   1.8   5.3   6.0   8.2   5.3   1.7   2.1   1.8   0.0   0.0   0.1   0.5   0.6   0.4   0.5  1.66  0.41  0.18  0.00  0.00   46.85   60.76    0.00    0.00    0.66
 1992 294    98     6     2     0.0   69.6   16599   58.1   11.5   1.3   5.3   5.9   8.1   5.2   1.7   2.1   1.8   0.0   0.0   0.1   0.5   0.6   0.4   0.5  1.66  0.41  0.18  0.00  0.00   47.35   61.27    0.00    0.00    0.66
 1992 295    99     6     2     0.0   64.9   16598   53.5   11.4   1.2   4.3   4.8   7.5   4.9   1.7   2.2   1.8   0.0   0.0   0.1   0.5   0.6   0.4   0.5  1.64  0.41  0.18  0.00  0.00   47.83   61.74    0.00    0.00    0.66
 1992 296   100     6     2     0.0   61.3   16598   50.0   11.3   1.1   3.6   4.1   7.0   4.6   1.7   2.2   1.8   0.0   0.0   0.1   0.5   0.6   0.4   0.5  1.62  0.41  0.18  0.00  0.00   48.31   62.21    0.00    0.00    0.67
 1992 297   101     6     2     0.0   57.6   16597   46.5   11.1   1.0   3.0   3.4   6.5   4.4   1.7   2.2   1.8   0.0   0.0   0.1   0.5   0.6   0.4   0.5  1.58  0.41  0.18  0.00  0.00   48.80   62.69    0.00    0.00    0.67
 1992 298   102     6     2     0.0   52.7   16597   41.9   10.8   0.8   2.3   2.5   5.9   4.0   1.6   2.2   1.8   0.0   0.0   0.1   0.5   0.6   0.4   0.5  1.53  0.41  0.17  0.00  0.00   49.28   63.19    0.00    0.00    0.67
 1992 299   103     6     2     0.0   46.9   16597   36.5   10.4   0.6   1.5   1.6   5.1   3.5   1.5   2.2   1.8   0.0   0.0   0.1   0.4   0.6   0.4   0.5  1.44  0.40  0.17  0.00  0.00   49.78   63.72    0.00    0.00    0.68
 1992 300   104     6     2     0.0   45.1   16596   35.0   10.2   0.6   1.4   1.4   4.8   3.3   1.4   2.2   1.8   0.0   0.0   0.1   0.4   0.6   0.4   0.5  1.41  0.40  0.17  0.00  0.00   50.28   64.26    0.00    0.00    0.68
 1992 301   105     6     2     0.0   37.6   16596   28.1    9.5   0.5   0.6   0.5   3.6   2.6   1.2   2.2   1.8   0.0   0.0   0.1   0.4   0.5   0.4   0.5  1.27  0.40  0.17  0.00  0.00   50.78   64.82    0.00    0.00    0.68
 1992 302   106     6     2     0.0   33.0   16595   24.2    8.9   0.5   0.4   0.3   2.7   2.0   1.0   2.2   1.8   0.0   0.0   0.1   0.3   0.5   0.4   0.5  1.14  0.40  0.17  0.00  0.00   51.27   65.36    0.00    0.00    0.68
 1992 303   107     6     2     0.0   29.8   16595   21.4    8.4   0.3   0.3   0.3   2.1   1.6   0.9   2.3   1.8   0.0   0.0   0.1   0.3   0.5   0.4   0.5  1.04  0.40  0.17  0.00  0.00   51.72   65.82    0.00    0.00    0.68
 1992 304   108     6     2     0.0   27.4   16594   19.4    8.0   0.3   0.3   0.3   1.7   1.3   0.7   2.3   1.8   0.0   0.0   0.1   0.3   0.5   0.4   0.5  0.96  0.40  0.17  0.00  0.00   52.13   66.25    0.00    0.00    0.69
 1992 305   109     6     2     0.0   25.5   16594   17.9    7.6   0.3   0.3   0.3   1.4   1.0   0.6   2.3   1.8   0.0   0.0   0.1   0.3   0.5   0.4   0.4  0.88  0.40  0.16  0.00  0.00   52.51   66.65    0.00    0.00    0.69
 1992 306   110     6     2     0.0   24.1   16594   16.7    7.3   0.4   0.3   0.3   1.1   0.8   0.5   2.3   1.8   0.0   0.0   0.1   0.3   0.5   0.4   0.4  0.82  0.39  0.16  0.00  0.00   52.86   67.03    0.00    0.00    0.69
 1992 307   111     6     2     0.0   23.0   16593   15.9    7.1   0.4   0.3   0.3   1.0   0.7   0.4   2.3   1.8   0.0   0.0   0.1   0.2   0.5   0.4   0.4  0.77  0.39  0.16  0.00  0.00   53.18   67.38    0.00    0.00    0.69
 1992 308   112     6     2     0.0   22.2   16593   15.4    6.8   0.4   0.4   0.3   0.9   0.6   0.4   2.3   1.8   0.0   0.0   0.1   0.2   0.5   0.3   0.4  0.73  0.39  0.16  0.00  0.00   53.51   67.77    0.00    0.00    0.69
 1992 309   113     6     2     0.0   21.5   16593   14.7    6.7   0.3   0.3   0.3   0.8   0.5   0.3   2.3   1.8   0.0   0.0   0.2   0.2   0.5   0.3   0.4  0.69  0.39  0.16  0.00  0.00   53.91   68.10    0.00    0.00    0.70
 1992 310   114     6     2     0.0   21.0   16592   14.4    6.5   0.5   0.3   0.3   0.7   0.5   0.3   2.3   1.9   0.0   0.0   0.1   0.3   0.5   0.3   0.4  0.67  0.39  0.16  0.00  0.00   54.28   68.53    0.00    0.00    0.70
 1992 311   115     6     2     0.0   20.6   16592   14.2    6.4   0.4   0.3   0.3   0.6   0.4   0.3   2.3   1.9   0.0   0.0   0.1   0.3   0.5   0.3   0.4  0.64  0.39  0.16  0.00  0.00   54.62   68.88    0.00    0.00    0.70
 1992 312   116     6     2     0.0   20.3   16592   14.0    6.3   0.3   0.3   0.3   0.6   0.4   0.3   2.4   1.9   0.0   0.0   0.1   0.3   0.5   0.3   0.4  0.62  0.39  0.16  0.00  0.00   54.92   69.21    0.00    0.00    0.70
 1992 313   117     6     2     0.0   20.1   16591   13.9    6.1   0.3   0.3   0.3   0.5   0.4   0.3   2.4   1.9   0.0   0.0   0.1   0.3   0.5   0.3   0.4  0.61  0.39  0.16  0.00  0.00   55.18   69.50    0.00    0.00    0.71
 1992 314   118     6     2     0.0   19.9   16591   13.9    6.0   0.3   0.3   0.3   0.5   0.3   0.3   2.4   1.9   0.0   0.0   0.1   0.3   0.5   0.3   0.4  0.59  0.39  0.16  0.00  0.00   55.44   69.79    0.00    0.00    0.71
 1992 315   119     6     2     0.0   19.8   16591   13.9    5.9   0.4   0.3   0.3   0.5   0.3   0.3   2.4   1.9   0.0   0.0   0.1   0.2   0.4   0.3   0.3  0.58  0.39  0.16  0.00  0.00   55.71   70.12    0.00    0.00    0.71
 1992 316   120     6     2     0.0   19.8   16590   14.0    5.8   0.5   0.3   0.3   0.5   0.3   0.3   2.4   1.9   0.0   0.0   0.1   0.2   0.4   0.3   0.3  0.57  0.38  0.15  0.00  0.00   55.99   70.45    0.00    0.00    0.71
 1992 317   121     6     2     0.0   19.6   16590   13.9    5.7   0.3   0.3   0.3   0.5   0.3   0.3   2.4   1.9   0.0   0.0   0.1   0.2   0.4   0.3   0.3  0.56  0.38  0.15  0.00  0.00   56.30   70.79    0.00    0.00    0.71
 1992 318   122     6     2     0.0   19.6   16590   14.0    5.6   0.4   0.3   0.3   0.5   0.3   0.3   2.4   1.9   0.0   0.0   0.1   0.2   0.4   0.3   0.3  0.56  0.38  0.15  0.00  0.00   56.61   71.17    0.00    0.00    0.71
 1992 319   123     6     2     0.0   19.6   16590   14.1    5.5   0.5   0.3   0.3   0.5   0.3   0.3   2.4   1.9   0.0   0.0   0.1   0.2   0.4   0.3   0.3  0.55  0.38  0.15  0.00  0.00   56.91   71.53    0.00    0.00    0.72
 1992 320   124     6     2     0.0   19.1   16589   13.7    5.4   0.3   0.4   0.3   0.5   0.3   0.3   2.2   1.9   0.0   0.0   0.1   0.2   0.4   0.2   0.3  0.55  0.38  0.15  0.00  0.00   57.20   71.88    0.00    0.00    0.72
 1992 321   125     6     2     0.0   18.5   16589   13.0    5.5   0.2   0.3   0.3   0.5   0.3   0.3   2.0   1.9   0.0   0.0   0.2   0.3   0.4   0.2   0.3  0.54  0.38  0.15  0.00  0.00   57.66   72.19    0.00    0.00    0.72
 1992 322   126     6     2     0.0   18.1   16588   12.6    5.5   0.5   0.3   0.3   0.5   0.3   0.3   1.8   1.9   0.0   0.0   0.1   0.3   0.4   0.2   0.3  0.54  0.38  0.15  0.00  0.00   58.08   72.67    0.00    0.00    0.72
 1992 323   127     6     2     0.0   17.5   16588   12.0    5.5   0.3   0.3   0.3   0.5   0.3   0.3   1.5   1.9   0.0   0.0   0.1   0.3   0.4   0.2   0.3  0.54  0.38  0.15  0.00  0.00   58.46   73.03    0.00    0.00    0.73
 1992 324   128     6     2     0.0   17.0   16588   11.6    5.4   0.4   0.3   0.3   0.5   0.3   0.3   1.4   1.9   0.0   0.0   0.1   0.3   0.4   0.2   0.3  0.53  0.38  0.15  0.00  0.00   58.80   73.40    0.00    0.00    0.73
 1992 325   129     6     2     0.0   16.5   16587   11.2    5.3   0.4   0.3   0.3   0.5   0.3   0.3   1.2   1.9   0.0   0.0   0.1   0.3   0.4   0.2   0.3  0.53  0.37  0.15  0.00  0.00   59.10   73.75    0.00    0.00    0.73
 1992 326   130     6     2     0.0   16.1   16587   10.9    5.3   0.4   0.3   0.3   0.5   0.4   0.3   1.1   1.9   0.0   0.0   0.1   0.3   0.4   0.2   0.3  0.53  0.37  0.15  0.00  0.00   59.39   74.09    0.00    0.00    0.73
 1992 327   131     6     2     0.0   15.8   16587   10.6    5.2   0.3   0.3   0.3   0.5   0.4   0.3   0.9   1.9   0.0   0.0   0.1   0.3   0.4   0.2   0.2  0.53  0.37  0.15  0.00  0.00   59.68   74.43    0.00    0.00    0.73
 1992 328   132     6     2     0.0   15.5   16587   10.4    5.1   0.4   0.3   0.3   0.5   0.4   0.3   0.8   1.9   0.0   0.0   0.1   0.3   0.4   0.2   0.2  0.53  0.36  0.15  0.00  0.00   59.94   74.74    0.00    0.00    0.74
 1992 329   133     6     2     0.0   15.3   16586   10.3    5.1   0.5   0.3   0.3   0.6   0.4   0.3   0.7   1.9   0.0   0.0   0.1   0.2   0.4   0.2   0.2  0.53  0.36  0.15  0.00  0.00   60.18   75.04    0.00    0.00    0.74
 1992 330   134     6     2     0.0   15.2   16586   10.2    5.0   0.6   0.3   0.3   0.6   0.4   0.3   0.6   2.0   0.0   0.0   0.1   0.2   0.3   0.2   0.2  0.52  0.35  0.15  0.00  0.00   60.41   75.32    0.00    0.00    0.74
 1992 331   135     6     2     0.0   15.0   16586   10.1    4.9   0.6   0.3   0.3   0.6   0.4   0.3   0.6   2.0   0.0   0.0   0.1   0.2   0.3   0.2   0.2  0.52  0.35  0.14  0.00  0.00   60.62   75.58    0.00    0.00    0.74
 1992 332   136     6     2     0.0   15.0   16586   10.1    4.9   0.7   0.3   0.3   0.6   0.4   0.3   0.5   2.0   0.0   0.0   0.1   0.2   0.3   0.2   0.2  0.52  0.34  0.14  0.00  0.00   60.84   75.84    0.00    0.00    0.74
 1992 333   137     6     2     0.0   14.9   16586   10.1    4.8   0.7   0.3   0.3   0.6   0.4   0.3   0.5   2.0   0.0   0.0   0.0   0.2   0.3   0.2   0.2  0.52  0.33  0.14  0.00  0.00   61.05   76.11    0.00    0.00    0.74
 1992 334   138     6     2     0.0   14.9   16585   10.2    4.8   0.8   0.3   0.3   0.6   0.4   0.3   0.5   2.0   0.0   0.0   0.0   0.2   0.3   0.2   0.2  0.52  0.33  0.14  0.00  0.00   61.26   76.38    0.00    0.00    0.75
 1992 335   139     6     2     0.0   14.9   16585   10.2    4.7   0.4   0.5   0.4   0.6   0.5   0.3   0.4   2.0   0.0   0.0   0.0   0.2   0.3   0.2   0.2  0.52  0.32  0.14  0.00  0.00   61.48   76.65    0.00    0.00    0.75
 1992 336   140     6     2     0.0   14.8   16585   10.0    4.8   0.2   0.3   0.4   0.7   0.5   0.3   0.4   2.0   0.0   0.0   0.2   0.3   0.3   0.2   0.2  0.52  0.32  0.14  0.00  0.00   61.87   76.90    0.00    0.00    0.75
 1992 337   141     6     2     0.0   15.0   16584   10.1    4.8   0.5   0.3   0.4   0.7   0.5   0.3   0.4   2.0   0.0   0.0   0.1   0.3   0.3   0.2   0.2  0.52  0.31  0.14  0.00  0.00   62.27   77.31    0.00    0.00    0.75
 1992 338   142     6     2     0.0   14.7   16584    9.9    4.8   0.4   0.4   0.4   0.7   0.5   0.3   0.4   1.9   0.0   0.0   0.1   0.3   0.3   0.2   0.2  0.52  0.30  0.14  0.00  0.00   62.62   77.67    0.00    0.00    0.75
 1992 339   143     6     2     0.0   14.4   16584    9.7    4.8   0.4   0.4   0.4   0.7   0.5   0.3   0.3   1.8   0.0   0.0   0.1   0.3   0.3   0.2   0.2  0.52  0.30  0.14  0.00  0.00   62.94   78.03    0.00    0.00    0.75
 1992 340   144     6     2     0.0   14.1   16583    9.4    4.7   0.4   0.4   0.4   0.7   0.5   0.3   0.3   1.7   0.0   0.0   0.1   0.3   0.3   0.2   0.2  0.51  0.29  0.14  0.00  0.00   63.23   78.38    0.00    0.00    0.76
 1992 341   145     6     2     0.0   13.8   16583    9.2    4.6   0.2   0.4   0.4   0.7   0.5   0.3   0.3   1.6   0.0   0.0   0.1   0.3   0.3   0.2   0.2  0.51  0.29  0.14  0.00  0.00   63.50   78.71    0.00    0.00    0.76
 1992 342   146     6     2     0.0   13.6   16583    8.8    4.8   0.3   0.3   0.4   0.7   0.5   0.3   0.3   1.5   0.0   0.0   0.1   0.4   0.3   0.2   0.2  0.51  0.28  0.14  0.00  0.00   63.91   78.96    0.00    0.00    0.76
 1992 343   147     6     2     0.0   13.5   16582    8.7    4.8   0.4   0.4   0.3   0.8   0.6   0.3   0.3   1.4   0.0   0.0   0.1   0.4   0.3   0.2   0.2  0.51  0.28  0.14  0.00  0.00   64.33   79.40    0.00    0.00    0.76
 1992 344   148     6     2     0.0   13.2   16582    8.5    4.7   0.4   0.4   0.3   0.8   0.6   0.3   0.3   1.3   0.0   0.0   0.1   0.4   0.3   0.2   0.2  0.51  0.27  0.14  0.00  0.00   64.74   79.82    0.00    0.00    0.77
 1992 345   149     6     2     0.0   13.0   16582    8.3    4.7   0.4   0.4   0.3   0.8   0.6   0.3   0.3   1.2   0.0   0.0   0.1   0.4   0.3   0.2   0.2  0.51  0.27  0.14  0.00  0.00   65.11   80.23    0.00    0.00    0.77
 1992 346   150     6     2     0.0   12.8   16581    8.2    4.6   0.4   0.4   0.3   0.8   0.6   0.3   0.3   1.1   0.0   0.0   0.1   0.4   0.3   0.2   0.2  0.51  0.26  0.14  0.00  0.00   65.44   80.63    0.00    0.00    0.77
 1992 347   151     6     2     0.0   12.6   16581    8.0    4.6   0.4   0.4   0.3   0.8   0.6   0.3   0.3   1.1   0.0   0.0   0.1   0.3   0.3   0.2   0.2  0.51  0.26  0.13  0.00  0.00   65.74   80.99    0.00    0.00    0.77
 1992 348   152     6     2     0.0   12.5   16581    8.0    4.5   0.5   0.4   0.3   0.8   0.6   0.3   0.3   1.0   0.0   0.0   0.1   0.3   0.3   0.2   0.2  0.51  0.25  0.13  0.00  0.00   66.01   81.34    0.00    0.00    0.77
 1992 349   153     6     2     0.0   12.4   16580    8.0    4.4   0.5   0.3   0.3   0.8   0.6   0.3   0.3   1.0   0.0   0.0   0.1   0.3   0.3   0.2   0.2  0.51  0.25  0.13  0.00  0.00   66.28   81.67    0.00    0.00    0.78
 1992 350   154     6     2     0.0   12.3   16580    7.9    4.4   0.6   0.3   0.3   0.8   0.6   0.3   0.3   0.9   0.0   0.0   0.0   0.2   0.3   0.1   0.2  0.51  0.24  0.13  0.00  0.00   66.53   81.98    0.00    0.00    0.78
 1992 351   155     6     2     0.0   12.2   16580    7.9    4.3   0.7   0.3   0.3   0.9   0.6   0.3   0.3   0.8   0.0   0.0   0.0   0.2   0.3   0.1   0.2  0.51  0.24  0.13  0.00  0.00   66.78   82.28    0.00    0.00    0.78
 1992 352   156     6     2     0.0   12.1   16580    7.9    4.3   0.7   0.3   0.3   0.9   0.7   0.3   0.3   0.8   0.0   0.0   0.0   0.2   0.3   0.1   0.2  0.50  0.23  0.12  0.00  0.00   67.01   82.57    0.00    0.00    0.78
 1992 353   157     6     2     0.0   12.1   16579    7.9    4.2   0.8   0.3   0.3   0.9   0.7   0.3   0.3   0.7   0.0   0.0   0.0   0.2   0.3   0.1   0.2  0.50  0.23  0.12  0.00  0.00   67.24   82.85    0.00    0.00    0.78
 1992 354   158     6     2     0.0   12.0   16579    7.9    4.2   0.8   0.3   0.3   0.9   0.7   0.3   0.3   0.7   0.0   0.0   0.0   0.2   0.3   0.1   0.2  0.50  0.22  0.12  0.00  0.00   67.47   83.11    0.00    0.00    0.78
 1992 355   159     6     2     0.0   12.0   16579    7.9    4.1   0.9   0.3   0.3   0.9   0.7   0.3   0.3   0.7   0.0   0.0   0.0   0.2   0.3   0.1   0.2  0.50  0.22  0.12  0.00  0.00   67.69   83.38    0.00    0.00    0.78
 1992 356   160     6     2     0.0   12.0   16579    8.0    4.1   0.9   0.3   0.3   0.9   0.7   0.3   0.3   0.6   0.0   0.0   0.0   0.1   0.3   0.1   0.2  0.50  0.21  0.12  0.00  0.00   67.91   83.64    0.00    0.00    0.78
 1992 357   161     6     2     0.0   12.1   16579    8.0    4.0   1.0   0.3   0.4   0.9   0.7   0.3   0.3   0.6   0.0   0.0   0.0   0.1   0.3   0.1   0.2  0.50  0.21  0.11  0.00  0.00   68.14   83.91    0.00    0.00    0.78
 1992 358   162     6     2     0.0   12.1   16578    8.1    4.0   0.9   0.3   0.4   1.0   0.7   0.3   0.3   0.6   0.0   0.0   0.1   0.1   0.3   0.1   0.1  0.50  0.21  0.11  0.00  0.00   68.41   84.17    0.00    0.00    0.78
 1992 359   163     6     2     0.0   12.2   16578    8.3    4.0   0.6   0.6   0.4   1.0   0.7   0.3   0.3   0.5   0.0   0.0   0.0   0.1   0.3   0.1   0.1  0.50  0.20  0.11  0.00  0.00   68.66   84.49    0.00    0.00    0.78
 1992 360   164     6     2     0.0   12.0   16578    7.9    4.1   0.3   0.3   0.5   1.0   0.7   0.4   0.3   0.5   0.0   0.0   0.2   0.2   0.3   0.1   0.1  0.50  0.20  0.11  0.00  0.00   69.08   84.75    0.00    0.00    0.79
 1992 361   165     6     2     0.0   12.2   16577    8.1    4.2   0.5   0.3   0.5   1.0   0.7   0.4   0.3   0.5   0.0   0.0   0.1   0.3   0.3   0.1   0.1  0.50  0.19  0.11  0.00  0.00   69.50   85.14    0.00    0.00    0.79
 1992 362   166     6     2     0.0   12.2   16577    8.1    4.2   0.4   0.4   0.5   1.0   0.8   0.4   0.3   0.5   0.0   0.0   0.1   0.3   0.3   0.1   0.1  0.50  0.19  0.10  0.00  0.00   69.86   85.48    0.00    0.00    0.79
 1992 363   167     6     2     0.0   12.2   16577    8.1    4.1   0.4   0.4   0.5   1.0   0.8   0.4   0.3   0.4   0.0   0.0   0.1   0.3   0.3   0.1   0.1  0.50  0.19  0.10  0.00  0.00   70.17   85.84    0.00    0.00    0.79
 1992 364   168     6     2     0.0   12.2   16576    8.2    4.1   0.5   0.4   0.4   1.0   0.8   0.4   0.3   0.4   0.0   0.0   0.1   0.3   0.3   0.1   0.1  0.50  0.19  0.10  0.00  0.00   70.44   86.18    0.00    0.00    0.80
 1992 365   169     6     2     0.0   12.3   16576    8.2    4.0   0.6   0.3   0.4   1.0   0.8   0.4   0.3   0.4   0.0   0.0   0.1   0.3   0.3   0.1   0.1  0.49  0.18  0.10  0.00  0.00   70.70   86.49    0.00    0.00    0.80
 1992 366   170     6     2     0.0   12.1   16576    8.1    4.0   0.0   0.3   0.6   1.1   0.8   0.4   0.3   0.4   0.0   0.0   0.1   0.2   0.3   0.1   0.1  0.49  0.18  0.10  0.00  0.00   70.97   86.78    0.00    0.00    0.80
 1993 001   171     6     2     0.0   12.0   16575    7.7    4.3   0.1   0.1   0.1   0.7   1.1   0.5   0.3   0.4   0.0   0.0   0.1   0.4   0.4   0.1   0.1  0.49  0.18  0.10  0.00  0.00   71.47   87.01    0.00    0.00    0.80
 1993 002   172     6     2     0.0   11.7   16575    7.0    4.7   0.1   0.1   0.1   0.6   1.0   0.5   0.3   0.4   0.0   0.0   0.2   0.5   0.5   0.2   0.2  0.49  0.17  0.09  0.00  0.00   71.99   87.09    0.00    0.00    0.80
 1993 003   173     6     2     0.0   11.3   16574    6.3    5.1   0.2   0.1   0.1   0.5   0.8   0.4   0.3   0.3   0.0   0.0   0.3   0.6   0.6   0.2   0.2  0.49  0.17  0.09  0.00  0.00   72.48   87.20    0.00    0.00    0.81
 1993 004   174     6     2     0.0   11.0   16574    5.7    5.4   0.2   0.2   0.1   0.3   0.6   0.4   0.3   0.3   0.0   0.0   0.4   0.7   0.6   0.2   0.2  0.49  0.17  0.09  0.00  0.00   72.97   87.32    0.00    0.00    0.81
 1993 005   175     6     2     0.0   10.8   16573    5.3    5.5   0.6   0.2   0.1   0.3   0.5   0.4   0.4   0.3   0.0   0.0   0.1   0.7   0.7   0.2   0.2  0.49  0.17  0.09  0.00  0.00   73.48   87.62    0.00    0.00    0.82
 1993 006   176     6     2     0.0   10.3   16573    4.8    5.6   0.4   0.2   0.1   0.2   0.4   0.3   0.4   0.3   0.0   0.0   0.1   0.7   0.7   0.3   0.2  0.49  0.16  0.09  0.00  0.00   74.06   87.82    0.01    0.00    0.83
 1993 007   177     6     2     0.0   10.0   16572    4.6    5.4   0.4   0.4   0.2   0.3   0.3   0.3   0.3   0.3   0.0   0.0   0.1   0.5   0.7   0.3   0.2  0.49  0.16  0.09  0.00  0.00   74.70   88.26    0.01    0.00    0.83
 1993 008   178     6     2     0.0    9.9   16571    4.6    5.4   0.2   0.4   0.3   0.3   0.3   0.3   0.3   0.3   0.0   0.0   0.1   0.5   0.6   0.3   0.3  0.50  0.16  0.09  0.00  0.00   75.39   88.77    0.01    0.00    0.83
 1993 009   179     6     2     0.0   10.2   16571    4.3    5.8   0.4   0.3   0.3   0.2   0.2   0.3   0.3   0.3   0.0   0.0   0.1   0.6   0.7   0.4   0.3  0.51  0.15  0.08  0.00  0.00   76.14   88.98    0.01    0.00    0.83
 1993 010   180     6     2     0.0   10.4   16570    4.3    6.1   0.4   0.3   0.3   0.3   0.2   0.3   0.3   0.3   0.0   0.0   0.1   0.7   0.7   0.4   0.3  0.51  0.15  0.08  0.00  0.00   76.90   89.24    0.01    0.00    0.84
 1993 011   181     6     2     0.0   10.5   16569    4.6    5.9   0.4   0.5   0.4   0.3   0.3   0.3   0.3   0.3   0.0   0.0   0.1   0.5   0.7   0.4   0.4  0.52  0.15  0.08  0.00  0.00   77.69   89.87    0.01    0.00    0.84
 1993 012   182     6     2     0.0   10.5   16569    4.6    5.9   0.4   0.4   0.3   0.3   0.3   0.3   0.3   0.3   0.0   0.0   0.1   0.5   0.6   0.5   0.4  0.53  0.15  0.08  0.00  0.00   78.49   90.48    0.01    0.00    0.84
 1993 013   183     6     2     0.0   11.3   16568    5.3    6.1   0.6   0.6   0.4   0.3   0.3   0.3   0.3   0.3   0.0   0.0   0.1   0.5   0.7   0.5   0.4  0.54  0.14  0.08  0.00  0.00   79.34   91.12    0.01    0.00    0.84
 1993 014   184     6     2     0.0   12.2   16567    5.9    6.3   0.8   0.8   0.5   0.4   0.3   0.3   0.3   0.3   0.0   0.0   0.1   0.5   0.8   0.5   0.4  0.56  0.14  0.08  0.00  0.00   80.23   91.82    0.01    0.00    0.85
