*GROWTH ASPECTS OUTPUT FILE

*DSSAT Cropping System Model Ver. 4.0.2.000               Aug 12, 2016; 12:47:50

*RUN   1        : UYMZ                    
 MODEL          : MZCER040 - Maize           
 EXPERIMENT     : UYMZ0195 MZ    late to create DSS                             
 TREATMENT  1   : UYMZ                    

@YEAR DOY   DAS   DAP   L#SD   GSTD   LAID   LWAD   SWAD   GWAD   RWAD   CWAD   G#AD   GWGD   HIAD   PWAD   P#AD   WSPD   WSGD   NSTD   EWSD   LN%D   SH%D   HIPD   PWDD   PWTD     SLAD   CHTD   CWID   RDPD   RL1D   RL2D   RL3D   RL4D   RL5D   RL6D   RL7D   RL8D   RL9D   RL10   CDAD   LDAD   SDAD   SNW0C   SNW1C
 2000 100     3     0    0.0      0   0.00      0      0      0      0      0      0    0.0  0.000      0      0  0.000  0.000  0.000  0.000   0.00   0.00   0.00      0      0      0.0   0.00   0.00   0.03   0.00   0.00   0.00   0.00   0.00   0.00   0.00   0.00   0.00   0.00      0      0      0       0       0
 2000 101     4     1    0.0      0   0.00      0      0      0      0      0      0    0.0  0.000      0      0  0.000  0.000  0.000  0.000   0.00   0.00   0.00      0      0      0.0   0.00   0.00   0.04   0.00   0.00   0.00   0.00   0.00   0.00   0.00   0.00   0.00   0.00      0      0      0       0       0
 2000 102     5     2    0.0      0   0.00      0      0      0      0      0      0    0.0  0.000      0      0  0.000  0.000  0.000  0.000   0.00   0.00   0.00      0      0      0.0   0.00   0.00   0.06   0.00   0.00   0.00   0.00   0.00   0.00   0.00   0.00   0.00   0.00      0      0      0       0       0
 2000 103     6     3    0.0      0   0.00      0      0      0      0      0      0    0.0  0.000      0      0  0.000  0.000  0.000  0.000   0.00   0.00   0.00      0      0      0.0   0.00   0.00   0.07   0.00   0.00   0.00   0.00   0.00   0.00   0.00   0.00   0.00   0.00      0      0      0       0       0
 2000 104     7     4    0.0      0   0.00      0      0      0      0      0      0    0.0  0.000      0      0  0.000  0.000  0.000  0.000   0.00   0.00   0.00      0      0      0.0   0.00   0.00   0.08   0.00   0.00   0.00   0.00   0.00   0.00   0.00   0.00   0.00   0.00      0      0      0       0       0
 2000 105     8     5    0.0      0   0.00      0      0      0      0      0      0    0.0  0.000      0      0  0.000  0.000  0.000  0.000   0.00   0.00   0.00      0      0      0.0   0.00   0.00   0.10   0.00   0.00   0.00   0.00   0.00   0.00   0.00   0.00   0.00   0.00      0      0      0       0       0
 2000 106     9     6    0.0      0   0.00      0      0      0      0      0      0    0.0  0.000      0      0  0.000  0.000  0.000  0.000   0.00   0.00   0.00      0      0      0.0   0.00   0.00   0.12   0.00   0.00   0.00   0.00   0.00   0.00   0.00   0.00   0.00   0.00      0      0      0       0       0
 2000 107    10     7    0.0      0   0.00      0      0      0      0      0      0    0.0  0.000      0      0  0.000  0.000  0.000  0.000   0.00   0.00   0.00      0      0      0.0   0.00   0.00   0.13   0.00   0.00   0.00   0.00   0.00   0.00   0.00   0.00   0.00   0.00      0      0      0       0       0
 2000 108    11     8    1.0      1   0.00     14     14      0     14     28      0    0.0  0.000      0      0  0.000  0.000  0.012  0.000   4.40   0.00   0.00      0      0     19.4   0.00   0.00   0.14   0.28   0.11   0.00   0.00   0.00   0.00   0.00   0.00   0.00   0.00      0      0      0       0       0
 2000 109    12     9    2.0      1   0.00     14     14      0     14     28      0    0.0  0.000      0      0  0.000  0.000  0.013  0.000   4.50   0.00   0.00      0      0     34.6   0.00   0.00   0.15   0.27   0.11   0.00   0.00   0.00   0.00   0.00   0.00   0.00   0.00      0      0      0       0       0
 2000 110    13    10    2.0      1   0.01     14     14      0     14     28      0    0.0  0.000      0      0  0.000  0.000  0.000  0.000   4.50   0.00   0.00      0      0     51.0   0.00   0.00   0.16   0.24   0.10   0.00   0.00   0.00   0.00   0.00   0.00   0.00   0.00      0      0      0       0       0
 2000 111    14    11    2.0      1   0.01     14     14      0     15     28      0    0.0  0.000      0      0  0.000  0.000  0.000  0.463   4.50   0.00   0.00      0      0     61.5   0.00   0.00   0.17   0.22   0.10   0.00   0.00   0.00   0.00   0.00   0.00   0.00   0.00      0      0      0       0       0
 2000 112    15    12    3.0      1   0.01     14     14      0     16     28      0    0.0  0.000      0      0  0.000  0.000  0.000  0.093   4.40   0.00   0.00      0      0     79.2   0.00   0.00   0.18   0.21   0.12   0.01   0.00   0.00   0.00   0.00   0.00   0.00   0.00      0      0      0       0       0
 2000 113    16    13    3.0      1   0.01     14     14      0     18     28      0    0.0  0.000      0      0  0.000  0.000  0.000  0.000   4.36   0.00   0.00      0      0     98.7   0.00   0.00   0.19   0.21   0.13   0.01   0.00   0.00   0.00   0.00   0.00   0.00   0.00      0      0      0       0       0
 2000 114    17    14    3.0      1   0.02     14     14      0     20     28      0    0.0  0.000      0      0  0.000  0.000  0.000  0.000   4.32   0.00   0.00      0      0    123.9   0.00   0.00   0.20   0.21   0.15   0.03   0.00   0.00   0.00   0.00   0.00   0.00   0.00      0      0      0       0       0
 2000 115    18    15    4.0      1   0.03     14     14      0     22     28      0    0.0  0.000      0      0  0.000  0.000  0.000  0.000   4.28   0.00   0.00      0      0    218.9   0.00   0.00   0.21   0.21   0.18   0.04   0.00   0.00   0.00   0.00   0.00   0.00   0.00      0      0      0       0       0
 2000 116    19    16    4.0      1   0.04     14     14      0     27     28      0    0.0  0.000      0      0  0.000  0.000  0.000  0.000   4.24   0.00   0.00      0      0    319.6   0.00   0.00   0.22   0.21   0.22   0.07   0.00   0.00   0.00   0.00   0.00   0.00   0.00      0      0      0       0       0
 2000 117    20    17    4.0      1   0.06     19     14      0     30     33      0    0.0  0.000      0      0  0.000  0.000  0.000  0.000   3.57   0.00   0.00      0      0    322.8   0.00   0.00   0.23   0.21   0.24   0.09   0.00   0.00   0.00   0.00   0.00   0.00   0.00      0      0      0       0       1
 2000 118    21    18    5.0      1   0.08     26     14      0     30     40      0    0.0  0.000      0      0  0.000  0.000  0.000  0.000   3.44   0.00   0.00      0      0    303.2   0.00   0.00   0.24   0.20   0.25   0.10   0.00   0.00   0.00   0.00   0.00   0.00   0.00      0      0      0       0       1
 2000 119    22    19    5.0      1   0.10     35     14      0     34     49      0    0.0  0.000      0      0  0.000  0.000  0.000  0.000   3.34   0.00   0.00      0      0    284.9   0.00   0.00   0.25   0.20   0.27   0.13   0.00   0.00   0.00   0.00   0.00   0.00   0.00      0      0      0       0       1
 2000 120    23    20    5.0      1   0.12     44     14      0     37     58      0    0.0  0.000      0      0  0.000  0.000  0.000  0.000   3.44   0.00   0.00      0      0    271.8   0.00   0.00   0.26   0.20   0.29   0.16   0.00   0.00   0.00   0.00   0.00   0.00   0.00      0      0      0       0       1
 2000 121    24    21    6.0      1   0.14     54     14      0     39     68      0    0.0  0.000      0      0  0.000  0.000  0.000  0.000   3.45   0.00   0.00      0      0    260.7   0.00   0.00   0.27   0.20   0.30   0.17   0.00   0.00   0.00   0.00   0.00   0.00   0.00      0      0      0       0       1
 2000 122    25    22    6.0      1   0.17     66     14      0     41     80      0    0.0  0.000      0      0  0.000  0.000  0.000  0.000   3.41   0.00   0.00      0      0    250.3   0.00   0.00   0.28   0.20   0.31   0.19   0.00   0.00   0.00   0.00   0.00   0.00   0.00      0      0      0       0       1
 2000 123    26    23    6.0      1   0.18     74     14      0     48     88      0    0.0  0.000      0      0  0.000  0.000  0.000  0.000   3.15   0.00   0.00      0      0    244.5   0.00   0.00   0.29   0.18   0.30   0.24   0.00   0.00   0.00   0.00   0.00   0.00   0.00      0      0      0       0       2
 2000 124    27    24    6.0      1   0.19     80     14      0     62     94      0    0.0  0.000      0      0  0.000  0.000  0.069  0.202   3.69   0.00   0.00      0      0    238.9   0.00   0.00   0.29   0.18   0.33   0.38   0.00   0.00   0.00   0.00   0.00   0.00   0.00      0      0      0       0       2
 2000 125    28    25    6.0      1   0.20     85     14      0     66     99      0    0.0  0.000      0      0  0.000  0.000  0.000  0.434   3.71   0.00   0.00      0      0    236.2   0.00   0.00   0.30   0.17   0.32   0.40   0.00   0.00   0.00   0.00   0.00   0.00   0.00      0      0      0       0       2
 2000 126    29    26    7.0      1   0.21     89     14      0     80    103      0    0.0  0.000      0      0  0.000  0.000  0.000  0.603   3.75   0.00   0.00      0      0    234.3   0.00   0.00   0.30   0.15   0.30   0.51   0.00   0.00   0.00   0.00   0.00   0.00   0.00      0      0      0       0       3
 2000 127    30    27    7.0      2   0.21     83     14      0    102     97      0    0.0  0.000      0      0  0.000  0.000  0.000  0.916   4.00   0.00   0.00      0      0    254.2   0.00   0.00   0.31   0.15   0.28   0.70   0.01   0.00   0.00   0.00   0.00   0.00   0.00      0      0      0       0       3
 2000 128    31    28    7.0      2   0.22     90     14      0    113    104      0    0.0  0.000      0      0  0.000  0.128  0.020  0.268   3.64   0.00   0.00      0      0    249.8   0.00   0.00   0.31   0.14   0.27   0.78   0.02   0.00   0.00   0.00   0.00   0.00   0.00      0      0      0       0       3
 2000 129    32    29    7.0      2   0.24    100     14      0    131    114      0    0.0  0.000      0      0  0.000  0.000  0.000  0.006   3.48   0.00   0.00      0      0    245.1   0.00   0.00   0.32   0.15   0.27   0.95   0.04   0.00   0.00   0.00   0.00   0.00   0.00      0      0      0       0       4
 2000 130    33    30    7.0      2   0.26    109     14      0    151    123      0    0.0  0.000      0      0  0.000  0.000  0.000  0.006   3.79   0.00   0.00      0      0    240.9   0.00   0.00   0.32   0.16   0.27   1.15   0.07   0.00   0.00   0.00   0.00   0.00   0.00      0      0      0       0       5
 2000 131    34    31    7.0      3   0.28    120     14      0    173    134      0    0.0  0.000      0      0  0.000  0.000  0.022  0.005   3.68   0.00   0.00      0      0    234.5   0.00   0.00   0.32   0.17   0.29   1.36   0.11   0.00   0.00   0.00   0.00   0.00   0.00      0      0      0       0       5
 2000 132    35    32    7.0      3   0.30    129     14      0    190    143      0    0.0  0.000      0      0  0.000  0.000  0.022  0.003   3.59   0.00   0.00      0      0    230.6   0.00   0.00   0.33   0.18   0.30   1.52   0.16   0.00   0.00   0.00   0.00   0.00   0.00      0      0      0       0       6
 2000 133    36    33    8.0      3   0.33    148     14      0    203    162      0    0.0  0.000      0      0  0.000  0.000  0.022  0.001   3.55   0.00   0.00      0      0    224.4   0.00   0.00   0.34   0.19   0.30   1.63   0.20   0.00   0.00   0.00   0.00   0.00   0.00      0      0      0       0       7
 2000 134    37    34    8.0      3   0.37    167     14      0    217    181      0    0.0  0.000      0      0  0.000  0.000  0.022  0.000   3.52   0.00   0.00      0      0    219.0   0.00   0.00   0.35   0.20   0.31   1.74   0.27   0.00   0.00   0.00   0.00   0.00   0.00      0      0      0       0       8
 2000 135    38    35    8.0      3   0.40    188     15      0    218    203      0    0.0  0.000      0      0  0.000  0.000  0.022  0.000   3.48   0.00   0.00      0      0    213.8   0.00   0.00   0.36   0.20   0.31   1.75   0.28   0.00   0.00   0.00   0.00   0.00   0.00      0      0      0       0       9
 2000 136    39    36    8.0      3   0.44    209     15      0    219    224      0    0.0  0.000      0      0  0.000  0.000  0.022  0.000   3.45   0.00   0.00      0      0    209.2   0.00   0.00   0.38   0.20   0.31   1.75   0.29   0.00   0.00   0.00   0.00   0.00   0.00      0      0      0       0      10
 2000 137    40    37    8.0      3   0.47    231     16      0    219    247      0    0.0  0.000      0      0  0.000  0.000  0.022  0.000   3.42   0.00   0.00      0      0    204.8   0.00   0.00   0.39   0.19   0.29   1.65   0.28   0.00   0.00   0.00   0.00   0.00   0.00      0      0      0       0      12
 2000 138    41    38    9.0      3   0.51    251     17      0    221    268      0    0.0  0.000      0      0  0.000  0.000  0.022  0.000   3.16   0.00   0.00      0      0    201.3   0.00   0.00   0.39   0.17   0.26   1.49   0.27   0.00   0.00   0.00   0.00   0.00   0.00      0      0      0       0      13
 2000 139    42    39    9.0      3   0.53    268     18      0    251    286      0    0.0  0.000      0      0  0.000  0.000  0.022  0.322   3.14   0.00   0.00      0      0    198.3   0.00   0.00   0.41   0.19   0.27   1.47   0.47   0.00   0.00   0.00   0.00   0.00   0.00      0      0      0       0      14
 2000 140    43    40    9.0      3   0.57    290     19      0    284    309      0    0.0  0.000      0      0  0.000  0.000  0.022  0.109   3.13   0.00   0.00      0      0    195.1   0.00   0.00   0.41   0.22   0.30   1.43   0.78   0.00   0.00   0.00   0.00   0.00   0.00      0      0      0       0      15
 2000 141    44    41    9.0      3   0.59    305     20      0    305    325      0    0.0  0.000      0      0  0.000  0.000  0.022  0.141   3.15   0.00   0.00      0      0    192.8   0.00   0.00   0.42   0.24   0.32   1.38   0.96   0.00   0.00   0.00   0.00   0.00   0.00      0      0      0       0      16
 2000 142    45    42    9.0      3   0.62    329     22      0    339    351      0    0.0  0.000      0      0  0.000  0.000  0.022  0.085   3.09   0.00   0.00      0      0    189.8   0.00   0.00   0.43   0.30   0.38   1.40   1.27   0.00   0.00   0.00   0.00   0.00   0.00      0      0      0       0      18
 2000 143    46    43    9.0      3   0.66    353     25      0    369    378      0    0.0  0.000      0      0  0.000  0.000  0.022  0.041   3.02   0.00   0.00      0      0    186.9   0.00   0.00   0.44   0.37   0.44   1.44   1.51   0.00   0.00   0.00   0.00   0.00   0.00      0      0      0       0      20
 2000 144    47    44   10.0      3   0.69    376     28      0    407    403      0    0.0  0.000      0      0  0.000  0.000  0.022  0.000   2.93   0.00   0.00      0      0    184.4   0.00   0.00   0.45   0.50   0.58   1.55   1.78   0.00   0.00   0.00   0.00   0.00   0.00      0      0      0       0      21
 2000 145    48    45   10.0      3   0.73    400     31      0    436    431      0    0.0  0.000      0      0  0.000  0.000  0.025  0.000   2.83   0.00   0.00      0      0    181.8   0.00   0.00   0.45   0.66   0.73   1.67   1.89   0.00   0.00   0.00   0.00   0.00   0.00      0      0      0       0      23
 2000 146    49    46   10.0      3   0.76    425     34      0    436    460      0    0.0  0.000      0      0  0.000  0.000  0.028  0.000   2.74   0.00   0.00      0      0    179.3   0.00   0.00   0.46   0.66   0.73   1.65   1.88   0.01   0.00   0.00   0.00   0.00   0.00      0      0      0       0      26
 2000 147    50    47   10.0      3   0.81    457     40      0    477    497      0    0.0  0.000      0      0  0.000  0.000  0.032  0.001   2.55   0.00   0.00      0      0    176.5   0.00   0.00   0.47   0.74   0.80   1.65   1.81   0.26   0.00   0.00   0.00   0.00   0.00      0      0      0       0      28
 2000 148    51    48   10.0      3   0.83    477     43      0    517    520      0    0.0  0.000      0      0  0.000  0.000  0.039  0.021   2.59   0.00   0.00      0      0    174.3   0.00   0.00   0.48   0.82   0.88   1.67   1.78   0.52   0.00   0.00   0.00   0.00   0.00      0      0      0       0      30
 2000 149    52    49   10.0      3   0.85    493     46      0    553    539      0    0.0  0.000      0      0  0.000  0.000  0.041  0.112   2.65   0.00   0.00      0      0    172.5   0.00   0.00   0.48   0.91   0.97   1.72   1.78   0.75   0.00   0.00   0.00   0.00   0.00      0      0      0       0      33
 2000 150    53    50   10.0      3   0.84    506     49      0    582    555      0    0.0  0.000      0      0  0.000  0.000  0.038  0.054   2.71   0.00   0.00      0      0    166.2   0.00   0.00   0.49   0.99   1.05   1.77   1.80   0.91   0.00   0.00   0.00   0.00   0.00      0      0      0       0      36
 2000 151    54    51   11.0      3   0.88    538     56      0    617    594      0    0.0  0.000      0      0  0.000  0.000  0.035  0.015   2.64   0.00   0.00      0      0    164.1   0.00   0.00   0.49   1.11   1.17   1.86   1.84   1.10   0.00   0.00   0.00   0.00   0.00      0      0      0       0      39
 2000 152    55    52   11.0      3   0.90    556     60      0    636    616      0    0.0  0.000      0      0  0.000  0.000  0.033  0.009   2.63   0.00   0.00      0      0    162.7   0.00   0.00   0.50   1.18   1.24   1.91   1.85   1.19   0.00   0.00   0.00   0.00   0.00      0      0      0       0      42
 2000 153    56    53   11.0      3   0.81    565     62      0    657    628      0    0.0  0.000      0      0  0.000  0.000  0.037  0.005   2.65   0.00   0.00      0      0    143.5   0.00   0.00   0.50   1.28   1.34   1.98   1.89   1.25   0.00   0.00   0.00   0.00   0.00      0      0      0       0      45
 2000 154    57    54   11.0      3   0.59    576     65      0    679    641      0    0.0  0.000      0      0  0.000  0.000  0.039  0.000   2.66   0.00   0.00      0      0    101.6   0.00   0.00   0.50   1.39   1.45   2.08   1.93   1.30   0.00   0.00   0.00   0.00   0.00      0      0      0       0      48
 2000 155    58    55   11.0      3   0.50    596     70      0    702    666      0    0.0  0.000      0      0  0.000  0.000  0.037  0.000   2.61   0.00   0.00      0      0     84.7   0.00   0.00   0.51   1.53   1.59   2.18   1.99   1.31   0.00   0.00   0.00   0.00   0.00      0      0      0       0      51
 2000 156    59    56   11.0      3   0.55    628     79      0    706    707      0    0.0  0.000      0      0  0.000  0.000  0.036  0.000   2.51   0.00   0.00      0      0     87.1   0.00   0.00   0.52   1.56   1.62   2.20   1.99   1.31   0.00   0.00   0.00   0.00   0.00      0      0      0       0      55
 2000 157    60    57   11.0      3   0.59    661     90      0    705    751      0    0.0  0.000      0      0  0.000  0.000  0.038  0.000   2.40   0.00   0.00      0      0     89.2   0.00   0.00   0.53   1.57   1.62   2.20   1.99   1.31   0.00   0.00   0.00   0.00   0.00      0      0      0       0      58
 2000 158    61    58   11.0      3   0.61    681     96      0    703    777      0    0.0  0.000      0      0  0.000  0.000  0.044  0.000   2.35   0.00   0.00      0      0     90.0   0.00   0.00   0.53   1.56   1.62   2.20   1.98   1.30   0.00   0.00   0.00   0.00   0.00      0      0      0       0      62
 2000 159    62    59   12.0      3   0.63    700    103      0    701    803      0    0.0  0.000      0      0  0.000  0.000  0.050  0.000   2.30   0.00   0.00      0      0     90.7   0.00   0.00   0.54   1.56   1.62   2.19   1.97   1.30   0.00   0.00   0.00   0.00   0.00      0      0      0       0      66
 2000 160    63    60   12.0      3   0.66    725    114      0    699    839      0    0.0  0.000      0      0  0.000  0.000  0.052  0.000   2.24   0.00   0.00      0      0     91.6   0.00   0.00   0.56   1.57   1.62   2.19   1.97   1.29   0.00   0.00   0.00   0.00   0.00      0      0      0       0      69
 2000 161    64    61   12.0      3   0.69    747    124      0    697    871      0    0.0  0.000      0      0  0.000  0.000  0.054  0.000   2.18   0.00   0.00      0      0     92.2   0.00   0.00   0.57   1.57   1.62   2.19   1.96   1.29   0.00   0.00   0.00   0.00   0.00      0      0      0       0      73
 2000 162    65    62   12.0      3   0.71    764    132      0    695    895      0    0.0  0.000      0      0  0.000  0.000  0.059  0.000   2.15   0.00   0.00      0      0     92.4   0.00   0.00   0.57   1.55   1.61   2.16   1.94   1.27   0.00   0.00   0.00   0.00   0.00      0      0      0       0      76
 2000 163    66    63   12.0      3   0.76    811    156      0    696    967      0    0.0  0.000      0      0  0.000  0.000  0.063  0.158   2.01   0.00   0.00      0      0     94.0   0.00   0.00   0.58   1.47   1.52   2.04   1.82   1.20   0.00   0.00   0.00   0.00   0.00      0      0      0       0      79
 2000 164    67    64   13.0      3   0.82    860    190      0    697   1050      0    0.0  0.000      0      0  0.000  0.000  0.065  0.150   1.86   0.00   0.00      0      0     95.2   0.00   0.00   0.59   1.43   1.49   1.98   1.76   1.16   0.00   0.00   0.00   0.00   0.00      0      0      0       0      83
 2000 165    68    65   13.0      3   0.84    885    224      0    697   1109      0    0.0  0.000      0      0  0.000  0.000  0.078  0.081   1.78   0.00   0.00      0      0     95.3   0.00   0.00   0.61   1.41   1.46   1.94   1.72   1.13   0.00   0.00   0.00   0.00   0.00      0      0      0       0      86
 2000 166    69    66   13.0      3   0.86    908    264      0    697   1173      0    0.0  0.000      0      0  0.000  0.000  0.093  0.038   1.71   0.00   0.00      0      0     95.0   0.00   0.00   0.62   1.41   1.47   1.94   1.72   1.13   0.01   0.00   0.00   0.00   0.00      0      0      0       0      90
 2000 167    70    67   14.0      3   0.87    924    298      0    696   1222      0    0.0  0.000      0      0  0.000  0.000  0.100  0.014   1.68   0.00   0.00      0      0     94.4   0.00   0.00   0.63   1.41   1.47   1.93   1.71   1.13   0.02   0.00   0.00   0.00   0.00      0      0      0       0      93
 2000 168    71    68   14.0      3   0.87    931    315      0    694   1247      0    0.0  0.000      0      0  0.000  0.000  0.108  0.268   1.69   0.00   0.00      0      0     93.3   0.00   0.00   0.64   1.41   1.46   1.92   1.70   1.12   0.02   0.00   0.00   0.00   0.00      0      0      0       0      97
 2000 169    72    69   14.0      3   0.87    944    344      0    704   1288      0    0.0  0.000      0      0  0.000  0.000  0.112  0.264   1.67   0.00   0.00      0      0     92.5   0.00   0.00   0.64   1.43   1.48   1.94   1.71   1.13   0.06   0.00   0.00   0.00   0.00      0      0      0       0     100
 2000 170    73    70   14.0      3   0.87    950    359      0    701   1309      0    0.0  0.000      0      0  0.000  0.000  0.109  0.153   1.73   0.00   0.00      0      0     91.4   0.00   0.00   0.65   1.43   1.48   1.93   1.70   1.13   0.07   0.00   0.00   0.00   0.00      0      0      0       0     104
 2000 171    74    71   14.0      3   0.88    965    395      0    703   1360      0    0.0  0.000      0      0  0.000  0.000  0.103  0.148   1.75   0.00   0.00      0      0     90.8   0.00   0.00   0.65   1.43   1.48   1.93   1.70   1.12   0.09   0.00   0.00   0.00   0.00      0      0      0       0     107
 2000 172    75    72   14.0      3   0.87    971    410      0    701   1382      0    0.0  0.000      0      0  0.000  0.000  0.093  0.082   1.80   0.00   0.00      0      0     90.0   0.00   0.00   0.65   1.43   1.48   1.92   1.69   1.12   0.09   0.00   0.00   0.00   0.00      0      0      0       0     111
 2000 173    76    73   14.0      3   0.85    981    436      0    707   1417      0    0.0  0.000      0      0  0.000  0.000  0.090  0.039   1.84   0.00   0.00      0      0     86.4   0.00   0.00   0.65   1.44   1.49   1.93   1.69   1.12   0.12   0.00   0.00   0.00   0.00      0      0      0       0     114
 2000 174    77    74   14.0      3   0.59    996    473      0    714   1470      0    0.0  0.000      0      0  0.000  0.000  0.082  0.012   1.85   0.00   0.00      0      0     59.7   0.00   0.00   0.65   1.46   1.51   1.94   1.69   1.13   0.15   0.00   0.00   0.00   0.00      0      0      0       0     118
 2000 175    78    75   14.0      3   0.56   1002    489      0    711   1491      0    0.0  0.000      0      0  0.000  0.000  0.075  0.010   1.91   0.00   0.00      0      0     56.0   0.00   0.00   0.66   1.45   1.50   1.94   1.68   1.12   0.16   0.00   0.00   0.00   0.00      0      0      0       0     122
 2000 176    79    76   14.0      3   0.58   1018    533      0    711   1551      0    0.0  0.000      0      0  0.000  0.000  0.071  0.007   1.91   0.00   0.00      0      0     56.6   0.00   0.00   0.67   1.46   1.50   1.93   1.68   1.12   0.17   0.00   0.00   0.00   0.00      0      0      0       0     125
 2000 177    80    77   14.0      3   0.58   1026    557      0    709   1584      0    0.0  0.000      0      0  0.000  0.000  0.064  0.006   1.94   0.00   0.00      0      0     56.7   0.00   0.00   0.67   1.45   1.50   1.93   1.67   1.11   0.17   0.00   0.00   0.00   0.00      0      0      0       0     129
 2000 178    81    78   15.0      3   0.55   1032    573      0    707   1605      0    0.0  0.000      0      0  0.000  0.000  0.064  0.004   1.98   0.00   0.00      0      0     53.8   0.00   0.00   0.67   1.45   1.50   1.92   1.67   1.11   0.17   0.00   0.00   0.00   0.00      0      0      0       0     132
 2000 179    82    79   15.0      3   0.51   1040    599      0    705   1639      0    0.0  0.000      0      0  0.000  0.000  0.061  0.002   1.99   0.00   0.00      0      0     48.8   0.00   0.00   0.68   1.45   1.49   1.91   1.66   1.11   0.17   0.00   0.00   0.00   0.00      0      0      0       0     136
 2000 180    83    80   15.0      3   0.51   1046    615      0    703   1661      0    0.0  0.000      0      0  0.000  0.000  0.056  0.102   2.02   0.00   0.00      0      0     48.8   0.00   0.00   0.69   1.44   1.49   1.91   1.65   1.10   0.18   0.00   0.00   0.00   0.00      0      0      0       0     139
 2000 181    84    81   15.0      3   0.51   1049    626      0    700   1676      0    0.0  0.000      0      0  0.000  0.000  0.054  0.103   2.03   0.00   0.00      0      0     48.7   0.00   0.00   0.69   1.40   1.45   1.85   1.61   1.07   0.17   0.00   0.00   0.00   0.00      0      0      0       0     143
 2000 182    85    82   15.0      3   0.49   1061    664      0    700   1725      0    0.0  0.000      0      0  0.000  0.000  0.053  0.144   2.01   0.00   0.00      0      0     46.2   0.00   0.00   0.69   1.40   1.45   1.85   1.60   1.07   0.18   0.00   0.00   0.00   0.00      0      0      0       0     146
 2000 183    86    83   15.0      3   0.49   1067    682      0    697   1749      0    0.0  0.000      0      0  0.000  0.000  0.051  0.082   2.01   0.00   0.00      0      0     46.3   0.00   0.00   0.70   1.40   1.45   1.84   1.60   1.06   0.18   0.00   0.00   0.00   0.00      0      0      0       0     150
 2000 184    87    84   15.0      3   0.50   1073    705      0    696   1778      0    0.0  0.000      0      0  0.000  0.000  0.052  0.249   2.01   0.00   0.00      0      0     46.5   0.00   0.00   0.70   1.38   1.42   1.81   1.57   1.04   0.18   0.00   0.00   0.00   0.00      0      0      0       0     153
 2000 185    88    85   15.0      3   0.50   1082    733      0    695   1815      0    0.0  0.000      0      0  0.000  0.000  0.052  0.249   1.99   0.00   0.00      0      0     46.7   0.00   0.00   0.70   1.37   1.42   1.80   1.55   1.03   0.17   0.00   0.00   0.00   0.00      0      0      0       0     157
 2000 186    89    86   15.0      3   0.49   1092    767      0    694   1859      0    0.0  0.000      0      0  0.000  0.000  0.052  0.145   1.96   0.00   0.00      0      0     45.1   0.00   0.00   0.71   1.38   1.42   1.80   1.55   1.03   0.17   0.00   0.00   0.00   0.00      0      0      0       0     160
 2000 187    90    87   15.0      3   0.46   1106    814      0    694   1920      0    0.0  0.000      0      0  0.000  0.000  0.052  0.081   1.92   0.00   0.00      0      0     41.9   0.00   0.00   0.71   1.38   1.43   1.80   1.55   1.03   0.17   0.00   0.00   0.00   0.00      0      0      0       0     164
 2000 188    91    88   16.0      3   0.48   1119    861      0    693   1980      0    0.0  0.000      0      0  0.000  0.000  0.053  0.041   1.88   0.00   0.00      0      0     42.6   0.00   0.00   0.72   1.39   1.43   1.80   1.54   1.03   0.17   0.00   0.00   0.00   0.00      0      0      0       0     167
 2000 189    92    89   16.0      3   0.49   1134    914      0    694   2047      0    0.0  0.000      0      0  0.000  0.000  0.055  0.016   1.83   0.00   0.00      0      0     43.3   0.00   0.00   0.74   1.40   1.44   1.81   1.54   1.03   0.18   0.00   0.00   0.00   0.00      0      0      0       0     171
 2000 190    93    90   16.0      3   0.49   1138    929      0    691   2067      0    0.0  0.000      0      0  0.000  0.000  0.057  0.012   1.84   0.00   0.00      0      0     43.3   0.00   0.00   0.74   1.40   1.44   1.80   1.54   1.03   0.17   0.00   0.00   0.00   0.00      0      0      0       0     174
 2000 191    94    91   16.0      3   0.49   1140    939      0    689   2079      0    0.0  0.000      0      0  0.000  0.000  0.060  0.036   1.85   0.00   0.00      0      0     43.1   0.00   0.00   0.75   1.39   1.44   1.80   1.53   1.03   0.17   0.00   0.00   0.00   0.00      0      0      0       0     178
 2000 192    95    92   16.0      3   0.49   1143    950      0    686   2093      0    0.0  0.000      0      0  0.000  0.000  0.059  0.248   1.86   0.00   0.00      0      0     43.0   0.00   0.00   0.75   1.39   1.43   1.79   1.52   1.02   0.17   0.00   0.00   0.00   0.00      0      0      0       0     181
 2000 193    96    93   16.0      3   0.49   1144    957      0    683   2102      0    0.0  0.000      0      0  0.000  0.000  0.058  0.506   1.86   0.00   0.00      0      0     42.8   0.00   0.00   0.75   1.35   1.39   1.73   1.47   0.99   0.17   0.00   0.00   0.00   0.00      0      0      0       0     184
 2000 194    97    94   16.0      3   0.49   1147    969      0    681   2116      0    0.0  0.000      0      0  0.000  0.000  0.058  0.415   1.85   0.00   0.00      0      0     42.7   0.00   0.00   0.75   1.29   1.33   1.65   1.41   0.94   0.16   0.00   0.00   0.00   0.00      0      0      0       0     188
 2000 195    98    95   16.0      3   0.48   1148    974      0    683   2122      0    0.0  0.000      0      0  0.000  0.000  0.058  0.182   1.86   0.00   0.00      0      0     42.1   0.00   0.00   0.75   1.29   1.33   1.65   1.39   0.94   0.16   0.00   0.00   0.00   0.00      0      0      0       0     191
 2000 196    99    96   16.0      3   0.23   1150    981      0    680   2131      0    0.0  0.000      0      0  0.000  0.000  0.057  0.101   1.87   0.00   0.00      0      0     20.3   0.00   0.00   0.75   1.29   1.33   1.64   1.39   0.94   0.16   0.00   0.00   0.00   0.00      0      0      0       0     195
 2000 197   100    97   16.0      3   0.18   1150    982      0    677   2132      0    0.0  0.000      0      0  0.000  0.000  0.057  0.058   1.88   0.00   0.00      0      0     15.7   0.00   0.00   0.75   1.28   1.32   1.63   1.38   0.93   0.16   0.00   0.00   0.00   0.00      0      0      0       0     198
 2000 198   101    98   16.0      3   0.18   1151    986      0    674   2137      0    0.0  0.000      0      0  0.000  0.000  0.056  0.033   1.88   0.00   0.00      0      0     15.2   0.00   0.00   0.75   1.27   1.31   1.62   1.38   0.93   0.16   0.00   0.00   0.00   0.00      0      0      0       0     201
 2000 199   102    99   16.0      3   0.14   1152    992      0    671   2144      0    0.0  0.000      0      0  0.000  0.000  0.055  0.016   1.89   0.00   0.00      0      0     12.4   0.00   0.00   0.75   1.27   1.31   1.62   1.37   0.92   0.16   0.00   0.00   0.00   0.00      0      0      0       0     205
 2000 200   103   100   16.0      3   0.12   1153    998      0    668   2152      0    0.0  0.000      0      0  0.000  0.000  0.054  0.014   1.89   0.00   0.00      0      0     10.3   0.00   0.00   0.76   1.26   1.30   1.61   1.36   0.92   0.16   0.00   0.00   0.00   0.00      0      0      0       0     208
 2000 201   104   101   16.0      3   0.09   1153    999      0    665   2152      0    0.0  0.000      0      0  0.000  0.000  0.054  0.011   1.90   0.00   0.00      0      0      7.9   0.00   0.00   0.76   1.26   1.29   1.60   1.36   0.91   0.16   0.00   0.00   0.00   0.00      0      0      0       0     211
 2000 202   105   102   16.0      3   0.08   1155   1006      0    662   2161      0    0.0  0.000      0      0  0.000  0.000  0.053  0.008   1.91   0.00   0.00      0      0      7.2   0.00   0.00   0.76   1.25   1.29   1.60   1.35   0.91   0.15   0.00   0.00   0.00   0.00      0      0      0       0     215
 2000 203   106   103   16.0      3   0.08   1157   1016      0    659   2173      0    0.0  0.000      0      0  0.000  0.000  0.051  0.007   1.91   0.00   0.00      0      0      7.2   0.00   0.00   0.76   1.25   1.29   1.59   1.34   0.90   0.15   0.00   0.00   0.00   0.00      0      0      0       0     218
 2000 204   107   104   16.0      3   0.08   1157   1017      0    656   2175      0    0.0  0.000      0      0  0.000  0.000  0.051  0.007   1.92   0.00   0.00      0      0      6.8   0.00   0.00   0.76   1.24   1.28   1.58   1.34   0.90   0.15   0.00   0.00   0.00   0.00      0      0      0       0     221
 2000 205   108   105   16.0      3   0.06   1158   1020      0    653   2178      0    0.0  0.000      0      0  0.000  0.000  0.050  0.006   1.93   0.00   0.00      0      0      5.4   0.00   0.00   0.76   1.24   1.27   1.57   1.33   0.89   0.15   0.00   0.00   0.00   0.00      0      0      0       0     225
 2000 206   109   106   16.0      3   0.06   1159   1027      0    650   2186      0    0.0  0.000      0      0  0.000  0.000  0.049  0.005   1.94   0.00   0.00      0      0      4.9   0.00   0.00   0.77   1.23   1.27   1.57   1.32   0.89   0.15   0.00   0.00   0.00   0.00      0      0      0       0     228
 2000 207   110   107   16.0      3   0.06   1161   1034      0    648   2194      0    0.0  0.000      0      0  0.000  0.000  0.047  0.004   1.94   0.00   0.00      0      0      4.8   0.00   0.00   0.77   1.23   1.26   1.56   1.32   0.89   0.15   0.00   0.00   0.00   0.00      0      0      0       0     231
 2000 208   111   108   16.0      3   0.04   1162   1038      0    645   2199      0    0.0  0.000      0      0  0.000  0.000  0.046  0.003   1.95   0.00   0.00      0      0      3.3   0.00   0.00   0.77   1.22   1.26   1.55   1.31   0.88   0.15   0.00   0.00   0.00   0.00      0      0      0       0     234
 2000 209   112   109   16.0      6   0.03   1162   1039      0    642   2201      0    0.0  0.000      0      0  0.000  0.000  0.046  0.002   1.96   0.00   0.00      0      0      2.6   0.00   0.00   0.77   1.22   1.25   1.54   1.30   0.88   0.15   0.00   0.00   0.00   0.00      0      0      0       0     238

*DSSAT Cropping System Model Ver. 4.0.2.000               Aug 12, 2016; 12:47:50

*RUN   2        : UYMZ                    
 MODEL          : MZCER040 - Maize           
 EXPERIMENT     : UYMZ0195 MZ    late to create DSS                             
 TREATMENT  1   : UYMZ                    

@YEAR DOY   DAS   DAP   L#SD   GSTD   LAID   LWAD   SWAD   GWAD   RWAD   CWAD   G#AD   GWGD   HIAD   PWAD   P#AD   WSPD   WSGD   NSTD   EWSD   LN%D   SH%D   HIPD   PWDD   PWTD     SLAD   CHTD   CWID   RDPD   RL1D   RL2D   RL3D   RL4D   RL5D   RL6D   RL7D   RL8D   RL9D   RL10   CDAD   LDAD   SDAD   SNW0C   SNW1C
 2001 100     3     0    0.0      0   0.00      0      0      0      0      0      0    0.0  0.000      0      0  0.000  0.000  0.000  0.000   0.00   0.00   0.00      0      0      0.0   0.00   0.00   0.03   0.00   0.00   0.00   0.00   0.00   0.00   0.00   0.00   0.00   0.00      0      0      0       0       0
 2001 101     4     1    0.0      0   0.00      0      0      0      0      0      0    0.0  0.000      0      0  0.000  0.000  0.000  0.000   0.00   0.00   0.00      0      0      0.0   0.00   0.00   0.04   0.00   0.00   0.00   0.00   0.00   0.00   0.00   0.00   0.00   0.00      0      0      0       0       0
 2001 102     5     2    0.0      0   0.00      0      0      0      0      0      0    0.0  0.000      0      0  0.000  0.000  0.000  0.000   0.00   0.00   0.00      0      0      0.0   0.00   0.00   0.06   0.00   0.00   0.00   0.00   0.00   0.00   0.00   0.00   0.00   0.00      0      0      0       0       0
 2001 103     6     3    0.0      0   0.00      0      0      0      0      0      0    0.0  0.000      0      0  0.000  0.000  0.000  0.000   0.00   0.00   0.00      0      0      0.0   0.00   0.00   0.08   0.00   0.00   0.00   0.00   0.00   0.00   0.00   0.00   0.00   0.00      0      0      0       0       0
 2001 104     7     4    0.0      0   0.00      0      0      0      0      0      0    0.0  0.000      0      0  0.000  0.000  0.000  0.000   0.00   0.00   0.00      0      0      0.0   0.00   0.00   0.11   0.00   0.00   0.00   0.00   0.00   0.00   0.00   0.00   0.00   0.00      0      0      0       0       0
 2001 105     8     5    0.0      0   0.00      0      0      0      0      0      0    0.0  0.000      0      0  0.000  0.000  0.000  0.000   0.00   0.00   0.00      0      0      0.0   0.00   0.00   0.13   0.00   0.00   0.00   0.00   0.00   0.00   0.00   0.00   0.00   0.00      0      0      0       0       0
 2001 106     9     6    1.0      1   0.00     14     14      0     14     28      0    0.0  0.000      0      0  0.000  0.000  0.012  0.000   4.40   0.00   0.00      0      0     19.1   0.00   0.00   0.14   0.28   0.11   0.00   0.00   0.00   0.00   0.00   0.00   0.00   0.00      0      0      0       0       0
 2001 107    10     7    2.0      1   0.01     14     14      0     14     28      0    0.0  0.000      0      0  0.000  0.000  0.013  0.000   4.51   0.00   0.00      0      0     38.6   0.00   0.00   0.15   0.28   0.11   0.00   0.00   0.00   0.00   0.00   0.00   0.00   0.00      0      0      0       0       0
 2001 108    11     8    2.0      1   0.01     14     14      0     15     28      0    0.0  0.000      0      0  0.000  0.000  0.000  0.000   4.51   0.00   0.00      0      0     67.4   0.00   0.00   0.16   0.29   0.12   0.00   0.00   0.00   0.00   0.00   0.00   0.00   0.00      0      0      0       0       0
 2001 109    12     9    3.0      1   0.01     14     14      0     16     28      0    0.0  0.000      0      0  0.000  0.000  0.000  0.000   4.41   0.00   0.00      0      0     93.5   0.00   0.00   0.17   0.30   0.14   0.00   0.00   0.00   0.00   0.00   0.00   0.00   0.00      0      0      0       0       0
 2001 110    13    10    3.0      1   0.02     14     14      0     18     28      0    0.0  0.000      0      0  0.000  0.000  0.000  0.000   4.37   0.00   0.00      0      0    112.6   0.00   0.00   0.18   0.31   0.16   0.00   0.00   0.00   0.00   0.00   0.00   0.00   0.00      0      0      0       0       0
 2001 111    14    11    3.0      1   0.02     14     14      0     21     28      0    0.0  0.000      0      0  0.000  0.000  0.000  0.000   4.35   0.00   0.00      0      0    127.3   0.00   0.00   0.19   0.33   0.19   0.01   0.00   0.00   0.00   0.00   0.00   0.00   0.00      0      0      0       0       0
 2001 112    15    12    3.0      1   0.02     14     14      0     23     28      0    0.0  0.000      0      0  0.000  0.000  0.000  0.000   4.33   0.00   0.00      0      0    122.9   0.00   0.00   0.19   0.35   0.22   0.02   0.00   0.00   0.00   0.00   0.00   0.00   0.00      0      0      0       0       0
 2001 113    16    13    4.0      1   0.02     14     14      0     24     28      0    0.0  0.000      0      0  0.000  0.000  0.000  0.000   4.33   0.00   0.00      0      0    174.3   0.00   0.00   0.20   0.35   0.22   0.02   0.00   0.00   0.00   0.00   0.00   0.00   0.00      0      0      0       0       0
 2001 114    17    14    4.0      1   0.03     14     14      0     26     28      0    0.0  0.000      0      0  0.000  0.000  0.000  0.000   4.28   0.00   0.00      0      0    224.7   0.00   0.00   0.20   0.37   0.25   0.03   0.00   0.00   0.00   0.00   0.00   0.00   0.00      0      0      0       0       0
 2001 115    18    15    4.0      1   0.04     14     14      0     29     28      0    0.0  0.000      0      0  0.000  0.000  0.000  0.000   4.26   0.00   0.00      0      0    271.6   0.00   0.00   0.21   0.38   0.28   0.03   0.00   0.00   0.00   0.00   0.00   0.00   0.00      0      0      0       0       1
 2001 116    19    16    4.0      1   0.05     16     14      0     32     30      0    0.0  0.000      0      0  0.000  0.000  0.000  0.000   3.92   0.00   0.00      0      0    322.5   0.00   0.00   0.22   0.40   0.32   0.05   0.00   0.00   0.00   0.00   0.00   0.00   0.00      0      0      0       0       1
 2001 117    20    17    4.0      1   0.07     21     14      0     35     35      0    0.0  0.000      0      0  0.000  0.000  0.000  0.000   3.60   0.00   0.00      0      0    308.2   0.00   0.00   0.23   0.42   0.34   0.06   0.00   0.00   0.00   0.00   0.00   0.00   0.00      0      0      0       0       1
 2001 118    21    18    5.0      1   0.07     25     14      0     36     39      0    0.0  0.000      0      0  0.000  0.000  0.000  0.000   3.81   0.00   0.00      0      0    300.4   0.00   0.00   0.23   0.42   0.35   0.06   0.00   0.00   0.00   0.00   0.00   0.00   0.00      0      0      0       0       1
 2001 119    22    19    5.0      1   0.08     27     14      0     38     41      0    0.0  0.000      0      0  0.000  0.000  0.000  0.000   3.90   0.00   0.00      0      0    292.3   0.00   0.00   0.24   0.44   0.38   0.07   0.00   0.00   0.00   0.00   0.00   0.00   0.00      0      0      0       0       1
 2001 120    23    20    5.0      1   0.09     32     14      0     39     46      0    0.0  0.000      0      0  0.000  0.000  0.000  0.000   3.67   0.00   0.00      0      0    283.8   0.00   0.00   0.24   0.44   0.39   0.08   0.00   0.00   0.00   0.00   0.00   0.00   0.00      0      0      0       0       1
 2001 121    24    21    5.0      1   0.11     40     14      0     40     54      0    0.0  0.000      0      0  0.000  0.000  0.000  0.000   3.54   0.00   0.00      0      0    273.7   0.00   0.00   0.25   0.44   0.39   0.08   0.00   0.00   0.00   0.00   0.00   0.00   0.00      0      0      0       0       2
 2001 122    25    22    5.0      1   0.12     45     14      0     50     59      0    0.0  0.000      0      0  0.000  0.000  0.000  0.000   3.73   0.00   0.00      0      0    268.0   0.00   0.00   0.26   0.42   0.46   0.15   0.00   0.00   0.00   0.00   0.00   0.00   0.00      0      0      0       0       2
 2001 123    26    23    5.0      1   0.13     48     14      0     58     62      0    0.0  0.000      0      0  0.000  0.000  0.000  0.000   3.86   0.00   0.00      0      0    264.7   0.00   0.00   0.26   0.42   0.53   0.20   0.00   0.00   0.00   0.00   0.00   0.00   0.00      0      0      0       0       2
 2001 124    27    24    6.0      1   0.14     52     14      0     64     66      0    0.0  0.000      0      0  0.000  0.000  0.000  0.000   3.81   0.00   0.00      0      0    261.0   0.00   0.00   0.26   0.42   0.58   0.25   0.00   0.00   0.00   0.00   0.00   0.00   0.00      0      0      0       0       2
 2001 125    28    25    6.0      1   0.15     58     14      0     75     72      0    0.0  0.000      0      0  0.000  0.000  0.000  0.000   3.71   0.00   0.00      0      0    256.0   0.00   0.00   0.27   0.42   0.67   0.34   0.00   0.00   0.00   0.00   0.00   0.00   0.00      0      0      0       0       3
 2001 126    29    26    6.0      1   0.15     61     14      0     83     75      0    0.0  0.000      0      0  0.000  0.000  0.000  0.000   3.81   0.00   0.00      0      0    244.7   0.00   0.00   0.27   0.42   0.73   0.40   0.00   0.00   0.00   0.00   0.00   0.00   0.00      0      0      0       0       3
 2001 127    30    27    6.0      1   0.16     68     14      0     88     82      0    0.0  0.000      0      0  0.000  0.000  0.000  0.000   3.68   0.00   0.00      0      0    240.8   0.00   0.00   0.28   0.41   0.76   0.44   0.00   0.00   0.00   0.00   0.00   0.00   0.00      0      0      0       0       4
 2001 128    31    28    6.0      1   0.18     78     14      0     89     92      0    0.0  0.000      0      0  0.000  0.000  0.000  0.000   3.54   0.00   0.00      0      0    235.6   0.00   0.00   0.29   0.41   0.77   0.44   0.00   0.00   0.00   0.00   0.00   0.00   0.00      0      0      0       0       4
 2001 129    32    29    6.0      1   0.20     88     14      0     92    102      0    0.0  0.000      0      0  0.000  0.000  0.000  0.000   3.55   0.00   0.00      0      0    230.7   0.00   0.00   0.29   0.41   0.80   0.48   0.00   0.00   0.00   0.00   0.00   0.00   0.00      0      0      0       0       4
 2001 130    33    30    7.0      1   0.22     96     14      0    104    110      0    0.0  0.000      0      0  0.000  0.000  0.000  0.000   3.65   0.00   0.00      0      0    227.5   0.00   0.00   0.30   0.41   0.88   0.58   0.00   0.00   0.00   0.00   0.00   0.00   0.00      0      0      0       0       5
 2001 131    34    31    7.0      1   0.23    101     14      0    107    115      0    0.0  0.000      0      0  0.000  0.000  0.000  0.000   3.76   0.00   0.00      0      0    225.7   0.00   0.00   0.30   0.41   0.89   0.61   0.00   0.00   0.00   0.00   0.00   0.00   0.00      0      0      0       0       5
 2001 132    35    32    7.0      1   0.24    108     14      0    120    122      0    0.0  0.000      0      0  0.000  0.000  0.000  0.000   3.67   0.00   0.00      0      0    223.1   0.00   0.00   0.30   0.41   0.97   0.71   0.00   0.00   0.00   0.00   0.00   0.00   0.00      0      0      0       0       6
 2001 133    36    33    7.0      1   0.23    110     14      0    129    124      0    0.0  0.000      0      0  0.000  0.000  0.000  0.000   3.82   0.00   0.00      0      0    211.5   0.00   0.00   0.31   0.41   1.02   0.78   0.00   0.00   0.00   0.00   0.00   0.00   0.00      0      0      0       0       7
 2001 134    37    34    7.0      2   0.23    107     14      0    146    121      0    0.0  0.000      0      0  0.000  0.000  0.000  0.000   4.00   0.00   0.00      0      0    212.8   0.00   0.00   0.31   0.41   1.13   0.93   0.00   0.00   0.00   0.00   0.00   0.00   0.00      0      0      0       0       7
 2001 135    38    35    7.0      2   0.24    112     14      0    148    126      0    0.0  0.000      0      0  0.000  0.000  0.001  0.000   3.82   0.00   0.00      0      0    212.0   0.00   0.00   0.31   0.41   1.14   0.94   0.00   0.00   0.00   0.00   0.00   0.00   0.00      0      0      0       0       7
 2001 136    39    36    7.0      2   0.26    121     14      0    149    135      0    0.0  0.000      0      0  0.000  0.000  0.000  0.000   3.57   0.00   0.00      0      0    210.6   0.00   0.00   0.31   0.41   1.14   0.95   0.00   0.00   0.00   0.00   0.00   0.00   0.00      0      0      0       0       7
 2001 137    40    37    7.0      2   0.28    136     14      0    162    150      0    0.0  0.000      0      0  0.000  0.000  0.000  0.000   3.77   0.00   0.00      0      0    208.6   0.00   0.00   0.32   0.42   1.22   1.05   0.01   0.00   0.00   0.00   0.00   0.00   0.00      0      0      0       0       8
 2001 138    41    38    7.0      3   0.30    148     14      0    166    162      0    0.0  0.000      0      0  0.000  0.000  0.022  0.000   3.68   0.00   0.00      0      0    204.7   0.00   0.00   0.33   0.42   1.25   1.09   0.01   0.00   0.00   0.00   0.00   0.00   0.00      0      0      0       0       9
 2001 139    42    39    8.0      3   0.32    160     14      0    185    174      0    0.0  0.000      0      0  0.000  0.000  0.022  0.000   3.58   0.00   0.00      0      0    202.5   0.00   0.00   0.33   0.44   1.36   1.24   0.03   0.00   0.00   0.00   0.00   0.00   0.00      0      0      0       0      10
 2001 140    43    40    8.0      3   0.35    174     14      0    187    188      0    0.0  0.000      0      0  0.000  0.000  0.022  0.000   3.58   0.00   0.00      0      0    200.1   0.00   0.00   0.34   0.44   1.37   1.25   0.04   0.00   0.00   0.00   0.00   0.00   0.00      0      0      0       0      10
 2001 141    44    41    8.0      3   0.37    187     14      0    188    201      0    0.0  0.000      0      0  0.000  0.000  0.022  0.000   3.59   0.00   0.00      0      0    197.9   0.00   0.00   0.35   0.43   1.37   1.26   0.04   0.00   0.00   0.00   0.00   0.00   0.00      0      0      0       0      11
 2001 142    45    42    8.0      3   0.40    207     14      0    189    222      0    0.0  0.000      0      0  0.000  0.000  0.022  0.000   3.50   0.00   0.00      0      0    195.1   0.00   0.00   0.36   0.43   1.38   1.27   0.04   0.00   0.00   0.00   0.00   0.00   0.00      0      0      0       0      12
 2001 143    46    43    8.0      3   0.43    223     15      0    211    238      0    0.0  0.000      0      0  0.000  0.000  0.022  0.000   3.48   0.00   0.00      0      0    192.8   0.00   0.00   0.37   0.44   1.49   1.42   0.08   0.00   0.00   0.00   0.00   0.00   0.00      0      0      0       0      13
 2001 144    47    44    8.0      3   0.46    242     15      0    239    257      0    0.0  0.000      0      0  0.000  0.000  0.022  0.000   3.45   0.00   0.00      0      0    190.3   0.00   0.00   0.38   0.46   1.64   1.62   0.14   0.00   0.00   0.00   0.00   0.00   0.00      0      0      0       0      14
 2001 145    48    45    9.0      3   0.50    266     16      0    266    282      0    0.0  0.000      0      0  0.000  0.000  0.022  0.000   3.42   0.00   0.00      0      0    187.6   0.00   0.00   0.39   0.47   1.78   1.81   0.21   0.00   0.00   0.00   0.00   0.00   0.00      0      0      0       0      16
 2001 146    49    46    9.0      3   0.54    294     17      0    289    311      0    0.0  0.000      0      0  0.000  0.000  0.022  0.000   3.39   0.00   0.00      0      0    184.7   0.00   0.00   0.40   0.48   1.89   1.97   0.28   0.00   0.00   0.00   0.00   0.00   0.00      0      0      0       0      17
 2001 147    50    47    9.0      3   0.59    328     19      0    306    347      0    0.0  0.000      0      0  0.000  0.000  0.022  0.000   3.35   0.00   0.00      0      0    181.4   0.00   0.00   0.41   0.49   1.97   2.08   0.34   0.00   0.00   0.00   0.00   0.00   0.00      0      0      0       0      18
 2001 148    51    48    9.0      3   0.63    351     21      0    323    372      0    0.0  0.000      0      0  0.000  0.000  0.022  0.000   3.32   0.00   0.00      0      0    179.2   0.00   0.00   0.42   0.50   2.04   2.19   0.40   0.00   0.00   0.00   0.00   0.00   0.00      0      0      0       0      20
 2001 149    52    49   10.0      3   0.70    396     25      0    336    422      0    0.0  0.000      0      0  0.000  0.000  0.022  0.000   3.29   0.00   0.00      0      0    175.8   0.00   0.00   0.44   0.50   2.10   2.27   0.45   0.00   0.00   0.00   0.00   0.00   0.00      0      0      0       0      21
 2001 150    53    50   10.0      3   0.74    427     29      0    337    456      0    0.0  0.000      0      0  0.000  0.000  0.022  0.000   3.25   0.00   0.00      0      0    173.4   0.00   0.00   0.45   0.50   2.10   2.27   0.45   0.00   0.00   0.00   0.00   0.00   0.00      0      0      0       0      23
 2001 151    54    51   10.0      3   0.78    455     33      0    337    489      0    0.0  0.000      0      0  0.000  0.000  0.022  0.000   3.21   0.00   0.00      0      0    171.4   0.00   0.00   0.47   0.47   1.97   2.14   0.43   0.00   0.00   0.00   0.00   0.00   0.00      0      0      0       0      25
 2001 152    55    52   10.0      3   0.83    491     40      0    337    531      0    0.0  0.000      0      0  0.000  0.000  0.022  0.000   3.17   0.00   0.00      0      0    169.0   0.00   0.00   0.48   0.44   1.84   2.01   0.41   0.00   0.00   0.00   0.00   0.00   0.00      0      0      0       0      27
 2001 153    56    53   11.0      3   0.87    520     46      0    338    566      0    0.0  0.000      0      0  0.000  0.000  0.022  0.118   3.13   0.00   0.00      0      0    167.2   0.00   0.00   0.49   0.41   1.73   1.89   0.40   0.00   0.00   0.00   0.00   0.00   0.00      0      0      0       0      28
 2001 154    57    54   11.0      3   0.91    549     53      0    338    602      0    0.0  0.000      0      0  0.000  0.000  0.022  0.487   3.09   0.00   0.00      0      0    165.4   0.00   0.00   0.50   0.38   1.61   1.78   0.38   0.00   0.00   0.00   0.00   0.00   0.00      0      0      0       0      30
 2001 155    58    55   11.0      3   0.93    569     58      0    344    627      0    0.0  0.000      0      0  0.000  0.000  0.022  0.634   2.98   0.00   0.00      0      0    164.1   0.00   0.00   0.52   0.36   1.51   1.69   0.39   0.02   0.00   0.00   0.00   0.00   0.00      0      0      0       0      32
 2001 156    59    56   11.0      3   0.97    597     67      0    344    663      0    0.0  0.000      0      0  0.000  0.000  0.022  0.318   3.02   0.00   0.00      0      0    162.5   0.00   0.00   0.53   0.34   1.41   1.59   0.38   0.03   0.00   0.00   0.00   0.00   0.00      0      0      0       0      33
 2001 157    60    57   11.0      3   1.00    619     74      0    389    693      0    0.0  0.000      0      0  0.000  0.000  0.022  0.232   3.03   0.00   0.00      0      0    161.3   0.00   0.00   0.53   0.33   1.33   1.63   0.60   0.18   0.00   0.00   0.00   0.00   0.00      0      0      0       0      35
 2001 158    61    58   12.0      3   1.02    659     88      0    432    747      0    0.0  0.000      0      0  0.000  0.000  0.022  0.078   2.98   0.00   0.00      0      0    154.6   0.00   0.00   0.54   0.34   1.30   1.62   0.85   0.39   0.00   0.00   0.00   0.00   0.00      0      0      0       0      37
 2001 159    62    59   12.0      3   1.06    692    101      0    433    793      0    0.0  0.000      0      0  0.000  0.000  0.022  0.063   2.97   0.00   0.00      0      0    153.3   0.00   0.00   0.55   0.33   1.26   1.58   0.84   0.40   0.00   0.00   0.00   0.00   0.00      0      0      0       0      39
 2001 160    63    60   12.0      3   1.10    720    113      0    433    833      0    0.0  0.000      0      0  0.000  0.000  0.022  0.035   2.94   0.00   0.00      0      0    152.1   0.00   0.00   0.56   0.32   1.24   1.55   0.83   0.40   0.00   0.00   0.00   0.00   0.00      0      0      0       0      41
 2001 161    64    61   12.0      3   1.13    748    126      0    433    874      0    0.0  0.000      0      0  0.000  0.000  0.022  0.017   2.91   0.00   0.00      0      0    151.0   0.00   0.00   0.58   0.32   1.23   1.53   0.83   0.41   0.00   0.00   0.00   0.00   0.00      0      0      0       0      43
 2001 162    65    62   13.0      3   1.20    807    156      0    436    963      0    0.0  0.000      0      0  0.000  0.000  0.022  0.007   2.86   0.00   0.00      0      0    149.2   0.00   0.00   0.59   0.32   1.22   1.52   0.85   0.44   0.00   0.00   0.00   0.00   0.00      0      0      0       0      46
 2001 163    66    63   13.0      3   1.26    852    203      0    438   1055      0    0.0  0.000      0      0  0.000  0.000  0.022  0.004   2.81   0.00   0.00      0      0    147.8   0.00   0.00   0.60   0.32   1.21   1.51   0.87   0.48   0.00   0.00   0.00   0.00   0.00      0      0      0       0      48
 2001 164    67    64   13.0      3   1.30    883    251      0    441   1134      0    0.0  0.000      0      0  0.000  0.000  0.022  0.002   2.77   0.00   0.00      0      0    146.8   0.00   0.00   0.61   0.32   1.21   1.50   0.88   0.50   0.00   0.00   0.00   0.00   0.00      0      0      0       0      50
 2001 165    68    65   13.0      3   1.36    933    347      0    447   1280      0    0.0  0.000      0      0  0.000  0.000  0.022  0.000   2.58   0.00   0.00      0      0    145.4   0.00   0.00   0.63   0.32   1.21   1.50   0.89   0.55   0.01   0.00   0.00   0.00   0.00      0      0      0       0      52
 2001 166    69    66   14.0      3   1.37    943    368      0    446   1312      0    0.0  0.000      0      0  0.000  0.000  0.022  0.000   2.62   0.00   0.00      0      0    144.8   0.00   0.00   0.63   0.32   1.20   1.49   0.89   0.56   0.01   0.00   0.00   0.00   0.00      0      0      0       0      54
 2001 167    70    67   14.0      3   1.38    957    397      0    446   1353      0    0.0  0.000      0      0  0.000  0.000  0.024  0.000   2.59   0.00   0.00      0      0    144.1   0.00   0.00   0.64   0.33   1.20   1.49   0.89   0.57   0.01   0.00   0.00   0.00   0.00      0      0      0       0      57
 2001 168    71    68   14.0      3   1.39    968    422      0    446   1390      0    0.0  0.000      0      0  0.000  0.000  0.024  0.000   2.58   0.00   0.00      0      0    143.5   0.00   0.00   0.64   0.33   1.20   1.48   0.89   0.57   0.02   0.00   0.00   0.00   0.00      0      0      0       0      59
 2001 169    72    69   14.0      3   1.40    984    459      0    462   1443      0    0.0  0.000      0      0  0.000  0.000  0.025  0.214   2.53   0.00   0.00      0      0    141.8   0.00   0.00   0.64   0.36   1.22   1.50   0.90   0.63   0.07   0.00   0.00   0.00   0.00      0      0      0       0      61
 2001 170    73    70   14.0      3   1.40    992    475      0    461   1467      0    0.0  0.000      0      0  0.000  0.000  0.025  0.198   2.59   0.00   0.00      0      0    141.2   0.00   0.00   0.64   0.36   1.22   1.50   0.89   0.63   0.07   0.00   0.00   0.00   0.00      0      0      0       0      63
 2001 171    74    71   14.0      3   1.35    998    491      0    467   1490      0    0.0  0.000      0      0  0.000  0.000  0.025  0.188   2.62   0.00   0.00      0      0    134.9   0.00   0.00   0.65   0.38   1.23   1.51   0.90   0.64   0.10   0.00   0.00   0.00   0.00      0      0      0       0      66
 2001 172    75    72   14.0      3   1.18   1006    510      0    474   1516      0    0.0  0.000      0      0  0.000  0.000  0.023  0.106   2.66   0.00   0.00      0      0    117.3   0.00   0.00   0.65   0.40   1.25   1.52   0.90   0.65   0.13   0.00   0.00   0.00   0.00      0      0      0       0      68
 2001 173    76    73   14.0      3   0.94   1018    539      0    483   1557      0    0.0  0.000      0      0  0.000  0.000  0.022  0.055   2.67   0.00   0.00      0      0     92.6   0.00   0.00   0.65   0.42   1.27   1.53   0.91   0.65   0.16   0.00   0.00   0.00   0.00      0      0      0       0      70
 2001 174    77    74   14.0      3   0.82   1030    568      0    485   1599      0    0.0  0.000      0      0  0.000  0.000  0.022  0.026   2.69   0.00   0.00      0      0     79.5   0.00   0.00   0.65   0.43   1.27   1.53   0.91   0.65   0.17   0.00   0.00   0.00   0.00      0      0      0       0      73
 2001 175    78    75   14.0      3   0.75   1043    599      0    485   1643      0    0.0  0.000      0      0  0.000  0.000  0.022  0.010   2.69   0.00   0.00      0      0     71.9   0.00   0.00   0.65   0.43   1.27   1.53   0.91   0.65   0.18   0.00   0.00   0.00   0.00      0      0      0       0      75
 2001 176    79    76   14.0      3   0.76   1049    616      0    484   1665      0    0.0  0.000      0      0  0.000  0.000  0.022  0.008   2.69   0.00   0.00      0      0     72.0   0.00   0.00   0.66   0.44   1.27   1.53   0.90   0.65   0.18   0.00   0.00   0.00   0.00      0      0      0       0      78
 2001 177    80    77   14.0      3   0.76   1062    648      0    484   1709      0    0.0  0.000      0      0  0.000  0.000  0.022  0.007   2.68   0.00   0.00      0      0     72.0   0.00   0.00   0.66   0.44   1.27   1.52   0.90   0.65   0.19   0.00   0.00   0.00   0.00      0      0      0       0      80
 2001 178    81    78   14.0      3   0.59   1078    689      0    488   1767      0    0.0  0.000      0      0  0.000  0.000  0.022  0.004   2.65   0.00   0.00      0      0     54.6   0.00   0.00   0.66   0.45   1.28   1.53   0.90   0.65   0.20   0.00   0.00   0.00   0.00      0      0      0       0      83
 2001 179    82    79   14.0      3   0.55   1092    727      0    488   1819      0    0.0  0.000      0      0  0.000  0.000  0.022  0.002   2.63   0.00   0.00      0      0     50.5   0.00   0.00   0.67   0.46   1.28   1.53   0.90   0.65   0.21   0.00   0.00   0.00   0.00      0      0      0       0      85
 2001 180    83    80   15.0      3   0.57   1106    767      0    489   1872      0    0.0  0.000      0      0  0.000  0.000  0.022  0.000   2.60   0.00   0.00      0      0     51.3   0.00   0.00   0.67   0.47   1.29   1.53   0.90   0.65   0.21   0.00   0.00   0.00   0.00      0      0      0       0      87
 2001 181    84    81   15.0      3   0.59   1123    816      0    490   1939      0    0.0  0.000      0      0  0.000  0.000  0.022  0.000   2.56   0.00   0.00      0      0     52.2   0.00   0.00   0.68   0.48   1.29   1.53   0.90   0.65   0.22   0.00   0.00   0.00   0.00      0      0      0       0      90
 2001 182    85    82   15.0      3   0.61   1144    877      0    492   2020      0    0.0  0.000      0      0  0.000  0.000  0.022  0.000   2.49   0.00   0.00      0      0     53.3   0.00   0.00   0.69   0.49   1.30   1.54   0.90   0.66   0.23   0.00   0.00   0.00   0.00      0      0      0       0      92
 2001 183    86    83   15.0      3   0.62   1151    898      0    491   2049      0    0.0  0.000      0      0  0.000  0.000  0.022  0.000   2.50   0.00   0.00      0      0     53.6   0.00   0.00   0.69   0.49   1.30   1.53   0.90   0.66   0.23   0.00   0.00   0.00   0.00      0      0      0       0      95
 2001 184    87    84   15.0      3   0.62   1158    923      0    491   2081      0    0.0  0.000      0      0  0.000  0.000  0.023  0.000   2.49   0.00   0.00      0      0     53.9   0.00   0.00   0.70   0.50   1.30   1.53   0.90   0.66   0.23   0.00   0.00   0.00   0.00      0      0      0       0      97
 2001 185    88    85   15.0      3   0.62   1164    941      0    489   2105      0    0.0  0.000      0      0  0.000  0.000  0.023  0.000   2.49   0.00   0.00      0      0     53.7   0.00   0.00   0.70   0.50   1.30   1.53   0.90   0.65   0.23   0.00   0.00   0.00   0.00      0      0      0       0     100
 2001 186    89    86   15.0      3   0.58   1178    988      0    490   2167      0    0.0  0.000      0      0  0.000  0.000  0.023  0.000   2.45   0.00   0.00      0      0     49.3   0.00   0.00   0.71   0.51   1.31   1.53   0.90   0.66   0.23   0.00   0.00   0.00   0.00      0      0      0       0     102
 2001 187    90    87   15.0      3   0.36   1188   1021      0    490   2209      0    0.0  0.000      0      0  0.000  0.000  0.022  0.000   2.42   0.00   0.00      0      0     30.7   0.00   0.00   0.71   0.52   1.31   1.53   0.90   0.66   0.23   0.00   0.00   0.00   0.00      0      0      0       0     105
 2001 188    91    88   16.0      3   0.38   1198   1054      0    490   2251      0    0.0  0.000      0      0  0.000  0.000  0.023  0.000   2.40   0.00   0.00      0      0     31.3   0.00   0.00   0.72   0.53   1.32   1.53   0.90   0.66   0.23   0.00   0.00   0.00   0.00      0      0      0       0     107
 2001 189    92    89   16.0      3   0.38   1205   1080      0    490   2286      0    0.0  0.000      0      0  0.000  0.000  0.023  0.000   2.38   0.00   0.00      0      0     31.8   0.00   0.00   0.73   0.53   1.32   1.53   0.90   0.66   0.22   0.00   0.00   0.00   0.00      0      0      0       0     109
 2001 190    93    90   16.0      3   0.39   1216   1120      0    490   2335      0    0.0  0.000      0      0  0.000  0.000  0.023  0.000   2.35   0.00   0.00      0      0     32.5   0.00   0.00   0.74   0.54   1.32   1.54   0.90   0.66   0.22   0.00   0.00   0.00   0.00      0      0      0       0     112
 2001 191    94    91   16.0      3   0.40   1217   1127      0    488   2344      0    0.0  0.000      0      0  0.000  0.000  0.024  0.000   2.35   0.00   0.00      0      0     32.5   0.00   0.00   0.75   0.54   1.32   1.53   0.90   0.66   0.22   0.00   0.00   0.00   0.00      0      0      0       0     114
 2001 192    95    92   16.0      3   0.40   1223   1149      0    487   2373      0    0.0  0.000      0      0  0.000  0.000  0.025  0.000   2.35   0.00   0.00      0      0     32.7   0.00   0.00   0.75   0.54   1.32   1.53   0.89   0.65   0.22   0.00   0.00   0.00   0.00      0      0      0       0     117
 2001 193    96    93   16.0      3   0.29   1227   1164      0    486   2390      0    0.0  0.000      0      0  0.000  0.000  0.024  0.000   2.34   0.00   0.00      0      0     23.3   0.00   0.00   0.75   0.55   1.31   1.52   0.89   0.65   0.22   0.00   0.00   0.00   0.00      0      0      0       0     119
 2001 194    97    94   16.0      3   0.21   1229   1175      0    484   2405      0    0.0  0.000      0      0  0.000  0.000  0.025  0.047   2.33   0.00   0.00      0      0     16.7   0.00   0.00   0.75   0.55   1.31   1.52   0.89   0.65   0.22   0.00   0.00   0.00   0.00      0      0      0       0     122
 2001 195    98    95   16.0      3   0.20   1234   1193      0    483   2427      0    0.0  0.000      0      0  0.000  0.000  0.025  0.026   2.32   0.00   0.00      0      0     16.5   0.00   0.00   0.76   0.55   1.31   1.51   0.89   0.65   0.22   0.00   0.00   0.00   0.00      0      0      0       0     124
 2001 196    99    96   16.0      3   0.14   1241   1218      0    482   2459      0    0.0  0.000      0      0  0.000  0.000  0.024  0.015   2.30   0.00   0.00      0      0     11.3   0.00   0.00   0.76   0.55   1.31   1.51   0.88   0.65   0.22   0.00   0.00   0.00   0.00      0      0      0       0     127
 2001 197   100    97   16.0      3   0.14   1244   1231      0    481   2474      0    0.0  0.000      0      0  0.000  0.000  0.024  0.009   2.30   0.00   0.00      0      0     11.6   0.00   0.00   0.77   0.55   1.31   1.51   0.88   0.65   0.22   0.00   0.00   0.00   0.00      0      0      0       0     129
 2001 198   101    98   16.0      3   0.15   1245   1237      0    479   2482      0    0.0  0.000      0      0  0.000  0.000  0.024  0.008   2.31   0.00   0.00      0      0     11.7   0.00   0.00   0.78   0.55   1.30   1.50   0.88   0.64   0.22   0.00   0.00   0.00   0.00      0      0      0       0     131
 2001 199   102    99   16.0      3   0.15   1249   1254      0    478   2503      0    0.0  0.000      0      0  0.000  0.000  0.023  0.006   2.30   0.00   0.00      0      0     12.0   0.00   0.00   0.78   0.55   1.30   1.50   0.88   0.64   0.22   0.00   0.00   0.00   0.00      0      0      0       0     134
 2001 200   103   100   16.0      3   0.15   1251   1259      0    476   2510      0    0.0  0.000      0      0  0.000  0.000  0.022  0.006   2.31   0.00   0.00      0      0     12.1   0.00   0.00   0.79   0.55   1.29   1.49   0.87   0.64   0.22   0.00   0.00   0.00   0.00      0      0      0       0     136
 2001 201   104   101   16.0      3   0.15   1253   1268      0    474   2521      0    0.0  0.000      0      0  0.000  0.000  0.022  0.018   2.31   0.00   0.00      0      0     12.2   0.00   0.00   0.79   0.55   1.29   1.49   0.87   0.63   0.22   0.00   0.00   0.00   0.00      0      0      0       0     139
 2001 202   105   102   16.0      3   0.16   1255   1278      0    472   2533      0    0.0  0.000      0      0  0.000  0.000  0.022  0.012   2.31   0.00   0.00      0      0     12.4   0.00   0.00   0.80   0.55   1.29   1.48   0.86   0.63   0.21   0.00   0.00   0.00   0.00      0      0      0       0     141
 2001 203   106   103   16.0      3   0.14   1256   1283      0    470   2539      0    0.0  0.000      0      0  0.000  0.000  0.022  0.019   2.31   0.00   0.00      0      0     10.8   0.00   0.00   0.80   0.55   1.28   1.47   0.86   0.63   0.21   0.00   0.00   0.00   0.00      0      0      0       0     143
 2001 204   107   104   16.0      3   0.07   1257   1286      0    468   2543      0    0.0  0.000      0      0  0.000  0.000  0.022  0.012   2.32   0.00   0.00      0      0      5.4   0.00   0.00   0.80   0.55   1.28   1.47   0.86   0.63   0.21   0.00   0.00   0.00   0.00      0      0      0       0     146
 2001 205   108   105   16.0      3   0.05   1257   1290      0    466   2547      0    0.0  0.000      0      0  0.000  0.000  0.022  0.011   2.31   0.00   0.00      0      0      3.6   0.00   0.00   0.80   0.55   1.27   1.46   0.85   0.62   0.21   0.00   0.00   0.00   0.00      0      0      0       0     146
 2001 206   109   106   16.0      3   0.05   1257   1291      0    464   2548      0    0.0  0.000      0      0  0.000  0.000  0.022  0.011   2.31   0.00   0.00      0      0      3.6   0.00   0.00   0.80   0.54   1.26   1.45   0.85   0.62   0.21   0.00   0.00   0.00   0.00      0      0      0       0     146
 2001 207   110   107   16.0      3   0.04   1257   1292      0    462   2549      0    0.0  0.000      0      0  0.000  0.000  0.022  0.010   2.31   0.00   0.00      0      0      3.5   0.00   0.00   0.80   0.54   1.26   1.44   0.84   0.62   0.21   0.00   0.00   0.00   0.00      0      0      0       0     146
 2001 208   111   108   16.0      3   0.03   1257   1293      0    459   2550      0    0.0  0.000      0      0  0.000  0.000  0.022  0.015   2.31   0.00   0.00      0      0      2.8   0.00   0.00   0.80   0.54   1.25   1.44   0.84   0.61   0.21   0.00   0.00   0.00   0.00      0      0      0       0     146
 2001 209   112   109   16.0      3   0.02   1257   1294      0    457   2552      0    0.0  0.000      0      0  0.000  0.000  0.022  0.015   2.31   0.00   0.00      0      0      1.8   0.00   0.00   0.81   0.53   1.25   1.43   0.83   0.61   0.21   0.00   0.00   0.00   0.00      0      0      0       0     146
 2001 210   113   110   16.0      3   0.01   1257   1296      0    455   2554      0    0.0  0.000      0      0  0.000  0.000  0.022  0.014   2.31   0.00   0.00      0      0      1.0   0.00   0.00   0.81   0.53   1.24   1.42   0.83   0.61   0.20   0.00   0.00   0.00   0.00      0      0      0       0     146
 2001 211   114   111   16.0      3   0.01   1257   1297      0    453   2555      0    0.0  0.000      0      0  0.000  0.000  0.022  0.014   2.31   0.00   0.00      0      0      1.0   0.00   0.00   0.81   0.53   1.23   1.41   0.82   0.60   0.20   0.00   0.00   0.00   0.00      0      0      0       0     146
 2001 212   115   112   16.0      3   0.01   1257   1298      0    451   2556      0    0.0  0.000      0      0  0.000  0.000  0.022  0.013   2.31   0.00   0.00      0      0      1.0   0.00   0.00   0.82   0.52   1.23   1.41   0.82   0.60   0.20   0.00   0.00   0.00   0.00      0      0      0       0     146
 2001 213   116   113   16.0      4   0.01   1242   1082      0    448   2542      0    0.0  0.000    218      0  0.000  0.000  0.022  0.011   2.54   0.00   0.09      0    218      1.0   0.00   0.00   0.84   0.52   1.22   1.40   0.81   0.60   0.20   0.00   0.00   0.00   0.00      0      0      0       0     146
 2001 214   117   114   16.0      4   0.01   1225   1083      0    446   2528      0    0.0  0.000    220      0  0.000  0.000  0.022  0.010   2.55   0.00   0.09      0    220      1.0   0.00   0.00   0.85   0.52   1.22   1.39   0.81   0.60   0.20   0.00   0.00   0.00   0.00      0      0      0       0     146
 2001 215   118   115   16.0      4   0.01   1207   1084      0    444   2513      0    0.0  0.000    222      0  0.000  0.000  0.022  0.010   2.57   0.00   0.09      0    222      1.0   0.00   0.00   0.86   0.51   1.21   1.39   0.81   0.59   0.20   0.00   0.00   0.00   0.00      0      0      0       0     146
 2001 216   119   116   16.0      4   0.01   1189   1085      0    442   2497      0    0.0  0.000    224      0  0.000  0.000  0.022  0.010   2.59   0.00   0.09      0    224      1.1   0.00   0.00   0.87   0.51   1.20   1.38   0.80   0.59   0.20   0.00   0.00   0.00   0.00      0      0      0       0     146
 2001 217   120   117   16.0      4   0.01   1169   1085      0    440   2480      0    0.0  0.000    225      0  0.000  0.000  0.022  0.010   2.62   0.00   0.09      0    225      1.1   0.00   0.00   0.88   0.51   1.20   1.37   0.80   0.59   0.20   0.00   0.00   0.00   0.00      0      0      0       0     146
 2001 218   121   118   16.0      4   0.01   1149   1085      0    438   2461      0    0.0  0.000    226      0  0.000  0.000  0.022  0.009   2.64   0.00   0.09      0    226      1.1   0.00   0.00   0.89   0.51   1.19   1.37   0.80   0.58   0.20   0.00   0.00   0.00   0.00      0      0      0       0     146
 2001 219   122   119   16.0      4   0.01   1129   1086      0    436   2443      0    0.0  0.000    228      0  0.000  0.000  0.022  0.009   2.66   0.00   0.09      0    228      1.1   0.00   0.00   0.90   0.50   1.18   1.36   0.79   0.58   0.20   0.00   0.00   0.00   0.00      0      0      0       0     146
 2001 220   123   120   16.0      4   0.01   1108   1087      0    434   2425      0    0.0  0.000    230      0  0.000  0.000  0.022  0.008   2.69   0.00   0.09      0    230      1.0   0.00   0.00   0.90   0.50   1.18   1.35   0.79   0.58   0.19   0.00   0.00   0.00   0.00      0      0      0       0     146
 2001 221   124   121   16.0      4   0.01   1087   1087      0    432   2405      0    0.0  0.000    231      0  0.000  0.000  0.022  0.008   2.71   0.00   0.10      0    231      1.0   0.00   0.00   0.91   0.50   1.17   1.35   0.78   0.57   0.19   0.00   0.00   0.00   0.00      0      0      0       0     146
 2001 222   125   122   16.0      4   0.01   1066   1088      0    429   2385      0    0.0  0.000    232      0  0.000  0.000  0.022  0.007   2.74   0.00   0.10      0    232      1.0   0.00   0.00   0.91   0.49   1.17   1.34   0.78   0.57   0.19   0.00   0.00   0.00   0.00      0      0      0       0     146
 2001 223   126   123   16.0      4   0.01   1044   1088      0    427   2366      0    0.0  0.000    233      0  0.000  0.000  0.022  0.006   2.76   0.00   0.10      0    233      1.1   0.00   0.00   0.91   0.49   1.16   1.33   0.77   0.57   0.19   0.00   0.00   0.00   0.00      0      0      0       0     146
 2001 224   127   124   16.0      4   0.01   1022   1089      0    425   2345      0    0.0  0.000    235      0  0.000  0.000  0.022  0.005   2.79   0.00   0.10      0    235      1.1   0.00   0.00   0.92   0.49   1.16   1.32   0.77   0.56   0.19   0.00   0.00   0.00   0.00      0      0      0       0     146
 2001 225   128   125   16.0      4   0.01    998   1089      0    423   2323      0    0.0  0.000    236      0  0.000  0.000  0.022  0.004   2.82   0.00   0.10      0    236      1.1   0.00   0.00   0.93   0.49   1.15   1.32   0.77   0.56   0.19   0.00   0.00   0.00   0.00      0      0      0       0     146
 2001 226   129   126   16.0      4   0.01    974   1090      0    421   2301      0    0.0  0.000    237      0  0.000  0.000  0.022  0.003   2.86   0.00   0.10      0    237      1.1   0.00   0.00   0.93   0.48   1.14   1.31   0.76   0.56   0.19   0.00   0.00   0.00   0.00      0      0      0       0     146
 2001 227   130   127   16.0      4   0.01    949   1090      0    419   2277      0    0.0  0.000    238      0  0.000  0.000  0.022  0.002   2.89   0.00   0.10      0    238      1.2   0.00   0.00   0.94   0.48   1.14   1.30   0.76   0.56   0.19   0.00   0.00   0.00   0.00      0      0      0       0     146
 2001 228   131   128   16.0      4   0.01    923   1090      0    417   2252      0    0.0  0.000    239      0  0.000  0.000  0.022  0.001   2.93   0.00   0.11      0    239      1.2   0.00   0.00   0.95   0.48   1.13   1.30   0.75   0.55   0.19   0.00   0.00   0.00   0.00      0      0      0       0     146
 2001 229   132   129   16.0      4   0.01    896   1091      0    415   2226      0    0.0  0.000    239      0  0.000  0.000  0.022  0.000   2.97   0.00   0.11      0    239      1.2   0.00   0.00   0.95   0.47   1.13   1.29   0.75   0.55   0.19   0.00   0.00   0.00   0.00      0      0      0       0     146
 2001 230   133   130   16.0      4   0.01    869   1091      0    413   2199      0    0.0  0.000    240      0  0.000  0.000  0.022  0.000   3.01   0.00   0.11      0    240      1.3   0.00   0.00   0.96   0.47   1.12   1.28   0.75   0.55   0.19   0.00   0.00   0.00   0.00      0      0      0       0     146
 2001 231   134   131   16.0      4   0.01    841   1091      0    411   2173      0    0.0  0.000    241      0  0.000  0.000  0.022  0.000   3.05   0.00   0.11      0    241      1.3   0.00   0.00   0.96   0.47   1.11   1.27   0.74   0.54   0.18   0.00   0.00   0.00   0.00      0      0      0       0     146
 2001 232   135   132   16.0      4   0.01    813   1092      0    409   2147      0    0.0  0.000    243      0  0.000  0.000  0.022  0.000   3.09   0.00   0.11      0    243      1.3   0.00   0.00   0.96   0.46   1.11   1.27   0.74   0.54   0.18   0.00   0.00   0.00   0.00      0      0      0       0     146
 2001 233   136   133   16.0      4   0.01    785   1092      0    407   2121      0    0.0  0.000    244      0  0.000  0.000  0.022  0.022   3.14   0.00   0.12      0    244      1.3   0.00   0.00   0.96   0.46   1.10   1.26   0.74   0.54   0.18   0.00   0.00   0.00   0.00      0      0      0       0     146
 2001 234   137   134   16.0      4   0.01    756   1093      0    405   2095      0    0.0  0.000    245      0  0.000  0.000  0.022  0.015   3.19   0.00   0.12      0    245      1.2   0.00   0.00   0.97   0.46   1.10   1.26   0.73   0.54   0.18   0.00   0.00   0.00   0.00      0      0      0       0     146
 2001 235   138   135   16.0      4   0.01    727   1093      0    403   2067      0    0.0  0.000    246      0  0.000  0.000  0.022  0.015   3.24   0.00   0.12      0    246      1.3   0.00   0.00   0.97   0.46   1.09   1.25   0.73   0.53   0.18   0.00   0.00   0.00   0.00      0      0      0       0     146
 2001 236   139   136   16.0      5   0.01    727   1080     12    401   2069    277    4.2  0.006    258      5  0.000  0.000  0.000  0.014   3.25   4.52   0.12      0    258      1.3   0.00   0.00   0.97   0.46   1.09   1.25   0.73   0.53   0.18   0.00   0.00   0.00   0.00      0      0      0       0     146
 2001 237   140   137   16.0      5   0.01    727   1072     19    399   2071    277    6.9  0.009    265      5  0.000  0.000  0.000  0.012   3.25   7.19   0.13      0    265      1.3   0.00   0.00   0.97   0.46   1.09   1.25   0.73   0.53   0.18   0.00   0.00   0.00   0.00      0      0      0       0     146
 2001 238   141   138   16.0      5   0.01    727   1057     31    397   2072    277   11.2  0.015    277      5  0.000  0.000  0.000  0.010   3.26  11.20   0.13      0    277      1.3   0.00   0.00   0.97   0.46   1.09   1.25   0.73   0.53   0.18   0.00   0.00   0.00   0.00      0      0      0       0     146
 2001 239   142   139   16.0      5   0.01    727   1050     38    395   2074    277   13.7  0.018    284      5  0.000  0.000  0.000  0.009   3.27  13.37   0.14      0    284      1.3   0.00   0.00   0.97   0.46   1.09   1.25   0.73   0.53   0.18   0.00   0.00   0.00   0.00      0      0      0       0     146
 2001 240   143   140   16.0      5   0.01    727   1044     44    393   2075    277   15.8  0.021    290      5  0.000  0.000  0.000  0.009   3.27  15.08   0.14      0    290      1.2   0.00   0.00   0.97   0.46   1.09   1.25   0.73   0.53   0.18   0.00   0.00   0.00   0.00      0      0      0       0     146
[...]
 2010 156    59    56   12.0      3   1.00    818    144      0    405    962      0    0.0  0.000      0      0  0.000  0.000  0.022  0.000   2.98   0.00   0.00      0      0    121.7   0.00   0.00   0.55   1.15   2.14   2.47   0.73   0.17   0.00   0.00   0.00   0.00   0.00      0      0      0       0      39
 2010 157    60    57   12.0      3   1.05    861    162      0    442   1023      0    0.0  0.000      0      0  0.000  0.000  0.022  0.000   2.95   0.00   0.00      0      0    121.8   0.00   0.00   0.56   1.15   2.20   2.66   0.89   0.24   0.00   0.00   0.00   0.00   0.00      0      0      0       0      41
 2010 158    61    58   12.0      3   1.08    893    176      0    470   1069      0    0.0  0.000      0      0  0.000  0.000  0.022  0.000   2.95   0.00   0.00      0      0    121.2   0.00   0.00   0.57   1.15   2.23   2.80   1.02   0.30   0.00   0.00   0.00   0.00   0.00      0      0      0       0      43
 2010 159    62    59   12.0      3   0.89    914    186      0    488   1100      0    0.0  0.000      0      0  0.000  0.000  0.022  0.000   2.97   0.00   0.00      0      0     96.8   0.00   0.00   0.57   1.15   2.25   2.89   1.12   0.35   0.00   0.00   0.00   0.00   0.00      0      0      0       0      45
 2010 160    63    60   12.0      3   0.53    927    191      0    494   1118      0    0.0  0.000      0      0  0.000  0.000  0.022  0.000   2.99   0.00   0.00      0      0     57.4   0.00   0.00   0.57   1.14   2.24   2.91   1.15   0.36   0.00   0.00   0.00   0.00   0.00      0      0      0       0      48
 2010 161    64    61   12.0      3   0.57    955    205      0    494   1160      0    0.0  0.000      0      0  0.000  0.000  0.022  0.000   2.94   0.00   0.00      0      0     59.3   0.00   0.00   0.58   1.14   2.23   2.90   1.16   0.37   0.00   0.00   0.00   0.00   0.00      0      0      0       0      50
 2010 162    65    62   13.0      3   0.52    981    218      0    493   1199      0    0.0  0.000      0      0  0.000  0.000  0.022  0.000   2.93   0.00   0.00      0      0     52.7   0.00   0.00   0.58   1.13   2.22   2.90   1.16   0.37   0.00   0.00   0.00   0.00   0.00      0      0      0       0      52
 2010 163    66    63   13.0      3   0.55   1009    236      0    493   1245      0    0.0  0.000      0      0  0.000  0.000  0.022  0.000   2.88   0.00   0.00      0      0     54.6   0.00   0.00   0.59   1.13   2.21   2.89   1.17   0.38   0.00   0.00   0.00   0.00   0.00      0      0      0       0      55
 2010 164    67    64   13.0      3   0.57   1022    252      0    493   1274      0    0.0  0.000      0      0  0.000  0.000  0.022  0.000   2.85   0.00   0.00      0      0     55.4   0.00   0.00   0.60   1.12   2.20   2.89   1.17   0.38   0.00   0.00   0.00   0.00   0.00      0      0      0       0      57
 2010 165    68    65   13.0      3   0.58   1033    266      0    491   1299      0    0.0  0.000      0      0  0.000  0.000  0.022  0.000   2.82   0.00   0.00      0      0     55.9   0.00   0.00   0.61   1.12   2.19   2.88   1.17   0.38   0.00   0.00   0.00   0.00   0.00      0      0      0       0      60
 2010 166    69    66   13.0      3   0.61   1063    314      0    493   1377      0    0.0  0.000      0      0  0.000  0.000  0.022  0.000   2.81   0.00   0.00      0      0     57.7   0.00   0.00   0.61   1.11   2.19   2.88   1.19   0.39   0.00   0.00   0.00   0.00   0.00      0      0      0       0      62
 2010 167    70    67   13.0      3   0.62   1068    324      0    492   1393      0    0.0  0.000      0      0  0.000  0.000  0.022  0.000   2.82   0.00   0.00      0      0     57.9   0.00   0.00   0.62   1.11   2.17   2.87   1.19   0.39   0.00   0.00   0.00   0.00   0.00      0      0      0       0      65
 2010 168    71    68   13.0      3   0.63   1076    338      0    491   1414      0    0.0  0.000      0      0  0.000  0.000  0.022  0.000   2.79   0.00   0.00      0      0     58.2   0.00   0.00   0.62   1.10   2.16   2.86   1.19   0.40   0.00   0.00   0.00   0.00   0.00      0      0      0       0      67
 2010 169    72    69   14.0      3   0.63   1084    353      0    489   1437      0    0.0  0.000      0      0  0.000  0.000  0.022  0.000   2.78   0.00   0.00      0      0     58.5   0.00   0.00   0.63   1.10   2.15   2.85   1.19   0.40   0.00   0.00   0.00   0.00   0.00      0      0      0       0      70
 2010 170    73    70   14.0      3   0.65   1099    384      0    490   1483      0    0.0  0.000      0      0  0.000  0.000  0.022  0.000   2.79   0.00   0.00      0      0     59.2   0.00   0.00   0.63   1.09   2.14   2.84   1.20   0.40   0.00   0.00   0.00   0.00   0.00      0      0      0       0      72
 2010 171    74    71   14.0      3   0.61   1112    410      0    489   1522      0    0.0  0.000      0      0  0.000  0.000  0.022  0.000   2.78   0.00   0.00      0      0     55.3   0.00   0.00   0.63   1.09   2.13   2.83   1.20   0.41   0.00   0.00   0.00   0.00   0.00      0      0      0       0      75
 2010 172    75    72   14.0      3   0.45   1119    425      0    488   1544      0    0.0  0.000      0      0  0.000  0.000  0.022  0.000   2.83   0.00   0.00      0      0     40.0   0.00   0.00   0.63   1.08   2.12   2.82   1.20   0.41   0.00   0.00   0.00   0.00   0.00      0      0      0       0      77
 2010 173    76    73   14.0      3   0.31   1132    453      0    488   1585      0    0.0  0.000      0      0  0.000  0.000  0.022  0.001   2.77   0.00   0.00      0      0     27.7   0.00   0.00   0.64   1.08   2.11   2.81   1.21   0.42   0.00   0.00   0.00   0.00   0.00      0      0      0       0      80
 2010 174    77    74   14.0      3   0.25   1145    483      0    488   1627      0    0.0  0.000      0      0  0.000  0.000  0.022  0.001   2.72   0.00   0.00      0      0     22.1   0.00   0.00   0.64   1.07   2.11   2.80   1.21   0.43   0.00   0.00   0.00   0.00   0.00      0      0      0       0      82
 2010 175    78    75   14.0      3   0.26   1149    493      0    486   1642      0    0.0  0.000      0      0  0.000  0.000  0.022  0.001   2.71   0.00   0.00      0      0     22.4   0.00   0.00   0.65   1.07   2.10   2.78   1.21   0.43   0.00   0.00   0.00   0.00   0.00      0      0      0       0      84
 2010 176    79    76   14.0      3   0.24   1151    499      0    484   1651      0    0.0  0.000      0      0  0.000  0.000  0.022  0.001   2.71   0.00   0.00      0      0     20.6   0.00   0.00   0.65   1.06   2.08   2.77   1.21   0.43   0.00   0.00   0.00   0.00   0.00      0      0      0       0      87
 2010 177    80    77   14.0      3   0.15   1153    506      0    482   1659      0    0.0  0.000      0      0  0.000  0.000  0.022  0.001   2.70   0.00   0.00      0      0     13.3   0.00   0.00   0.65   1.06   2.07   2.75   1.20   0.43   0.00   0.00   0.00   0.00   0.00      0      0      0       0      89
 2010 178    81    78   14.0      3   0.16   1155    511      0    480   1666      0    0.0  0.000      0      0  0.000  0.000  0.022  0.005   2.69   0.00   0.00      0      0     13.4   0.00   0.00   0.66   1.05   2.06   2.74   1.20   0.42   0.00   0.00   0.00   0.00   0.00      0      0      0       0      89
 2010 179    82    79   14.0      3   0.16   1160    524      0    479   1683      0    0.0  0.000      0      0  0.000  0.000  0.022  0.005   2.68   0.00   0.00      0      0     13.4   0.00   0.00   0.66   1.05   2.05   2.73   1.20   0.43   0.00   0.00   0.00   0.00   0.00      0      0      0       0      92
 2010 180    83    80   15.0      3   0.11   1163    534      0    477   1697      0    0.0  0.000      0      0  0.000  0.000  0.022  0.010   2.66   0.00   0.00      0      0      9.9   0.00   0.00   0.67   1.04   2.04   2.71   1.20   0.43   0.00   0.00   0.00   0.00   0.00      0      0      0       0      94
 2010 181    84    81   15.0      3   0.12   1165    539      0    475   1704      0    0.0  0.000      0      0  0.000  0.000  0.022  0.017   2.65   0.00   0.00      0      0     10.0   0.00   0.00   0.67   1.04   2.03   2.70   1.19   0.42   0.00   0.00   0.00   0.00   0.00      0      0      0       0      94
 2010 182    85    82   15.0      3   0.12   1166    544      0    473   1711      0    0.0  0.000      0      0  0.000  0.000  0.022  0.009   2.64   0.00   0.00      0      0     10.1   0.00   0.00   0.68   1.03   2.02   2.69   1.18   0.42   0.00   0.00   0.00   0.00   0.00      0      0      0       0      94
 2010 183    86    83   15.0      3   0.12   1169    552      0    472   1721      0    0.0  0.000      0      0  0.000  0.000  0.022  0.008   2.62   0.00   0.00      0      0     10.3   0.00   0.00   0.69   1.03   2.01   2.68   1.18   0.42   0.00   0.00   0.00   0.00   0.00      0      0      0       0      94
 2010 184    87    84   15.0      3   0.13   1173    567      0    470   1740      0    0.0  0.000      0      0  0.000  0.000  0.022  0.007   2.60   0.00   0.00      0      0     10.7   0.00   0.00   0.70   1.02   2.00   2.66   1.18   0.42   0.00   0.00   0.00   0.00   0.00      0      0      0       0      94
 2010 185    88    85   16.0      3   0.13   1178    584      0    469   1762      0    0.0  0.000      0      0  0.000  0.000  0.022  0.005   2.56   0.00   0.00      0      0     11.1   0.00   0.00   0.71   1.02   1.99   2.65   1.18   0.43   0.00   0.00   0.00   0.00   0.00      0      0      0       0      94
 2010 186    89    86   16.0      3   0.14   1182    600      0    468   1782      0    0.0  0.000      0      0  0.000  0.000  0.022  0.004   2.53   0.00   0.00      0      0     11.5   0.00   0.00   0.72   1.01   1.98   2.64   1.17   0.43   0.01   0.00   0.00   0.00   0.00      0      0      0       0      94
 2010 187    90    87   16.0      3   0.14   1184    608      0    466   1792      0    0.0  0.000      0      0  0.000  0.000  0.022  0.004   2.52   0.00   0.00      0      0     11.7   0.00   0.00   0.73   1.01   1.98   2.63   1.17   0.43   0.01   0.00   0.00   0.00   0.00      0      0      0       0      94
 2010 188    91    88   16.0      3   0.14   1186    614      0    464   1799      0    0.0  0.000      0      0  0.000  0.000  0.022  0.003   2.51   0.00   0.00      0      0     11.8   0.00   0.00   0.74   1.00   1.97   2.62   1.16   0.42   0.01   0.00   0.00   0.00   0.00      0      0      0       0      94
 2010 189    92    89   16.0      3   0.14   1190    630      0    463   1819      0    0.0  0.000      0      0  0.000  0.000  0.022  0.003   2.48   0.00   0.00      0      0     11.4   0.00   0.00   0.74   1.00   1.96   2.61   1.16   0.42   0.01   0.00   0.00   0.00   0.00      0      0      0       0      94
 2010 190    93    90   16.0      3   0.11   1193    644      0    462   1837      0    0.0  0.000      0      0  0.000  0.000  0.022  0.003   2.46   0.00   0.00      0      0      9.1   0.00   0.00   0.75   0.99   1.95   2.60   1.16   0.42   0.01   0.00   0.00   0.00   0.00      0      0      0       0      94
 2010 191    94    91   16.0      3   0.08   1195    650      0    460   1845      0    0.0  0.000      0      0  0.000  0.000  0.022  0.003   2.45   0.00   0.00      0      0      6.7   0.00   0.00   0.75   0.99   1.94   2.59   1.15   0.42   0.01   0.00   0.00   0.00   0.00      0      0      0       0      94
 2010 192    95    92   16.0      3   0.08   1195    654      0    458   1849      0    0.0  0.000      0      0  0.000  0.000  0.022  0.003   2.44   0.00   0.00      0      0      6.7   0.00   0.00   0.75   0.98   1.93   2.57   1.15   0.42   0.01   0.00   0.00   0.00   0.00      0      0      0       0      94
 2010 193    96    93   16.0      3   0.08   1196    657      0    456   1853      0    0.0  0.000      0      0  0.000  0.000  0.022  0.005   2.44   0.00   0.00      0      0      6.5   0.00   0.00   0.76   0.98   1.92   2.56   1.14   0.42   0.01   0.00   0.00   0.00   0.00      0      0      0       0      94
 2010 194    97    94   16.0      3   0.05   1196    659      0    454   1856      0    0.0  0.000      0      0  0.000  0.000  0.022  0.005   2.43   0.00   0.00      0      0      4.3   0.00   0.00   0.76   0.97   1.91   2.55   1.14   0.41   0.01   0.00   0.00   0.00   0.00      0      0      0       0      94
 2010 195    98    95   16.0      3   0.04   1196    660      0    451   1856      0    0.0  0.000      0      0  0.000  0.000  0.022  0.009   2.43   0.00   0.00      0      0      3.7   0.00   0.00   0.76   0.97   1.90   2.54   1.13   0.41   0.01   0.00   0.00   0.00   0.00      0      0      0       0      94
 2010 196    99    96   16.0      3   0.02   1196    661      0    449   1857      0    0.0  0.000      0      0  0.000  0.000  0.022  0.009   2.43   0.00   0.00      0      0      2.0   0.00   0.00   0.76   0.96   1.89   2.52   1.12   0.41   0.01   0.00   0.00   0.00   0.00      0      0      0       0      94
 2010 197   100    97   16.0      3   0.01   1196    661      0    447   1857      0    0.0  0.000      0      0  0.000  0.000  0.022  0.008   2.43   0.00   0.00      0      0      0.7   0.00   0.00   0.76   0.96   1.88   2.51   1.12   0.41   0.01   0.00   0.00   0.00   0.00      0      0      0       0      94
 2010 198   101    98   16.0      3   0.00   1196    661      0    445   1857      0    0.0  0.000      0      0  0.000  0.000  0.022  0.008   2.43   0.00   0.00      0      0      0.2   0.00   0.00   0.76   0.96   1.88   2.51   1.12   0.41   0.01   0.00   0.00   0.00   0.00      0      0      0       0      94
 2010 199   102    99   16.0      3   0.00   1195    661      0    443   1857      0    0.0  0.000      0      0  0.000  0.000  0.022  0.044   2.43   0.00   0.00      0      0      0.2   0.00   0.00   0.76   0.95   1.87   2.50   1.11   0.41   0.01   0.00   0.00   0.00   0.00      0      0      0       0      94
 2010 200   103   100   16.0      3   0.00   1195    661      0    440   1856      0    0.0  0.000      0      0  0.000  0.000  0.022  0.243   2.43   0.00   0.00      0      0      0.1   0.00   0.00   0.77   0.94   1.85   2.47   1.10   0.40   0.01   0.00   0.00   0.00   0.00      0      0      0       0      94
 2010 201   104   101   16.0      3   0.00   1195    662      0    438   1856      0    0.0  0.000      0      0  0.000  0.000  0.022  0.474   2.43   0.00   0.00      0      0      0.1   0.00   0.00   0.77   0.89   1.76   2.35   1.04   0.38   0.00   0.00   0.00   0.00   0.00      0      0      0       0      94
 2010 202   105   102   16.0      3   0.00   1194    662      0    436   1856      0    0.0  0.000      0      0  0.000  0.000  0.022  0.336   2.43   0.00   0.00      0      0      0.1   0.00   0.00   0.77   0.89   1.76   2.35   1.04   0.38   0.00   0.00   0.00   0.00   0.00      0      0      0       0      94
 2010 203   106   103   16.0      3   0.00   1194    662      0    434   1856      0    0.0  0.000      0      0  0.000  0.000  0.022  0.090   2.43   0.00   0.00      0      0      0.0   0.00   0.00   0.77   0.89   1.76   2.35   1.04   0.38   0.00   0.00   0.00   0.00   0.00      0      0      0       0      94
 2010 204   107   104   16.0      3   0.00   1194    662      0    432   1855      0    0.0  0.000      0      0  0.000  0.000  0.022  0.053   2.43   0.00   0.00      0      0      0.0   0.00   0.00   0.77   0.89   1.76   2.35   1.04   0.38   0.00   0.00   0.00   0.00   0.00      0      0      0       0      94
 2010 205   108   105   16.0      3   0.00   1193    662      0    429   1855      0    0.0  0.000      0      0  0.000  0.000  0.022  0.031   2.43   0.00   0.00      0      0      0.0   0.00   0.00   0.77   0.89   1.76   2.35   1.04   0.38   0.00   0.00   0.00   0.00   0.00      0      0      0       0      94
 2010 206   109   106   16.0      3   0.00   1193    662      0    427   1855      0    0.0  0.000      0      0  0.000  0.000  0.022  0.205   2.44   0.00   0.00      0      0      0.0   0.00   0.00   0.77   0.89   1.76   2.35   1.04   0.38   0.00   0.00   0.00   0.00   0.00      0      0      0       0      94
 2010 207   110   107   16.0      3   0.00   1193    662      0    425   1854      0    0.0  0.000      0      0  0.000  0.000  0.022  0.162   2.44   0.00   0.00      0      0      0.0   0.00   0.00   0.77   0.89   1.76   2.35   1.04   0.38   0.00   0.00   0.00   0.00   0.00      0      0      0       0      94
 2010 208   111   108   16.0      3   0.00   1193    662      0    423   1854      0    0.0  0.000      0      0  0.000  0.000  0.022  0.096   2.44   0.00   0.00      0      0      0.0   0.00   0.00   0.77   0.89   1.76   2.35   1.04   0.38   0.00   0.00   0.00   0.00   0.00      0      0      0       0      94
 2010 209   112   109   16.0      3   0.00   1192    662      0    421   1854      0    0.0  0.000      0      0  0.000  0.000  0.022  0.105   2.44   0.00   0.00      0      0      0.0   0.00   0.00   0.77   0.89   1.76   2.35   1.04   0.38   0.00   0.00   0.00   0.00   0.00      0      0      0       0      94
 2010 210   113   110   16.0      3   0.00   1192    662      0    419   1854      0    0.0  0.000      0      0  0.000  0.000  0.022  0.062   2.44   0.00   0.00      0      0      0.0   0.00   0.00   0.77   0.89   1.76   2.35   1.04   0.38   0.00   0.00   0.00   0.00   0.00      0      0      0       0      94
 2010 211   114   111   16.0      3   0.00   1192    662      0    417   1853      0    0.0  0.000      0      0  0.000  0.000  0.022  0.036   2.44   0.00   0.00      0      0      0.0   0.00   0.00   0.77   0.89   1.76   2.35   1.04   0.38   0.00   0.00   0.00   0.00   0.00      0      0      0       0      94
 2010 212   115   112   16.0      3   0.00   1191    662      0    415   1853      0    0.0  0.000      0      0  0.000  0.000  0.022  0.154   2.44   0.00   0.00      0      0      0.0   0.00   0.00   0.77   0.89   1.76   2.35   1.04   0.38   0.00   0.00   0.00   0.00   0.00      0      0      0       0      94
 2010 213   116   113   16.0      3   0.00   1191    662      0    413   1853      0    0.0  0.000      0      0  0.000  0.000  0.022  0.091   2.44   0.00   0.00      0      0      0.0   0.00   0.00   0.77   0.89   1.76   2.35   1.04   0.38   0.00   0.00   0.00   0.00   0.00      0      0      0       0      94
 2010 214   117   114   16.0      3   0.00   1191    662      0    411   1852      0    0.0  0.000      0      0  0.000  0.000  0.022  0.054   2.44   0.00   0.00      0      0      0.0   0.00   0.00   0.77   0.89   1.76   2.35   1.04   0.38   0.00   0.00   0.00   0.00   0.00      0      0      0       0      94
 2010 215   118   115   16.0      3   0.00   1190    662      0    408   1852      0    0.0  0.000      0      0  0.000  0.000  0.022  0.031   2.44   0.00   0.00      0      0      0.0   0.00   0.00   0.77   0.89   1.76   2.35   1.04   0.38   0.00   0.00   0.00   0.00   0.00      0      0      0       0      94
 2010 216   119   116   16.0      3   0.00   1190    662      0    406   1852      0    0.0  0.000      0      0  0.000  0.000  0.022  0.018   2.44   0.00   0.00      0      0      0.0   0.00   0.00   0.77   0.89   1.76   2.35   1.04   0.38   0.00   0.00   0.00   0.00   0.00      0      0      0       0      94
 2010 217   120   117   16.0      3   0.00   1190    662      0    404   1851      0    0.0  0.000      0      0  0.000  0.000  0.022  0.015   2.44   0.00   0.00      0      0      0.0   0.00   0.00   0.77   0.89   1.76   2.35   1.04   0.38   0.00   0.00   0.00   0.00   0.00      0      0      0       0      94
 2010 218   121   118   16.0      6   0.00   1190    662      0    402   1851      0    0.0  0.000      0      0  0.000  0.000  0.022  0.008   2.44   0.00   0.00      0      0      0.0   0.00   0.00   0.77   0.89   1.76   2.35   1.04   0.38   0.00   0.00   0.00   0.00   0.00      0      0      0       0      94
