*PLANT N OUTPUT FILE

*DSSAT Cropping System Model Ver. 4.0.2.000               Aug 12, 2016; 12:47:50

*RUN   1        : UYMZ                    
 MODEL          : MZCER040 - Maize           
 EXPERIMENT     : UYMZ0195 MZ    late to create DSS                             
 TREATMENT  1   : UYMZ                    

@YEAR DOY   DAS   DAP   CNAD   GNAD   VNAD   GN%D   VN%D   NUPC   LNAD   SNAD   LN%D   SN%D   RN%D   SNN0C   SNN1C
 2000 100     3     0    0.0    0.0    0.0   0.00   0.00    0.0    0.0    0.0    0.0   0.00   0.00    0.00    0.00
 2000 101     4     1    0.0    0.0    0.0   0.00   0.00    0.0    0.0    0.0    0.0   0.00   0.00    0.00    0.00
 2000 102     5     2    0.0    0.0    0.0   0.00   0.00    0.0    0.0    0.0    0.0   0.00   0.00    0.00    0.00
 2000 103     6     3    0.0    0.0    0.0   0.00   0.00    0.0    0.0    0.0    0.0   0.00   0.00    0.00    0.00
 2000 104     7     4    0.0    0.0    0.0   0.00   0.00    0.0    0.0    0.0    0.0   0.00   0.00    0.00    0.00
 2000 105     8     5    0.0    0.0    0.0   0.00   0.00    0.0    0.0    0.0    0.0   0.00   0.00    0.00    0.00
 2000 106     9     6    0.0    0.0    0.0   0.00   0.00    0.0    0.0    0.0    0.0   0.00   0.00    0.00    0.00
 2000 107    10     7    0.0    0.0    0.0   0.00   0.00    0.0    0.0    0.0    0.0   0.00   0.00    0.00    0.00
 2000 108    11     8    1.2    0.0    1.2   0.00   4.40    0.0    0.6    0.6    4.4   4.40   0.00    0.00    0.00
 2000 109    12     9    1.3    0.0    1.3   0.00   4.50    0.2    0.6    0.6    4.5   4.50   1.08    0.00    0.00
 2000 110    13    10    1.3    0.0    1.3   0.00   4.50    0.2    0.6    0.6    4.5   4.50   1.06    0.00    0.00
 2000 111    14    11    1.3    0.0    1.3   0.00   4.50    0.2    0.6    0.6    4.5   4.50   1.00    0.00    0.00
 2000 112    15    12    1.2    0.0    1.2   0.00   4.40    0.2    0.6    0.6    4.4   4.40   1.15    0.00    0.00
 2000 113    16    13    1.2    0.0    1.2   0.00   4.36    0.2    0.6    0.6    4.4   4.36   1.16    0.00    0.00
 2000 114    17    14    1.2    0.0    1.2   0.00   4.32    0.2    0.6    0.6    4.3   4.32   1.17    0.00    0.00
 2000 115    18    15    1.2    0.0    1.2   0.00   4.28    0.2    0.6    0.6    4.3   4.28   1.19    0.00    0.00
 2000 116    19    16    1.2    0.0    1.2   0.00   4.24    0.3    0.6    0.6    4.2   4.24   1.24    0.00    0.01
 2000 117    20    17    1.2    0.0    1.2   0.00   3.57    0.3    0.7    0.5    3.6   3.57   1.18    0.00    0.01
 2000 118    21    18    1.4    0.0    1.4   0.00   3.44    0.5    0.9    0.5    3.4   3.44   1.09    0.00    0.01
 2000 119    22    19    1.6    0.0    1.6   0.00   3.34    0.8    1.2    0.5    3.3   3.34   1.19    0.00    0.01
 2000 120    23    20    2.0    0.0    2.0   0.00   3.44    1.2    1.5    0.5    3.4   3.44   1.16    0.00    0.01
 2000 121    24    21    2.3    0.0    2.3   0.00   3.45    1.5    1.9    0.5    3.4   3.45   1.11    0.00    0.01
 2000 122    25    22    2.7    0.0    2.7   0.00   3.41    2.0    2.2    0.5    3.4   3.41   1.14    0.00    0.02
 2000 123    26    23    2.8    0.0    2.8   0.00   3.15    2.0    2.3    0.4    3.1   3.15   1.00    0.00    0.02
 2000 124    27    24    3.5    0.0    3.5   0.00   3.69    3.1    3.0    0.5    3.7   3.69   1.33    0.00    0.02
 2000 125    28    25    3.7    0.0    3.7   0.00   3.71    3.2    3.2    0.5    3.7   3.71   1.14    0.00    0.03
 2000 126    29    26    3.9    0.0    3.9   0.00   3.75    3.6    3.3    0.5    3.7   3.75   1.23    0.00    0.03
 2000 127    30    27    3.9    0.0    3.9   0.00   4.00    3.7    3.3    0.6    4.0   4.00   1.00    0.00    0.03
 2000 128    31    28    3.8    0.0    3.8   0.00   3.64    3.9    3.3    0.5    3.6   3.64   1.18    0.00    0.04
 2000 129    32    29    4.0    0.0    4.0   0.00   3.48    4.4    3.5    0.5    3.5   3.48   1.23    0.00    0.05
 2000 130    33    30    4.7    0.0    4.7   0.00   3.79    5.3    4.1    0.5    3.8   3.79   1.23    0.00    0.05
 2000 131    34    31    4.9    0.0    4.9   0.00   3.68    5.8    4.4    0.5    3.7   3.68   1.21    0.00    0.06
 2000 132    35    32    5.1    0.0    5.1   0.00   3.59    6.2    4.6    0.5    3.6   3.59   1.18    0.00    0.07
 2000 133    36    33    5.8    0.0    5.8   0.00   3.55    6.9    5.3    0.5    3.6   3.55   1.14    0.00    0.09
 2000 134    37    34    6.4    0.0    6.4   0.00   3.52    7.6    5.9    0.5    3.5   3.52   1.14    0.00    0.10
 2000 135    38    35    7.1    0.0    7.1   0.00   3.48    8.2    6.5    0.5    3.5   3.48   1.08    0.00    0.11
 2000 136    39    36    7.7    0.0    7.7   0.00   3.45    8.9    7.2    0.5    3.5   3.45   1.07    0.00    0.12
 2000 137    40    37    8.4    0.0    8.4   0.00   3.42    9.6    7.9    0.5    3.4   3.42   1.07    0.00    0.13
 2000 138    41    38    8.5    0.0    8.5   0.00   3.16    9.6    7.9    0.5    3.2   3.16   1.06    0.00    0.14
 2000 139    42    39    9.0    0.0    9.0   0.00   3.14   10.4    8.4    0.6    3.1   3.14   1.06    0.00    0.16
 2000 140    43    40    9.7    0.0    9.7   0.00   3.13   11.5    9.1    0.6    3.1   3.13   1.07    0.00    0.17
 2000 141    44    41   10.3    0.0   10.3   0.00   3.15   12.3    9.6    0.6    3.2   3.15   1.08    0.00    0.18
 2000 142    45    42   10.8    0.0   10.8   0.00   3.09   13.2   10.2    0.7    3.1   3.09   1.06    0.00    0.20
 2000 143    46    43   11.4    0.0   11.4   0.00   3.02   14.0   10.6    0.8    3.0   3.02   1.04    0.00    0.22
 2000 144    47    44   11.8    0.0   11.8   0.00   2.93   14.7   11.0    0.8    2.9   2.93   1.00    0.00    0.24
 2000 145    48    45   12.2    0.0   12.2   0.00   2.83   15.2   11.3    0.9    2.8   2.83   0.97    0.00    0.26
 2000 146    49    46   12.6    0.0   12.6   0.00   2.74   15.7   11.6    0.9    2.7   2.74   0.99    0.00    0.28
 2000 147    50    47   12.7    0.0   12.7   0.00   2.55   15.8   11.7    1.0    2.6   2.55   0.91    0.00    0.30
 2000 148    51    48   13.5    0.0   13.5   0.00   2.59   17.0   12.4    1.1    2.6   2.59   0.91    0.00    0.32
 2000 149    52    49   14.3    0.0   14.3   0.00   2.65   18.2   13.1    1.2    2.7   2.65   0.93    0.00    0.35
 2000 150    53    50   15.0    0.0   15.0   0.00   2.71   19.3   13.7    1.3    2.7   2.71   0.94    0.00    0.37
 2000 151    54    51   15.6    0.0   15.6   0.00   2.64   20.2   14.2    1.5    2.6   2.64   0.93    0.00    0.40
 2000 152    55    52   16.2    0.0   16.2   0.00   2.63   21.0   14.6    1.6    2.6   2.63   0.94    0.00    0.43
 2000 153    56    53   16.7    0.0   16.7   0.00   2.65   21.7   15.0    1.7    2.7   2.65   0.95    0.00    0.46
 2000 154    57    54   17.0    0.0   17.0   0.00   2.66   22.3   15.3    1.7    2.7   2.66   0.94    0.00    0.49
 2000 155    58    55   17.4    0.0   17.4   0.00   2.61   22.8   15.6    1.8    2.6   2.61   0.93    0.00    0.52
 2000 156    59    56   17.7    0.0   17.7   0.00   2.51   23.2   15.7    2.0    2.5   2.51   0.94    0.00    0.55
 2000 157    60    57   18.0    0.0   18.0   0.00   2.40   23.5   15.9    2.1    2.4   2.40   0.95    0.00    0.59
 2000 158    61    58   18.3    0.0   18.3   0.00   2.35   23.8   16.0    2.3    2.4   2.35   0.96    0.00    0.62
 2000 159    62    59   18.5    0.0   18.5   0.00   2.30   24.1   16.1    2.4    2.3   2.30   0.96    0.00    0.65
 2000 160    63    60   18.8    0.0   18.8   0.00   2.24   24.4   16.2    2.5    2.2   2.24   0.97    0.00    0.69
 2000 161    64    61   19.0    0.0   19.0   0.00   2.18   24.6   16.3    2.7    2.2   2.18   0.98    0.00    0.72
 2000 162    65    62   19.2    0.0   19.2   0.00   2.15   24.9   16.4    2.8    2.1   2.15   0.98    0.00    0.76
 2000 163    66    63   19.4    0.0   19.4   0.00   2.01   25.1   16.3    3.1    2.0   2.01   0.98    0.00    0.79
 2000 164    67    64   19.6    0.0   19.6   0.00   1.86   25.2   16.0    3.5    1.9   1.86   0.98    0.00    0.82
 2000 165    68    65   19.8    0.0   19.8   0.00   1.78   25.5   15.8    4.0    1.8   1.78   0.98    0.00    0.86
 2000 166    69    66   20.0    0.0   20.0   0.00   1.71   25.8   15.5    4.5    1.7   1.71   0.98    0.00    0.89
 2000 167    70    67   20.5    0.0   20.5   0.00   1.68   26.2   15.5    5.0    1.7   1.68   0.99    0.00    0.93
 2000 168    71    68   21.1    0.0   21.1   0.00   1.69   26.8   15.7    5.3    1.7   1.69   0.99    0.00    0.96
 2000 169    72    69   21.6    0.0   21.6   0.00   1.67   27.4   15.8    5.8    1.7   1.67   0.99    0.00    1.00
 2000 170    73    70   22.7    0.0   22.7   0.00   1.73   28.5   16.5    6.2    1.7   1.73   0.99    0.00    1.03
 2000 171    74    71   23.7    0.0   23.7   0.00   1.75   29.6   16.9    6.9    1.7   1.75   1.00    0.00    1.07
 2000 172    75    72   24.9    0.0   24.9   0.00   1.80   30.9   17.5    7.4    1.8   1.80   1.01    0.00    1.10
 2000 173    76    73   26.0    0.0   26.0   0.00   1.84   32.0   18.0    8.0    1.8   1.84   1.01    0.00    1.14
 2000 174    77    74   27.2    0.0   27.2   0.00   1.85   33.3   18.4    8.8    1.9   1.85   1.01    0.00    1.17
 2000 175    78    75   28.5    0.0   28.5   0.00   1.91   34.6   19.1    9.3    1.9   1.91   1.02    0.00    1.21
 2000 176    79    76   29.6    0.0   29.6   0.00   1.91   35.8   19.4   10.2    1.9   1.91   1.02    0.00    1.24
 2000 177    80    77   30.7    0.0   30.7   0.00   1.94   36.9   19.9   10.8    1.9   1.94   1.03    0.00    1.28
 2000 178    81    78   31.7    0.0   31.7   0.00   1.98   37.9   20.4   11.3    2.0   1.98   1.03    0.00    1.32
 2000 179    82    79   32.7    0.0   32.7   0.00   1.99   38.9   20.7   11.9    2.0   1.99   1.04    0.00    1.35
 2000 180    83    80   33.5    0.0   33.5   0.00   2.02   39.8   21.1   12.4    2.0   2.02   1.04    0.00    1.39
 2000 181    84    81   34.1    0.0   34.1   0.00   2.03   40.3   21.3   12.7    2.0   2.03   1.05    0.00    1.43
 2000 182    85    82   34.6    0.0   34.6   0.00   2.01   40.9   21.3   13.3    2.0   2.01   1.05    0.00    1.46
 2000 183    86    83   35.2    0.0   35.2   0.00   2.01   41.5   21.5   13.7    2.0   2.01   1.06    0.00    1.50
 2000 184    87    84   35.7    0.0   35.7   0.00   2.01   42.0   21.5   14.1    2.0   2.01   1.06    0.00    1.54
 2000 185    88    85   36.1    0.0   36.1   0.00   1.99   42.4   21.5   14.6    2.0   1.99   1.06    0.00    1.57
 2000 186    89    86   36.5    0.0   36.5   0.00   1.96   42.8   21.4   15.1    2.0   1.96   1.06    0.00    1.61
 2000 187    90    87   36.8    0.0   36.8   0.00   1.92   43.1   21.2   15.6    1.9   1.92   1.06    0.00    1.65
 2000 188    91    88   37.1    0.0   37.1   0.00   1.88   43.5   21.0   16.2    1.9   1.88   1.06    0.00    1.68
 2000 189    92    89   37.6    0.0   37.6   0.00   1.83   43.9   20.8   16.8    1.8   1.83   1.06    0.00    1.72
 2000 190    93    90   38.0    0.0   38.0   0.00   1.84   44.3   20.9   17.1    1.8   1.84   1.07    0.00    1.76
 2000 191    94    91   38.5    0.0   38.5   0.00   1.85   44.8   21.1   17.4    1.9   1.85   1.07    0.00    1.79
 2000 192    95    92   38.9    0.0   38.9   0.00   1.86   45.2   21.2   17.6    1.9   1.86   1.07    0.00    1.83
 2000 193    96    93   39.0    0.0   39.0   0.00   1.86   45.3   21.2   17.8    1.9   1.86   1.08    0.00    1.87
 2000 194    97    94   39.2    0.0   39.2   0.00   1.85   45.6   21.3   18.0    1.9   1.85   1.08    0.00    1.91
 2000 195    98    95   39.5    0.0   39.5   0.00   1.86   45.9   21.4   18.1    1.9   1.86   1.08    0.00    1.94
 2000 196    99    96   39.8    0.0   39.8   0.00   1.87   46.2   21.5   18.3    1.9   1.87   1.08    0.00    1.98
 2000 197   100    97   40.1    0.0   40.1   0.00   1.88   46.4   21.6   18.5    1.9   1.88   1.09    0.00    2.02
 2000 198   101    98   40.3    0.0   40.3   0.00   1.88   46.6   21.7   18.6    1.9   1.88   1.09    0.00    2.05
 2000 199   102    99   40.5    0.0   40.5   0.00   1.89   46.8   21.8   18.7    1.9   1.89   1.10    0.00    2.09
 2000 200   103   100   40.7    0.0   40.7   0.00   1.89   47.1   21.8   18.9    1.9   1.89   1.10    0.00    2.13
 2000 201   104   101   41.0    0.0   41.0   0.00   1.90   47.3   22.0   19.0    1.9   1.90   1.10    0.00    2.16
 2000 202   105   102   41.2    0.0   41.2   0.00   1.91   47.6   22.0   19.2    1.9   1.91   1.11    0.00    2.20
 2000 203   106   103   41.5    0.0   41.5   0.00   1.91   47.8   22.1   19.4    1.9   1.91   1.11    0.00    2.24
 2000 204   107   104   41.8    0.0   41.8   0.00   1.92   48.1   22.2   19.5    1.9   1.92   1.12    0.00    2.27
 2000 205   108   105   42.1    0.0   42.1   0.00   1.93   48.4   22.4   19.7    1.9   1.93   1.12    0.00    2.31
 2000 206   109   106   42.3    0.0   42.3   0.00   1.94   48.6   22.4   19.9    1.9   1.94   1.12    0.00    2.35
 2000 207   110   107   42.6    0.0   42.6   0.00   1.94   48.9   22.5   20.1    1.9   1.94   1.13    0.00    2.38
 2000 208   111   108   42.9    0.0   42.9   0.00   1.95   49.2   22.7   20.2    2.0   1.95   1.13    0.00    2.42
 2000 209   112   109   43.2    0.0   43.2   0.00   1.96   49.5   22.8   20.4    2.0   1.96   1.13    0.00    2.46

*DSSAT Cropping System Model Ver. 4.0.2.000               Aug 12, 2016; 12:47:50

*RUN   2        : UYMZ                    
 MODEL          : MZCER040 - Maize           
 EXPERIMENT     : UYMZ0195 MZ    late to create DSS                             
 TREATMENT  1   : UYMZ                    

@YEAR DOY   DAS   DAP   CNAD   GNAD   VNAD   GN%D   VN%D   NUPC   LNAD   SNAD   LN%D   SN%D   RN%D   SNN0C   SNN1C
 2001 100     3     0    0.0    0.0    0.0   0.00   0.00    0.0    0.0    0.0    0.0   0.00   0.00    0.00    0.00
 2001 101     4     1    0.0    0.0    0.0   0.00   0.00    0.0    0.0    0.0    0.0   0.00   0.00    0.00    0.00
 2001 102     5     2    0.0    0.0    0.0   0.00   0.00    0.0    0.0    0.0    0.0   0.00   0.00    0.00    0.00
 2001 103     6     3    0.0    0.0    0.0   0.00   0.00    0.0    0.0    0.0    0.0   0.00   0.00    0.00    0.00
 2001 104     7     4    0.0    0.0    0.0   0.00   0.00    0.0    0.0    0.0    0.0   0.00   0.00    0.00    0.00
 2001 105     8     5    0.0    0.0    0.0   0.00   0.00    0.0    0.0    0.0    0.0   0.00   0.00    0.00    0.00
 2001 106     9     6    1.2    0.0    1.2   0.00   4.40    0.0    0.6    0.6    4.4   4.40   0.00    0.00    0.00
 2001 107    10     7    1.3    0.0    1.3   0.00   4.51    0.2    0.6    0.6    4.5   4.51   1.09    0.00    0.00
 2001 108    11     8    1.3    0.0    1.3   0.00   4.51    0.2    0.6    0.6    4.5   4.51   1.04    0.00    0.00
 2001 109    12     9    1.2    0.0    1.2   0.00   4.41    0.2    0.6    0.6    4.4   4.41   1.16    0.00    0.00
 2001 110    13    10    1.2    0.0    1.2   0.00   4.37    0.2    0.6    0.6    4.4   4.37   1.18    0.00    0.00
 2001 111    14    11    1.2    0.0    1.2   0.00   4.35    0.2    0.6    0.6    4.3   4.35   1.18    0.00    0.00
 2001 112    15    12    1.2    0.0    1.2   0.00   4.33    0.3    0.6    0.6    4.3   4.33   1.19    0.00    0.00
 2001 113    16    13    1.2    0.0    1.2   0.00   4.33    0.3    0.6    0.6    4.3   4.33   1.15    0.00    0.00
 2001 114    17    14    1.2    0.0    1.2   0.00   4.28    0.3    0.6    0.6    4.3   4.28   1.18    0.00    0.01
 2001 115    18    15    1.2    0.0    1.2   0.00   4.26    0.3    0.6    0.6    4.3   4.26   1.15    0.00    0.01
 2001 116    19    16    1.2    0.0    1.2   0.00   3.92    0.3    0.6    0.5    3.9   3.92   1.20    0.00    0.01
 2001 117    20    17    1.3    0.0    1.3   0.00   3.60    0.4    0.8    0.5    3.6   3.60   1.15    0.00    0.01
 2001 118    21    18    1.5    0.0    1.5   0.00   3.81    0.6    0.9    0.5    3.8   3.81   1.09    0.00    0.01
 2001 119    22    19    1.6    0.0    1.6   0.00   3.90    0.8    1.1    0.5    3.9   3.90   1.18    0.00    0.01
 2001 120    23    20    1.7    0.0    1.7   0.00   3.67    0.9    1.2    0.5    3.7   3.67   1.09    0.00    0.02
 2001 121    24    21    1.9    0.0    1.9   0.00   3.54    1.1    1.4    0.5    3.5   3.54   1.09    0.00    0.02
 2001 122    25    22    2.2    0.0    2.2   0.00   3.73    1.6    1.7    0.5    3.7   3.73   1.32    0.00    0.02
 2001 123    26    23    2.4    0.0    2.4   0.00   3.86    1.9    1.8    0.5    3.9   3.86   1.33    0.00    0.02
 2001 124    27    24    2.5    0.0    2.5   0.00   3.81    2.1    2.0    0.5    3.8   3.81   1.25    0.00    0.03
 2001 125    28    25    2.7    0.0    2.7   0.00   3.71    2.4    2.1    0.5    3.7   3.71   1.24    0.00    0.03
 2001 126    29    26    2.9    0.0    2.9   0.00   3.81    2.7    2.3    0.5    3.8   3.81   1.21    0.00    0.04
 2001 127    30    27    3.0    0.0    3.0   0.00   3.68    2.8    2.5    0.5    3.7   3.68   1.12    0.00    0.04
 2001 128    31    28    3.3    0.0    3.3   0.00   3.54    3.0    2.8    0.5    3.5   3.54   1.08    0.00    0.05
 2001 129    32    29    3.6    0.0    3.6   0.00   3.55    3.4    3.1    0.5    3.5   3.55   1.11    0.00    0.05
 2001 130    33    30    4.0    0.0    4.0   0.00   3.65    4.1    3.5    0.5    3.7   3.65   1.22    0.00    0.06
 2001 131    34    31    4.3    0.0    4.3   0.00   3.76    4.3    3.8    0.5    3.8   3.76   1.14    0.00    0.06
 2001 132    35    32    4.5    0.0    4.5   0.00   3.67    4.7    4.0    0.5    3.7   3.67   1.22    0.00    0.07
 2001 133    36    33    4.7    0.0    4.7   0.00   3.82    5.2    4.2    0.5    3.8   3.82   1.29    0.00    0.08
 2001 134    37    34    4.8    0.0    4.8   0.00   4.00    5.5    4.3    0.6    4.0   4.00   1.27    0.00    0.08
 2001 135    38    35    4.8    0.0    4.8   0.00   3.82    5.5    4.3    0.5    3.8   3.82   1.25    0.00    0.08
 2001 136    39    36    4.8    0.0    4.8   0.00   3.57    5.5    4.3    0.5    3.6   3.57   1.25    0.00    0.08
 2001 137    40    37    5.6    0.0    5.6   0.00   3.77    6.3    5.1    0.5    3.8   3.77   1.15    0.00    0.09
 2001 138    41    38    6.0    0.0    6.0   0.00   3.68    6.6    5.5    0.5    3.7   3.68   1.10    0.00    0.10
 2001 139    42    39    6.2    0.0    6.2   0.00   3.58    7.2    5.7    0.5    3.6   3.58   1.19    0.00    0.11
 2001 140    43    40    6.7    0.0    6.7   0.00   3.58    7.5    6.2    0.5    3.6   3.58   1.08    0.00    0.12
 2001 141    44    41    7.2    0.0    7.2   0.00   3.59    8.0    6.7    0.5    3.6   3.59   1.08    0.00    0.13
 2001 142    45    42    7.8    0.0    7.8   0.00   3.50    8.6    7.3    0.5    3.5   3.50   1.08    0.00    0.14
 2001 143    46    43    8.3    0.0    8.3   0.00   3.48    9.5    7.8    0.5    3.5   3.48   1.18    0.00    0.15
 2001 144    47    44    8.9    0.0    8.9   0.00   3.45   10.5    8.4    0.5    3.5   3.45   1.20    0.00    0.17
 2001 145    48    45    9.6    0.0    9.6   0.00   3.42   11.6    9.1    0.5    3.4   3.42   1.18    0.00    0.18
 2001 146    49    46   10.5    0.0   10.5   0.00   3.39   12.7    9.9    0.6    3.4   3.39   1.16    0.00    0.20
 2001 147    50    47   11.6    0.0   11.6   0.00   3.35   13.9   11.0    0.6    3.4   3.35   1.13    0.00    0.21
 2001 148    51    48   12.4    0.0   12.4   0.00   3.32   14.8   11.7    0.7    3.3   3.32   1.13    0.00    0.23
 2001 149    52    49   13.9    0.0   13.9   0.00   3.29   16.4   13.0    0.8    3.3   3.29   1.11    0.00    0.25
 2001 150    53    50   14.8    0.0   14.8   0.00   3.25   17.2   13.9    0.9    3.3   3.25   1.07    0.00    0.27
 2001 151    54    51   15.7    0.0   15.7   0.00   3.21   18.1   14.6    1.1    3.2   3.21   1.07    0.00    0.29
 2001 152    55    52   16.8    0.0   16.8   0.00   3.17   19.2   15.6    1.3    3.2   3.17   1.07    0.00    0.30
 2001 153    56    53   17.7    0.0   17.7   0.00   3.13   20.1   16.3    1.4    3.1   3.13   1.07    0.00    0.32
 2001 154    57    54   18.6    0.0   18.6   0.00   3.09   21.0   17.0    1.6    3.1   3.09   1.07    0.00    0.34
 2001 155    58    55   18.7    0.0   18.7   0.00   2.98   21.1   16.9    1.7    3.0   2.98   1.06    0.00    0.36
 2001 156    59    56   20.0    0.0   20.0   0.00   3.02   22.5   18.0    2.0    3.0   3.02   1.07    0.00    0.38
 2001 157    60    57   21.0    0.0   21.0   0.00   3.03   24.5   18.7    2.2    3.0   3.03   1.22    0.00    0.39
 2001 158    61    58   22.3    0.0   22.3   0.00   2.98   26.2   19.7    2.6    3.0   2.98   1.17    0.00    0.42
 2001 159    62    59   23.5    0.0   23.5   0.00   2.97   27.0   20.5    3.0    3.0   2.97   1.07    0.00    0.44
 2001 160    63    60   24.5    0.0   24.5   0.00   2.94   28.0   21.2    3.3    2.9   2.94   1.07    0.00    0.47
 2001 161    64    61   25.4    0.0   25.4   0.00   2.91   28.9   21.8    3.7    2.9   2.91   1.07    0.00    0.49
 2001 162    65    62   27.6    0.0   27.6   0.00   2.86   31.1   23.1    4.5    2.9   2.86   1.08    0.00    0.51
 2001 163    66    63   29.7    0.0   29.7   0.00   2.81   33.2   24.0    5.7    2.8   2.81   1.08    0.00    0.54
 2001 164    67    64   31.5    0.0   31.5   0.00   2.77   35.0   24.5    7.0    2.8   2.77   1.08    0.00    0.56
 2001 165    68    65   33.0    0.0   33.0   0.00   2.58   36.6   24.0    8.9    2.6   2.58   1.07    0.00    0.58
 2001 166    69    66   34.4    0.0   34.4   0.00   2.62   38.0   24.7    9.7    2.6   2.62   1.07    0.00    0.61
 2001 167    70    67   35.1    0.0   35.1   0.00   2.59   38.7   24.8   10.3    2.6   2.59   1.07    0.00    0.63
 2001 168    71    68   35.8    0.0   35.8   0.00   2.58   39.5   25.0   10.9    2.6   2.58   1.07    0.00    0.66
 2001 169    72    69   36.5    0.0   36.5   0.00   2.53   40.2   24.9   11.6    2.5   2.53   1.06    0.00    0.68
 2001 170    73    70   37.9    0.0   37.9   0.00   2.59   41.7   25.6   12.3    2.6   2.59   1.06    0.00    0.70
 2001 171    74    71   39.1    0.0   39.1   0.00   2.62   43.0   26.2   12.9    2.6   2.62   1.08    0.00    0.73
 2001 172    75    72   40.3    0.0   40.3   0.00   2.66   44.3   26.7   13.5    2.7   2.66   1.10    0.00    0.75
 2001 173    76    73   41.6    0.0   41.6   0.00   2.67   45.8   27.2   14.4    2.7   2.67   1.11    0.00    0.78
 2001 174    77    74   42.9    0.0   42.9   0.00   2.69   47.1   27.7   15.3    2.7   2.69   1.10    0.00    0.81
 2001 175    78    75   44.2    0.0   44.2   0.00   2.69   48.4   28.1   16.1    2.7   2.69   1.09    0.00    0.83
 2001 176    79    76   44.7    0.0   44.7   0.00   2.69   48.8   28.2   16.5    2.7   2.69   1.07    0.00    0.86
 2001 177    80    77   45.8    0.0   45.8   0.00   2.68   49.8   28.4   17.3    2.7   2.68   1.08    0.00    0.89
 2001 178    81    78   46.8    0.0   46.8   0.00   2.65   50.9   28.5   18.3    2.6   2.65   1.08    0.00    0.91
 2001 179    82    79   47.8    0.0   47.8   0.00   2.63   51.9   28.7   19.1    2.6   2.63   1.08    0.00    0.94
 2001 180    83    80   48.7    0.0   48.7   0.00   2.60   52.9   28.8   20.0    2.6   2.60   1.07    0.00    0.96
 2001 181    84    81   49.6    0.0   49.6   0.00   2.56   53.7   28.7   20.9    2.6   2.56   1.07    0.00    0.99
 2001 182    85    82   50.4    0.0   50.4   0.00   2.49   54.5   28.5   21.9    2.5   2.49   1.07    0.00    1.02
 2001 183    86    83   51.1    0.0   51.1   0.00   2.50   55.3   28.7   22.4    2.5   2.50   1.07    0.00    1.04
 2001 184    87    84   51.8    0.0   51.8   0.00   2.49   55.9   28.8   23.0    2.5   2.49   1.07    0.00    1.07
 2001 185    88    85   52.5    0.0   52.5   0.00   2.49   56.6   29.0   23.5    2.5   2.49   1.07    0.00    1.10
 2001 186    89    86   53.1    0.0   53.1   0.00   2.45   57.2   28.9   24.2    2.4   2.45   1.07    0.00    1.12
 2001 187    90    87   53.5    0.0   53.5   0.00   2.42   57.7   28.8   24.7    2.4   2.42   1.07    0.00    1.15
 2001 188    91    88   53.9    0.0   53.9   0.00   2.40   58.1   28.7   25.2    2.4   2.40   1.07    0.00    1.17
 2001 189    92    89   54.3    0.0   54.3   0.00   2.38   58.5   28.7   25.7    2.4   2.38   1.07    0.00    1.20
 2001 190    93    90   54.8    0.0   54.8   0.00   2.35   58.9   28.5   26.3    2.3   2.35   1.07    0.00    1.23
 2001 191    94    91   55.2    0.0   55.2   0.00   2.35   59.3   28.7   26.5    2.4   2.35   1.07    0.00    1.25
 2001 192    95    92   55.7    0.0   55.7   0.00   2.35   59.8   28.7   27.0    2.3   2.35   1.08    0.00    1.28
 2001 193    96    93   55.9    0.0   55.9   0.00   2.34   60.0   28.7   27.2    2.3   2.34   1.08    0.00    1.31
 2001 194    97    94   56.1    0.0   56.1   0.00   2.33   60.2   28.7   27.4    2.3   2.33   1.08    0.00    1.33
 2001 195    98    95   56.3    0.0   56.3   0.00   2.32   60.5   28.6   27.7    2.3   2.32   1.08    0.00    1.36
 2001 196    99    96   56.6    0.0   56.6   0.00   2.30   60.8   28.6   28.1    2.3   2.30   1.08    0.00    1.38
 2001 197   100    97   56.9    0.0   56.9   0.00   2.30   61.1   28.6   28.3    2.3   2.30   1.08    0.00    1.41
 2001 198   101    98   57.3    0.0   57.3   0.00   2.31   61.4   28.7   28.5    2.3   2.31   1.08    0.00    1.44
 2001 199   102    99   57.6    0.0   57.6   0.00   2.30   61.7   28.8   28.9    2.3   2.30   1.08    0.00    1.46
 2001 200   103   100   57.9    0.0   57.9   0.00   2.31   62.0   28.9   29.1    2.3   2.31   1.08    0.00    1.49
 2001 201   104   101   58.2    0.0   58.2   0.00   2.31   62.3   28.9   29.3    2.3   2.31   1.08    0.00    1.51
 2001 202   105   102   58.4    0.0   58.4   0.00   2.31   62.4   28.9   29.5    2.3   2.31   1.08    0.00    1.54
 2001 203   106   103   58.7    0.0   58.7   0.00   2.31   62.7   29.0   29.7    2.3   2.31   1.08    0.00    1.57
 2001 204   107   104   59.0    0.0   59.0   0.00   2.32   62.9   29.1   29.8    2.3   2.32   1.08    0.00    1.59
 2001 205   108   105   59.0    0.0   59.0   0.00   2.31   62.9   29.1   29.9    2.3   2.31   1.08    0.00    1.59
 2001 206   109   106   59.0    0.0   59.0   0.00   2.31   62.9   29.1   29.9    2.3   2.31   1.09    0.00    1.59
 2001 207   110   107   59.0    0.0   59.0   0.00   2.31   62.9   29.1   29.9    2.3   2.31   1.09    0.00    1.59
 2001 208   111   108   59.0    0.0   59.0   0.00   2.31   62.9   29.1   29.9    2.3   2.31   1.10    0.00    1.59
 2001 209   112   109   59.0    0.0   59.0   0.00   2.31   62.9   29.0   29.9    2.3   2.31   1.10    0.00    1.59
 2001 210   113   110   59.0    0.0   59.0   0.00   2.31   62.9   29.0   29.9    2.3   2.31   1.11    0.00    1.59
 2001 211   114   111   59.0    0.0   59.0   0.00   2.31   62.9   29.0   29.9    2.3   2.31   1.11    0.00    1.59
 2001 212   115   112   59.0    0.0   59.0   0.00   2.31   62.9   29.0   30.0    2.3   2.31   1.12    0.00    1.59
 2001 213   116   113   59.0    0.0   59.0   0.00   2.54   62.9   31.5   27.5    2.5   2.54   1.13    0.00    1.59
 2001 214   117   114   59.0    0.0   59.0   0.00   2.55   62.9   31.3   27.7    2.6   2.55   1.13    0.00    1.59
 2001 215   118   115   59.0    0.0   59.0   0.00   2.57   62.9   31.1   27.9    2.6   2.57   1.14    0.00    1.59
 2001 216   119   116   59.0    0.0   59.0   0.00   2.59   62.9   30.8   28.1    2.6   2.59   1.14    0.00    1.59
 2001 217   120   117   59.0    0.0   59.0   0.00   2.62   62.9   30.6   28.4    2.6   2.62   1.15    0.00    1.59
 2001 218   121   118   59.0    0.0   59.0   0.00   2.64   62.9   30.3   28.6    2.6   2.64   1.15    0.00    1.59
 2001 219   122   119   59.0    0.0   59.0   0.00   2.66   62.9   30.0   28.9    2.7   2.66   1.16    0.00    1.59
 2001 220   123   120   59.0    0.0   59.0   0.00   2.69   62.9   29.8   29.2    2.7   2.69   1.16    0.00    1.59
 2001 221   124   121   59.0    0.0   59.0   0.00   2.71   62.9   29.5   29.5    2.7   2.71   1.17    0.00    1.59
 2001 222   125   122   59.0    0.0   59.0   0.00   2.74   62.9   29.2   29.8    2.7   2.74   1.18    0.00    1.59
 2001 223   126   123   59.0    0.0   59.0   0.00   2.76   62.9   28.9   30.1    2.8   2.76   1.18    0.00    1.59
 2001 224   127   124   59.0    0.0   59.0   0.00   2.79   62.9   28.5   30.4    2.8   2.79   1.19    0.00    1.59
 2001 225   128   125   59.0    0.0   59.0   0.00   2.82   62.9   28.2   30.8    2.8   2.82   1.19    0.00    1.59
 2001 226   129   126   59.0    0.0   59.0   0.00   2.86   62.9   27.8   31.1    2.9   2.86   1.20    0.00    1.59
 2001 227   130   127   59.0    0.0   59.0   0.00   2.89   62.9   27.4   31.5    2.9   2.89   1.20    0.00    1.59
 2001 228   131   128   59.0    0.0   59.0   0.00   2.93   62.9   27.0   31.9    2.9   2.93   1.21    0.00    1.59
 2001 229   132   129   59.0    0.0   59.0   0.00   2.97   62.9   26.6   32.4    3.0   2.97   1.22    0.00    1.59
 2001 230   133   130   59.0    0.0   59.0   0.00   3.01   62.9   26.1   32.8    3.0   3.01   1.22    0.00    1.59
 2001 231   134   131   59.0    0.0   59.0   0.00   3.05   62.9   25.7   33.3    3.1   3.05   1.23    0.00    1.59
 2001 232   135   132   59.0    0.0   59.0   0.00   3.09   62.9   25.2   33.8    3.1   3.09   1.23    0.00    1.59
 2001 233   136   133   59.0    0.0   59.0   0.00   3.14   62.9   24.6   34.3    3.1   3.14   1.24    0.00    1.59
 2001 234   137   134   59.0    0.0   59.0   0.00   3.19   62.9   24.1   34.8    3.2   3.19   1.25    0.00    1.59
 2001 235   138   135   59.0    0.0   59.0   0.00   3.24   62.9   23.6   35.4    3.2   3.24   1.25    0.00    1.59
 2001 236   139   136   59.0    0.3   58.7   1.70   3.25   62.9   23.6   35.1    3.2   3.25   1.26    0.00    1.59
 2001 237   140   137   59.0    0.4   58.5   1.70   3.25   62.9   23.7   34.9    3.3   3.25   1.26    0.00    1.59
 2001 238   141   138   59.0    0.7   58.3   1.70   3.26   62.9   23.7   34.5    3.3   3.26   1.27    0.00    1.59
 2001 239   142   139   59.0    0.9   58.1   1.70   3.27   62.9   23.8   34.3    3.3   3.27   1.28    0.00    1.59
 2001 240   143   140   59.0    1.0   58.0   1.70   3.27   62.9   23.8   34.2    3.3   3.27   1.28    0.00    1.59
 2001 241   144   141   59.0    1.1   57.8   1.70   3.28   62.9   23.8   34.0    3.3   3.28   1.29    0.00    1.59
 2001 242   145   142   59.0    1.4   57.5   1.70   3.29   62.9   23.9   33.6    3.3   3.29   1.30    0.00    1.59
 2001 243   146   143   59.0    1.7   57.2   1.70   3.30   62.9   24.0   33.2    3.3   3.30   1.30    0.00    1.59
 2001 244   147   144   59.0    2.0   57.0   1.70   3.32   62.9   24.1   32.9    3.3   3.32   1.31    0.00    1.59
 2001 245   148   145   59.0    2.1   56.8   1.70   3.32   62.9   24.2   32.7    3.3   3.32   1.32    0.00    1.59
 2001 246   149   146   59.0    2.2   56.7   1.70   3.32   62.9   24.2   32.6    3.3   3.32   1.32    0.00    1.59
 2001 247   150   147   59.0    2.4   56.6   1.70   3.32   62.9   24.1   32.4    3.3   3.32   1.33    0.00    1.59
 2001 248   151   148   59.0    2.5   56.4   1.70   3.31   62.9   24.1   32.3    3.3   3.31   1.34    0.00    1.59
 2001 249   152   149   59.0    2.7   56.3   1.70   3.31   62.9   24.1   32.2    3.3   3.31   1.34    0.00    1.59
 2001 250   153   150   59.0    2.9   56.1   1.70   3.32   62.9   24.1   32.0    3.3   3.32   1.35    0.00    1.59
 2001 251   154   151   59.0    3.0   55.9   1.70   3.31   62.9   24.1   31.9    3.3   3.31   1.36    0.00    1.59
 2001 252   155   152   59.0    3.1   55.9   1.70   3.30   62.9   24.0   31.9    3.3   3.30   1.36    0.00    1.59
 2001 253   156   153   59.0    3.1   55.9   1.70   3.30   62.9   24.0   31.9    3.3   3.30   1.37    0.00    1.59
 2001 254   157   154   59.0    3.1   55.9   1.70   3.30   62.9   24.0   31.9    3.3   3.30   1.38    0.00    1.59
 2001 255   158   155   59.0    3.1   55.8   1.70   3.29   62.9   24.0   31.9    3.3   3.29   1.38    0.00    1.59
 2001 256   159   156   59.0    3.1   55.8   1.70   3.29   62.9   23.9   31.9    3.3   3.29   1.39    0.00    1.59
 2001 257   160   157   59.0    3.2   55.7   1.70   3.28   62.9   23.9   31.9    3.3   3.28   1.40    0.00    1.59
 2001 258   161   158   59.0    3.2   55.7   1.70   3.28   62.9   23.9   31.9    3.3   3.28   1.40    0.00    1.59
 2001 259   162   159   59.0    3.2   55.7   1.70   3.28   62.9   23.9   31.9    3.3   3.28   1.41    0.00    1.59
 2001 260   163   160   59.0    3.2   55.7   1.70   3.28   62.9   23.9   31.9    3.3   3.28   1.41    0.00    1.59
 2001 261   164   161   59.0    3.4   55.6   1.70   3.28   62.9   23.8   31.8    3.3   3.28   1.42    0.00    1.59
 2001 262   165   162   59.0    3.6   55.4   1.70   3.28   62.9   23.8   31.5    3.3   3.28   1.43    0.00    1.59
 2001 263   166   163   59.0    3.8   55.1   1.70   3.28   62.9   23.9   31.2    3.3   3.28   1.43    0.00    1.59
 2001 264   167   164   59.0    4.1   54.9   1.70   3.29   62.9   23.9   31.0    3.3   3.29   1.44    0.00    1.59
 2001 265   168   165   59.0    4.4   54.5   1.70   3.30   62.9   24.0   30.5    3.3   3.30   1.45    0.00    1.59
 2001 266   169   166   59.0    4.5   54.5   1.70   3.31   62.9   24.1   30.4    3.3   3.31   1.46    0.00    1.59
 2001 267   170   167   59.0    4.5   54.5   1.70   3.31   62.9   24.1   30.4    3.3   3.31   1.46    0.00    1.59
 2001 268   171   168   59.0    4.5   54.5   1.70   3.31   62.9   24.1   30.4    3.3   3.31   1.47    0.00    1.59
 2001 269   172   169   59.0    4.5   54.5   1.70   3.31   62.9   24.1   30.4    3.3   3.31   1.48    0.00    1.59
 2001 270   173   170   59.0    4.5   54.4   1.70   3.31   62.9   24.0   30.4    3.3   3.31   1.49    0.00    1.59
 2001 271   174   171   59.0    4.5   54.4   1.70   3.31   62.9   24.0   30.4    3.3   3.31   1.49    0.00    1.59
 2001 272   175   172   59.0    4.5   54.4   1.70   3.30   62.9   24.0   30.4    3.3   3.30   1.50    0.00    1.59
 2001 273   176   173   59.0    4.5   54.4   1.70   3.30   62.9   24.0   30.4    3.3   3.30   1.51    0.00    1.59
 2001 274   177   174   59.0    4.6   54.4   1.70   3.30   62.9   24.0   30.4    3.3   3.30   1.52    0.00    1.59
 2001 275   178   175   59.0    4.6   54.4   1.70   3.30   62.9   24.0   30.4    3.3   3.30   1.52    0.00    1.59
 2001 276   179   176   59.0    4.6   54.4   1.70   3.30   62.9   24.0   30.3    3.3   3.30   1.53    0.00    1.59
 2001 277   180   177   59.0    4.6   54.3   1.70   3.30   62.9   24.0   30.3    3.3   3.30   1.54    0.00    1.59
 2001 278   181   178   59.0    4.6   54.3   1.70   3.30   62.9   24.0   30.3    3.3   3.30   1.55    0.00    1.59
 2001 279   182   179   59.0    4.7   54.3   1.70   3.30   62.9   24.0   30.3    3.3   3.30   1.55    0.00    1.59
 2001 280   183   180   59.0    4.7   54.3   1.70   3.30   62.9   24.0   30.3    3.3   3.30   1.56    0.00    1.59
 2001 281   184   181   59.0    4.7   54.3   1.70   3.30   62.9   24.0   30.3    3.3   3.30   1.57    0.00    1.59
 2001 282   185   182   59.0    4.7   54.3   1.70   3.29   62.9   24.0   30.3    3.3   3.29   1.58    0.00    1.59
 2001 283   186   183   59.0    4.7   54.2   1.70   3.29   62.9   24.0   30.3    3.3   3.29   1.59    0.00    1.59
 2001 284   187   184   59.0    4.8   54.2   1.70   3.29   62.9   23.9   30.3    3.3   3.29   1.59    0.00    1.59
 2001 285   188   185   59.0    4.8   54.2   1.70   3.29   62.9   23.9   30.2    3.3   3.29   1.60    0.00    1.59
 2001 286   189   186   59.0    4.8   54.1   1.70   3.29   62.9   23.9   30.2    3.3   3.29   1.61    0.00    1.59
 2001 287   190   187   59.0    4.8   54.1   1.70   3.29   62.9   23.9   30.2    3.3   3.29   1.62    0.00    1.59
 2001 288   191   188   59.0    4.8   54.1   1.70   3.29   62.9   23.9   30.2    3.3   3.29   1.63    0.00    1.59
 2001 289   192   189   59.0    4.9   54.1   1.70   3.28   62.9   23.9   30.2    3.3   3.28   1.63    0.00    1.59
 2001 290   193   190   59.0    4.9   54.1   1.70   3.28   62.9   23.9   30.2    3.3   3.28   1.64    0.00    1.59
 2001 291   194   191   59.0    4.9   54.1   1.70   3.28   62.9   23.9   30.2    3.3   3.28   1.65    0.00    1.59
 2001 292   195   192   59.0    4.9   54.0   1.70   3.28   62.9   23.9   30.2    3.3   3.28   1.66    0.00    1.59
 2001 293   196   193   59.0    4.9   54.0   1.70   3.28   62.9   23.9   30.2    3.3   3.28   1.67    0.00    1.59
 2001 294   197   194   59.0    5.0   54.0   1.70   3.28   62.9   23.8   30.1    3.3   3.28   1.68    0.00    1.59
 2001 295   198   195   59.0    5.0   54.0   1.70   3.28   62.9   23.8   30.1    3.3   3.28   1.68    0.00    1.59
 2001 296   199   196   59.0    5.0   53.9   1.70   3.27   62.9   23.8   30.1    3.3   3.27   1.69    0.00    1.59
 2001 297   200   197   59.0    5.1   53.9   1.70   3.27   62.9   23.8   30.1    3.3   3.27   1.70    0.00    1.59
 2001 298   201   198   59.0    5.1   53.9   1.70   3.27   62.9   23.8   30.1    3.3   3.27   1.71    0.00    1.59
 2001 299   202   199   59.0    5.1   53.8   1.70   3.27   62.9   23.8   30.1    3.3   3.27   1.72    0.00    1.59
 2001 300   203   200   59.0    5.1   53.8   1.70   3.27   62.9   23.8   30.1    3.3   3.27   1.73    0.00    1.59
 2001 301   204   201   59.0    5.1   53.8   1.70   3.27   62.9   23.8   30.1    3.3   3.27   1.73    0.00    1.59
 2001 302   205   202   59.0    5.1   53.8   1.70   3.27   62.9   23.8   30.1    3.3   3.27   1.73    0.00    1.59
 2001 303   206   203   59.0    5.1   53.8   1.70   3.27   62.9   23.8   30.1    3.3   3.27   1.73    0.00    1.59
 2001 304   207   204   59.0    5.1   53.8   1.70   3.27   62.9   23.8   30.1    3.3   3.27   1.73    0.00    1.59
 2001 305   208   205   59.0    5.1   53.8   1.70   3.27   62.9   23.8   30.1    3.3   3.27   1.73    0.00    1.59

*DSSAT Cropping System Model Ver. 4.0.2.000               Aug 12, 2016; 12:47:50

*RUN   3        : UYMZ                    
 MODEL          : MZCER040 - Maize           
 EXPERIMENT     : UYMZ0195 MZ    late to create DSS                             
 TREATMENT  1   : UYMZ                    

@YEAR DOY   DAS   DAP   CNAD   GNAD   VNAD   GN%D   VN%D   NUPC   LNAD   SNAD   LN%D   SN%D   RN%D   SNN0C   SNN1C
 2002 100     3     0    0.0    0.0    0.0   0.00   0.00    0.0    0.0    0.0    0.0   0.00   0.00    0.00    0.00
 2002 101     4     1    0.0    0.0    0.0   0.00   0.00    0.0    0.0    0.0    0.0   0.00   0.00    0.00    0.00
 2002 102     5     2    0.0    0.0    0.0   0.00   0.00    0.0    0.0    0.0    0.0   0.00   0.00    0.00    0.00
 2002 103     6     3    0.0    0.0    0.0   0.00   0.00    0.0    0.0    0.0    0.0   0.00   0.00    0.00    0.00
 2002 104     7     4    0.0    0.0    0.0   0.00   0.00    0.0    0.0    0.0    0.0   0.00   0.00    0.00    0.00
 2002 105     8     5    0.0    0.0    0.0   0.00   0.00    0.0    0.0    0.0    0.0   0.00   0.00    0.00    0.00
 2002 106     9     6    0.0    0.0    0.0   0.00   0.00    0.0    0.0    0.0    0.0   0.00   0.00    0.00    0.00
 2002 107    10     7    1.2    0.0    1.2   0.00   4.40    0.0    0.6    0.6    4.4   4.40   0.00    0.00    0.00
 2002 108    11     8    1.3    0.0    1.3   0.00   4.53    0.2    0.6    0.6    4.5   4.53   1.10    0.00    0.00
 2002 109    12     9    1.3    0.0    1.3   0.00   4.50    0.2    0.6    0.6    4.5   4.50   1.12    0.00    0.00
 2002 110    13    10    1.3    0.0    1.3   0.00   4.47    0.2    0.6    0.6    4.5   4.47   1.13    0.00    0.00
 2002 111    14    11    1.2    0.0    1.2   0.00   4.45    0.2    0.6    0.6    4.5   4.45   1.16    0.00    0.00
 2002 112    15    12    1.2    0.0    1.2   0.00   4.45    0.2    0.6    0.6    4.5   4.45   1.14    0.00    0.00
 2002 113    16    13    1.2    0.0    1.2   0.00   4.45    0.2    0.6    0.6    4.5   4.45   1.11    0.00    0.00
 2002 114    17    14    1.2    0.0    1.2   0.00   4.45    0.2    0.6    0.6    4.5   4.45   1.08    0.00    0.00
 2002 115    18    15    1.2    0.0    1.2   0.00   4.44    0.2    0.6    0.6    4.4   4.44   0.99    0.00    0.00
 2002 116    19    16    1.2    0.0    1.2   0.00   4.30    0.2    0.6    0.6    4.3   4.30   1.14    0.00    0.00
 2002 117    20    17    1.2    0.0    1.2   0.00   4.28    0.3    0.6    0.6    4.3   4.28   1.24    0.00    0.01
 2002 118    21    18    1.2    0.0    1.2   0.00   4.26    0.3    0.6    0.6    4.3   4.26   1.23    0.00    0.01
 2002 119    22    19    1.2    0.0    1.2   0.00   4.26    0.3    0.6    0.6    4.3   4.26   1.19    0.00    0.01
 2002 120    23    20    1.2    0.0    1.2   0.00   3.76    0.3    0.7    0.5    3.8   3.76   1.12    0.00    0.01
 2002 121    24    21    1.3    0.0    1.3   0.00   3.68    0.6    0.8    0.5    3.7   3.68   1.20    0.00    0.01
 2002 122    25    22    1.5    0.0    1.5   0.00   3.67    0.8    1.0    0.5    3.7   3.67   1.22    0.00    0.01
 2002 123    26    23    1.7    0.0    1.7   0.00   3.62    1.1    1.2    0.5    3.6   3.62   1.22    0.00    0.01
 2002 124    27    24    1.9    0.0    1.9   0.00   3.52    1.4    1.4    0.5    3.5   3.52   1.21    0.00    0.02
 2002 125    28    25    2.2    0.0    2.2   0.00   3.65    1.8    1.7    0.5    3.6   3.65   1.21    0.00    0.02
 2002 126    29    26    2.5    0.0    2.5   0.00   3.70    2.3    1.9    0.5    3.7   3.70   1.23    0.00    0.03
 2002 127    30    27    2.7    0.0    2.7   0.00   3.69    2.5    2.2    0.5    3.7   3.69   1.15    0.00    0.03
 2002 128    31    28    2.9    0.0    2.9   0.00   3.55    2.9    2.4    0.5    3.6   3.55   1.17    0.00    0.04
 2002 129    32    29    3.3    0.0    3.3   0.00   3.74    3.5    2.8    0.5    3.7   3.74   1.24    0.00    0.04
 2002 130    33    30    3.5    0.0    3.5   0.00   3.62    3.7    3.0    0.5    3.6   3.62   1.15    0.00    0.05
 2002 131    34    31    3.8    0.0    3.8   0.00   3.42    4.2    3.3    0.5    3.4   3.42   1.17    0.00    0.06
 2002 132    35    32    4.3    0.0    4.3   0.00   3.53    4.6    3.8    0.5    3.5   3.53   1.08    0.00    0.06
 2002 133    36    33    4.7    0.0    4.7   0.00   3.54    5.0    4.2    0.5    3.5   3.54   1.08    0.00    0.07
 2002 134    37    34    5.1    0.0    5.1   0.00   3.01    5.6    4.7    0.4    3.0   3.01   1.15    0.00    0.08
 2002 135    38    35    7.0    0.0    7.0   0.00   3.76    7.4    6.5    0.5    3.8   3.76   1.09    0.00    0.09
 2002 136    39    36    7.6    0.0    7.6   0.00   3.67    8.0    7.1    0.5    3.7   3.67   1.07    0.00    0.10
 2002 137    40    37    8.2    0.0    8.2   0.00   3.56    8.6    7.7    0.5    3.6   3.56   1.07    0.00    0.10
 2002 138    41    38    9.2    0.0    9.2   0.00   3.52    9.7    8.7    0.5    3.5   3.52   1.09    0.00    0.11
 2002 139    42    39    9.9    0.0    9.9   0.00   3.47   10.8    9.3    0.5    3.5   3.47   1.19    0.00    0.12
 2002 140    43    40   10.6    0.0   10.6   0.00   3.49   11.5   10.0    0.5    3.5   3.49   1.14    0.00    0.13
 2002 141    44    41   11.1    0.0   11.1   0.00   3.49   12.8   10.5    0.5    3.5   3.49   1.29    0.00    0.14
 2002 142    45    42   11.4    0.0   11.4   0.00   3.47   13.4   10.9    0.6    3.5   3.47   1.26    0.00    0.16
 2002 143    46    43   12.2    0.0   12.2   0.00   3.40   14.4   11.6    0.6    3.4   3.40   1.19    0.00    0.17
 2002 144    47    44   13.1    0.0   13.1   0.00   3.35   15.7   12.5    0.6    3.3   3.35   1.16    0.00    0.19
 2002 145    48    45   14.1    0.0   14.1   0.00   3.30   16.9   13.4    0.7    3.3   3.30   1.14    0.00    0.21
 2002 146    49    46   15.2    0.0   15.2   0.00   3.24   17.9   14.4    0.8    3.2   3.24   1.09    0.00    0.23
 2002 147    50    47   16.1    0.0   16.1   0.00   3.20   18.7   15.2    0.9    3.2   3.20   1.08    0.00    0.25
 2002 148    51    48   16.8    0.0   16.8   0.00   3.12   19.4   15.8    1.0    3.1   3.12   1.08    0.00    0.27
 2002 149    52    49   17.0    0.0   17.0   0.00   2.96   19.6   15.9    1.0    3.0   2.96   1.07    0.00    0.29
 2002 150    53    50   17.4    0.0   17.4   0.00   2.91   20.1   16.2    1.1    2.9   2.91   1.03    0.00    0.31
 2002 151    54    51   18.5    0.0   18.5   0.00   2.96   21.6   17.2    1.3    3.0   2.96   1.05    0.00    0.33
 2002 152    55    52   19.7    0.0   19.7   0.00   2.95   23.1   18.2    1.5    2.9   2.95   1.05    0.00    0.35
 2002 153    56    53   20.8    0.0   20.8   0.00   2.91   24.3   19.1    1.7    2.9   2.91   1.06    0.00    0.37
 2002 154    57    54   21.6    0.0   21.6   0.00   2.73   25.1   19.6    2.0    2.7   2.73   1.06    0.00    0.39
 2002 155    58    55   22.2    0.0   22.2   0.00   2.65   25.7   20.0    2.3    2.6   2.65   1.06    0.00    0.42
 2002 156    59    56   22.6    0.0   22.6   0.00   2.59   26.1   20.2    2.4    2.6   2.59   1.05    0.00    0.44
 2002 157    60    57   22.9    0.0   22.9   0.00   2.55   26.5   20.3    2.6    2.5   2.55   0.95    0.00    0.46
 2002 158    61    58   23.3    0.0   23.3   0.00   2.50   27.0   20.6    2.8    2.5   2.50   0.93    0.00    0.49
 2002 159    62    59   23.7    0.0   23.7   0.00   2.44   27.6   20.7    3.0    2.4   2.44   0.88    0.00    0.51
 2002 160    63    60   24.1    0.0   24.1   0.00   2.34   28.0   20.8    3.3    2.3   2.34   0.86    0.00    0.54
 2002 161    64    61   24.4    0.0   24.4   0.00   2.35   28.4   21.1    3.3    2.4   2.35   0.86    0.00    0.56
 2002 162    65    62   24.7    0.0   24.7   0.00   2.36   28.8   21.3    3.4    2.4   2.36   0.87    0.00    0.59
 2002 163    66    63   25.0    0.0   25.0   0.00   2.37   29.1   21.5    3.5    2.4   2.37   0.87    0.00    0.62
 2002 164    67    64   25.2    0.0   25.2   0.00   2.37   29.5   21.7    3.6    2.4   2.37   0.88    0.00    0.64
 2002 165    68    65   25.5    0.0   25.5   0.00   2.38   29.7   21.8    3.6    2.4   2.38   0.89    0.00    0.67
 2002 166    69    66   25.7    0.0   25.7   0.00   2.38   30.0   22.0    3.7    2.4   2.38   0.90    0.00    0.70
 2002 167    70    67   25.9    0.0   25.9   0.00   2.40   30.2   22.1    3.7    2.4   2.40   0.91    0.00    0.72
 2002 168    71    68   26.0    0.0   26.0   0.00   2.41   30.4   22.3    3.8    2.4   2.41   0.92    0.00    0.75
 2002 169    72    69   26.3    0.0   26.3   0.00   2.42   30.7   22.4    3.8    2.4   2.42   0.93    0.00    0.78
 2002 170    73    70   26.4    0.0   26.4   0.00   2.42   30.8   22.5    3.9    2.4   2.42   0.94    0.00    0.81
 2002 171    74    71   26.5    0.0   26.5   0.00   2.42   31.0   22.6    3.9    2.4   2.42   0.94    0.00    0.83
 2002 172    75    72   26.7    0.0   26.7   0.00   2.43   31.2   22.7    4.0    2.4   2.43   0.95    0.00    0.86
 2002 173    76    73   26.9    0.0   26.9   0.00   2.45   31.4   22.9    4.0    2.4   2.45   0.96    0.00    0.89
 2002 174    77    74   27.2    0.0   27.2   0.00   2.47   31.7   23.1    4.0    2.5   2.47   0.97    0.00    0.92
 2002 175    78    75   27.4    0.0   27.4   0.00   2.49   31.9   23.3    4.1    2.5   2.49   0.98    0.00    0.95
 2002 176    79    76   27.6    0.0   27.6   0.00   2.51   32.1   23.4    4.1    2.5   2.51   0.99    0.00    0.98
 2002 177    80    77   27.7    0.0   27.7   0.00   2.52   32.3   23.6    4.1    2.5   2.52   1.00    0.00    1.00
 2002 178    81    78   27.9    0.0   27.9   0.00   2.54   32.5   23.7    4.2    2.5   2.54   1.00    0.00    1.03
 2002 179    82    79   28.1    0.0   28.1   0.00   2.55   32.7   23.9    4.2    2.6   2.55   1.01    0.00    1.06
 2002 180    83    80   28.3    0.0   28.3   0.00   2.57   32.9   24.0    4.2    2.6   2.57   1.02    0.00    1.09
 2002 181    84    81   28.5    0.0   28.5   0.00   2.59   33.1   24.2    4.2    2.6   2.59   1.03    0.00    1.12
 2002 182    85    82   28.7    0.0   28.7   0.00   2.61   33.4   24.4    4.3    2.6   2.61   1.03    0.00    1.15
 2002 183    86    83   28.9    0.0   28.9   0.00   2.63   33.6   24.6    4.3    2.6   2.63   1.04    0.00    1.18
 2002 184    87    84   29.1    0.0   29.1   0.00   2.65   33.8   24.8    4.4    2.7   2.65   1.05    0.00    1.21
 2002 185    88    85   29.4    0.0   29.4   0.00   2.68   34.1   25.0    4.4    2.7   2.68   1.05    0.00    1.23
 2002 186    89    86   29.6    0.0   29.6   0.00   2.70   34.3   25.2    4.4    2.7   2.70   1.06    0.00    1.26
 2002 187    90    87   29.8    0.0   29.8   0.00   2.72   34.5   25.4    4.5    2.7   2.72   1.06    0.00    1.29
 2002 188    91    88   29.9    0.0   29.9   0.00   2.73   34.6   25.4    4.5    2.7   2.73   1.07    0.00    1.32
 2002 189    92    89   30.1    0.0   30.1   0.00   2.74   34.8   25.6    4.5    2.7   2.74   1.07    0.00    1.35
 2002 190    93    90   30.3    0.0   30.3   0.00   2.76   35.0   25.7    4.5    2.8   2.76   1.08    0.00    1.38
 2002 191    94    91   30.5    0.0   30.5   0.00   2.78   35.2   25.9    4.6    2.8   2.78   1.08    0.00    1.41
 2002 192    95    92   30.7    0.0   30.7   0.00   2.80   35.4   26.1    4.6    2.8   2.80   1.08    0.00    1.44
 2002 193    96    93   30.9    0.0   30.9   0.00   2.82   35.5   26.3    4.6    2.8   2.82   1.08    0.00    1.47
 2002 194    97    94   31.1    0.0   31.1   0.00   2.84   35.7   26.4    4.7    2.8   2.84   1.07    0.00    1.50

*DSSAT Cropping System Model Ver. 4.0.2.000               Aug 12, 2016; 12:47:50

*RUN   4        : UYMZ                    
 MODEL          : MZCER040 - Maize           
 EXPERIMENT     : UYMZ0195 MZ    late to create DSS                             
 TREATMENT  1   : UYMZ                    

@YEAR DOY   DAS   DAP   CNAD   GNAD   VNAD   GN%D   VN%D   NUPC   LNAD   SNAD   LN%D   SN%D   RN%D   SNN0C   SNN1C
 2003 100     3     0    0.0    0.0    0.0   0.00   0.00    0.0    0.0    0.0    0.0   0.00   0.00    0.00    0.00
 2003 101     4     1    0.0    0.0    0.0   0.00   0.00    0.0    0.0    0.0    0.0   0.00   0.00    0.00    0.00
 2003 102     5     2    0.0    0.0    0.0   0.00   0.00    0.0    0.0    0.0    0.0   0.00   0.00    0.00    0.00
 2003 103     6     3    0.0    0.0    0.0   0.00   0.00    0.0    0.0    0.0    0.0   0.00   0.00    0.00    0.00
 2003 104     7     4    0.0    0.0    0.0   0.00   0.00    0.0    0.0    0.0    0.0   0.00   0.00    0.00    0.00
 2003 105     8     5    0.0    0.0    0.0   0.00   0.00    0.0    0.0    0.0    0.0   0.00   0.00    0.00    0.00
 2003 106     9     6    0.0    0.0    0.0   0.00   0.00    0.0    0.0    0.0    0.0   0.00   0.00    0.00    0.00
 2003 107    10     7    0.0    0.0    0.0   0.00   0.00    0.0    0.0    0.0    0.0   0.00   0.00    0.00    0.00
 2003 108    11     8    0.0    0.0    0.0   0.00   0.00    0.0    0.0    0.0    0.0   0.00   0.00    0.00    0.00
 2003 109    12     9    0.0    0.0    0.0   0.00   0.00    0.0    0.0    0.0    0.0   0.00   0.00    0.00    0.00
 2003 110    13    10    0.0    0.0    0.0   0.00   0.00    0.0    0.0    0.0    0.0   0.00   0.00    0.00    0.00
 2003 111    14    11    0.0    0.0    0.0   0.00   0.00    0.0    0.0    0.0    0.0   0.00   0.00    0.00    0.00
 2003 112    15    12    0.0    0.0    0.0   0.00   0.00    0.0    0.0    0.0    0.0   0.00   0.00    0.00    0.00
 2003 113    16    13    0.0    0.0    0.0   0.00   0.00    0.0    0.0    0.0    0.0   0.00   0.00    0.00    0.00
 2003 114    17    14    0.0    0.0    0.0   0.00   0.00    0.0    0.0    0.0    0.0   0.00   0.00    0.00    0.00
 2003 115    18    15    0.0    0.0    0.0   0.00   0.00    0.0    0.0    0.0    0.0   0.00   0.00    0.00    0.00
 2003 116    19    16    1.2    0.0    1.2   0.00   4.40    0.0    0.6    0.6    4.4   4.40   0.00    0.00    0.00
 2003 117    20    17    1.3    0.0    1.3   0.00   4.53    0.2    0.6    0.6    4.5   4.53   1.07    0.00    0.00
 2003 118    21    18    1.3    0.0    1.3   0.00   4.53    0.2    0.6    0.6    4.5   4.53   1.06    0.00    0.00
 2003 119    22    19    1.3    0.0    1.3   0.00   4.53    0.2    0.6    0.6    4.5   4.53   1.05    0.00    0.00
 2003 120    23    20    1.3    0.0    1.3   0.00   4.53    0.2    0.6    0.6    4.5   4.53   1.03    0.00    0.00
 2003 121    24    21    1.2    0.0    1.2   0.00   4.42    0.2    0.6    0.6    4.4   4.42   1.15    0.00    0.00
 2003 122    25    22    1.2    0.0    1.2   0.00   4.40    0.2    0.6    0.6    4.4   4.40   1.17    0.00    0.00
 2003 123    26    23    1.2    0.0    1.2   0.00   4.38    0.2    0.6    0.6    4.4   4.38   1.16    0.00    0.00
 2003 124    27    24    1.2    0.0    1.2   0.00   4.38    0.2    0.6    0.6    4.4   4.38   1.11    0.00    0.00
 2003 125    28    25    1.2    0.0    1.2   0.00   4.35    0.2    0.6    0.6    4.3   4.35   1.15    0.00    0.00
 2003 126    29    26    1.2    0.0    1.2   0.00   4.33    0.2    0.6    0.6    4.3   4.33   1.15    0.00    0.00
 2003 127    30    27    1.2    0.0    1.2   0.00   4.31    0.3    0.6    0.6    4.3   4.31   1.16    0.00    0.01
 2003 128    31    28    1.2    0.0    1.2   0.00   4.29    0.3    0.6    0.6    4.3   4.29   1.18    0.00    0.01
 2003 129    32    29    1.2    0.0    1.2   0.00   4.27    0.3    0.6    0.6    4.3   4.27   1.19    0.00    0.01
 2003 130    33    30    1.2    0.0    1.2   0.00   4.27    0.3    0.6    0.6    4.3   4.27   1.13    0.00    0.01
 2003 131    34    31    1.2    0.0    1.2   0.00   3.88    0.4    0.6    0.5    3.9   3.88   1.15    0.00    0.01
 2003 132    35    32    1.3    0.0    1.3   0.00   4.02    0.5    0.7    0.6    4.0   4.02   1.14    0.00    0.01
 2003 133    36    33    1.3    0.0    1.3   0.00   3.67    0.5    0.8    0.5    3.7   3.67   1.09    0.00    0.02
 2003 134    37    34    1.5    0.0    1.5   0.00   3.36    0.7    1.0    0.5    3.4   3.36   1.10    0.00    0.02
 2003 135    38    35    1.8    0.0    1.8   0.00   3.43    1.0    1.4    0.5    3.4   3.43   1.09    0.00    0.02
 2003 136    39    36    2.2    0.0    2.2   0.00   3.53    1.4    1.7    0.5    3.5   3.53   1.09    0.00    0.02
 2003 137    40    37    2.5    0.0    2.5   0.00   3.51    1.7    2.0    0.5    3.5   3.51   1.09    0.00    0.02
 2003 138    41    38    2.6    0.0    2.6   0.00   3.34    1.9    2.2    0.5    3.3   3.34   1.07    0.00    0.03
 2003 139    42    39    3.1    0.0    3.1   0.00   3.61    2.4    2.6    0.5    3.6   3.61   1.10    0.00    0.03
 2003 140    43    40    3.2    0.0    3.2   0.00   3.53    2.4    2.7    0.5    3.5   3.53   0.97    0.00    0.03
 2003 141    44    41    3.5    0.0    3.5   0.00   3.55    2.8    3.0    0.5    3.6   3.55   1.09    0.00    0.03
 2003 142    45    42    3.5    0.0    3.5   0.00   3.73    2.9    3.0    0.5    3.7   3.73   0.97    0.00    0.04
 2003 143    46    43    3.5    0.0    3.5   0.00   3.67    2.9    3.0    0.5    3.7   3.67   0.80    0.00    0.04
 2003 144    47    44    3.7    0.0    3.7   0.00   3.61    3.4    3.2    0.5    3.6   3.61   1.21    0.00    0.04
 2003 145    48    45    4.2    0.0    4.2   0.00   3.86    4.0    3.6    0.5    3.9   3.86   1.24    0.00    0.05
 2003 146    49    46    4.2    0.0    4.2   0.00   3.71    4.3    3.7    0.5    3.7   3.71   1.28    0.00    0.05
 2003 147    50    47    4.3    0.0    4.3   0.00   3.64    4.6    3.8    0.5    3.6   3.64   1.29    0.00    0.06
 2003 148    51    48    4.6    0.0    4.6   0.00   3.64    4.9    4.1    0.5    3.6   3.64   1.25    0.00    0.07
 2003 149    52    49    4.9    0.0    4.9   0.00   3.55    5.2    4.4    0.5    3.6   3.55   1.15    0.00    0.07
 2003 150    53    50    5.5    0.0    5.5   0.00   3.52    5.8    5.0    0.5    3.5   3.52   1.10    0.00    0.08
 2003 151    54    51    6.0    0.0    6.0   0.00   3.49    6.4    5.5    0.5    3.5   3.49   1.11    0.00    0.09
 2003 152    55    52    6.4    0.0    6.4   0.00   3.47    6.8    5.9    0.5    3.5   3.47   1.11    0.00    0.10
 2003 153    56    53    6.8    0.0    6.8   0.00   3.48    7.3    6.3    0.5    3.5   3.48   1.08    0.00    0.11
 2003 154    57    54    7.1    0.0    7.1   0.00   3.51    7.9    6.5    0.5    3.5   3.51   1.28    0.00    0.11
 2003 155    58    55    7.2    0.0    7.2   0.00   3.48    8.3    6.7    0.5    3.5   3.48   1.28    0.00    0.12
 2003 156    59    56    7.2    0.0    7.2   0.00   3.37    8.3    6.7    0.5    3.4   3.37   1.28    0.00    0.12
 2003 157    60    57    7.7    0.0    7.7   0.00   3.43    8.8    7.2    0.5    3.4   3.43   1.18    0.00    0.14
 2003 158    61    58    7.8    0.0    7.8   0.00   3.44    9.0    7.2    0.5    3.4   3.44   1.22    0.00    0.15
 2003 159    62    59    7.9    0.0    7.9   0.00   3.46    9.2    7.4    0.5    3.5   3.46   1.21    0.00    0.16
 2003 160    63    60    7.9    0.0    7.9   0.00   3.43    9.2    7.4    0.5    3.4   3.43   1.21    0.00    0.16
 2003 161    64    61    7.9    0.0    7.9   0.00   3.40    9.2    7.4    0.5    3.4   3.40   1.22    0.00    0.16
 2003 162    65    62    8.2    0.0    8.2   0.00   3.41    9.2    7.7    0.6    3.4   3.41   1.07    0.00    0.17
 2003 163    66    63    8.3    0.0    8.3   0.00   3.40    9.3    7.8    0.6    3.4   3.40   1.07    0.00    0.18
 2003 164    67    64    8.5    0.0    8.5   0.00   3.37    9.5    8.0    0.6    3.4   3.37   1.07    0.00    0.19
 2003 165    68    65    8.8    0.0    8.8   0.00   3.39    9.7    8.2    0.6    3.4   3.39   1.07    0.00    0.21
 2003 166    69    66    8.9    0.0    8.9   0.00   3.32    9.9    8.3    0.6    3.3   3.32   1.07    0.00    0.22
 2003 167    70    67    9.2    0.0    9.2   0.00   3.37   10.2    8.6    0.6    3.4   3.37   1.09    0.00    0.23
 2003 168    71    68    9.2    0.0    9.2   0.00   3.36   10.3    8.6    0.6    3.4   3.36   1.09    0.00    0.24
 2003 169    72    69    9.2    0.0    9.2   0.00   3.33   10.3    8.6    0.6    3.3   3.33   1.09    0.00    0.24
 2003 170    73    70    9.4    0.0    9.4   0.00   3.30   10.3    8.7    0.6    3.3   3.30   1.07    0.00    0.25
 2003 171    74    71    9.5    0.0    9.5   0.00   3.27   10.5    8.9    0.6    3.3   3.27   1.07    0.00    0.26
 2003 172    75    72    9.8    0.0    9.8   0.00   3.25   10.7    9.1    0.7    3.3   3.25   1.07    0.00    0.27
 2003 173    76    73   10.2    0.0   10.2   0.00   3.27   11.2    9.5    0.7    3.3   3.27   1.09    0.00    0.28
 2003 174    77    74   10.3    0.0   10.3   0.00   3.23   11.2    9.5    0.7    3.2   3.23   1.07    0.00    0.29
 2003 175    78    75   10.7    0.0   10.7   0.00   3.23   11.7   10.0    0.8    3.2   3.23   1.07    0.00    0.30
 2003 176    79    76   10.8    0.0   10.8   0.00   3.22   11.8   10.0    0.8    3.2   3.22   1.07    0.00    0.32
 2003 177    80    77   10.9    0.0   10.9   0.00   3.20   11.9   10.1    0.8    3.2   3.20   1.07    0.00    0.33
 2003 178    81    78   10.9    0.0   10.9   0.00   3.16   11.9   10.1    0.8    3.2   3.16   1.07    0.00    0.34
 2003 179    82    79   11.1    0.0   11.1   0.00   3.14   12.0   10.2    0.8    3.1   3.14   1.07    0.00    0.35
 2003 180    83    80   11.5    0.0   11.5   0.00   3.15   12.5   10.6    0.9    3.2   3.15   1.07    0.00    0.36
 2003 181    84    81   12.0    0.0   12.0   0.00   3.12   12.9   11.0    1.0    3.1   3.12   1.07    0.00    0.37
 2003 182    85    82   12.1    0.0   12.1   0.00   3.09   13.1   11.1    1.0    3.1   3.09   1.07    0.00    0.38
 2003 183    86    83   12.8    0.0   12.8   0.00   3.19   13.8   11.7    1.1    3.2   3.19   1.12    0.00    0.39
 2003 184    87    84   12.8    0.0   12.8   0.00   3.15   13.8   11.6    1.1    3.2   3.15   1.13    0.00    0.39
 2003 185    88    85   12.8    0.0   12.8   0.00   3.10   13.8   11.6    1.2    3.1   3.10   1.13    0.00    0.39
 2003 186    89    86   13.2    0.0   13.2   0.00   3.07   14.2   11.9    1.3    3.1   3.07   1.07    0.00    0.40
 2003 187    90    87   13.8    0.0   13.8   0.00   3.05   14.8   12.4    1.4    3.1   3.05   1.07    0.00    0.41
 2003 188    91    88   14.5    0.0   14.5   0.00   3.02   15.5   12.9    1.6    3.0   3.02   1.07    0.00    0.42
 2003 189    92    89   14.8    0.0   14.8   0.00   3.02   15.8   13.1    1.7    3.0   3.02   1.07    0.00    0.43
 2003 190    93    90   15.3    0.0   15.3   0.00   3.11   16.5   13.6    1.8    3.1   3.11   1.21    0.00    0.45
 2003 191    94    91   15.3    0.0   15.3   0.00   3.05   16.5   13.5    1.8    3.0   3.05   1.21    0.00    0.45
 2003 192    95    92   15.6    0.0   15.6   0.00   3.08   16.6   13.8    1.9    3.1   3.08   1.08    0.00    0.46
 2003 193    96    93   15.6    0.0   15.6   0.00   3.05   16.6   13.7    1.9    3.1   3.05   1.08    0.00    0.46
 2003 194    97    94   15.6    0.0   15.6   0.00   3.04   16.6   13.7    1.9    3.0   3.04   1.08    0.00    0.46
 2003 195    98    95   15.6    0.0   15.6   0.00   3.01   16.6   13.7    1.9    3.0   3.01   1.09    0.00    0.46
 2003 196    99    96   15.6    0.0   15.6   0.00   3.00   16.6   13.7    1.9    3.0   3.00   1.09    0.00    0.46
 2003 197   100    97   15.6    0.0   15.6   0.00   2.99   16.6   13.7    1.9    3.0   2.99   1.10    0.00    0.46
 2003 198   101    98   15.6    0.0   15.6   0.00   2.98   16.6   13.7    1.9    3.0   2.98   1.10    0.00    0.46
 2003 199   102    99   15.6    0.0   15.6   0.00   2.97   16.6   13.7    1.9    3.0   2.97   1.11    0.00    0.46
 2003 200   103   100   15.6    0.0   15.6   0.00   2.95   16.6   13.7    2.0    3.0   2.95   1.11    0.00    0.46
 2003 201   104   101   15.6    0.0   15.6   0.00   2.94   16.6   13.6    2.0    2.9   2.94   1.12    0.00    0.46
 2003 202   105   102   15.6    0.0   15.6   0.00   2.93   16.6   13.6    2.0    2.9   2.93   1.12    0.00    0.46
 2003 203   106   103   15.6    0.0   15.6   0.00   2.92   16.6   13.6    2.0    2.9   2.92   1.13    0.00    0.46
 2003 204   107   104   15.6    0.0   15.6   0.00   2.92   16.6   13.6    2.0    2.9   2.92   1.13    0.00    0.46
 2003 205   108   105   15.6    0.0   15.6   0.00   2.91   16.6   13.6    2.1    2.9   2.91   1.14    0.00    0.46
 2003 206   109   106   15.6    0.0   15.6   0.00   2.91   16.6   13.5    2.1    2.9   2.91   1.14    0.00    0.46
 2003 207   110   107   15.6    0.0   15.6   0.00   2.90   16.6   13.5    2.1    2.9   2.90   1.15    0.00    0.46
 2003 208   111   108   15.6    0.0   15.6   0.00   2.90   16.6   13.5    2.1    2.9   2.90   1.15    0.00    0.46
 2003 209   112   109   15.6    0.0   15.6   0.00   2.90   16.6   13.5    2.1    2.9   2.90   1.16    0.00    0.46
 2003 210   113   110   15.6    0.0   15.6   0.00   2.89   16.6   13.5    2.1    2.9   2.89   1.17    0.00    0.46
 2003 211   114   111   15.6    0.0   15.6   0.00   2.88   16.6   13.5    2.2    2.9   2.88   1.17    0.00    0.46
 2003 212   115   112   15.6    0.0   15.6   0.00   2.87   16.6   13.4    2.2    2.9   2.87   1.18    0.00    0.46
 2003 213   116   113   15.6    0.0   15.6   0.00   2.87   16.6   13.4    2.2    2.9   2.87   1.18    0.00    0.46
 2003 214   117   114   15.6    0.0   15.6   0.00   2.87   16.6   13.4    2.2    2.9   2.87   1.19    0.00    0.46
 2003 215   118   115   15.6    0.0   15.6   0.00   2.87   16.6   13.4    2.2    2.9   2.87   1.19    0.00    0.46
 2003 216   119   116   15.6    0.0   15.6   0.00   2.86   16.6   13.4    2.2    2.9   2.86   1.20    0.00    0.46
 2003 217   120   117   15.6    0.0   15.6   0.00   2.86   16.6   13.4    2.2    2.9   2.86   1.20    0.00    0.46
 2003 218   121   118   15.6    0.0   15.6   0.00   2.86   16.6   13.4    2.2    2.9   2.86   1.21    0.00    0.46
 2003 219   122   119   15.6    0.0   15.6   0.00   2.86   16.6   13.4    2.3    2.9   2.86   1.22    0.00    0.46
 2003 220   123   120   15.6    0.0   15.6   0.00   2.85   16.6   13.3    2.3    2.9   2.85   1.22    0.00    0.46
 2003 221   124   121   15.6    0.0   15.6   0.00   2.85   16.6   13.3    2.3    2.9   2.85   1.23    0.00    0.46
 2003 222   125   122   15.6    0.0   15.6   0.00   2.85   16.6   13.3    2.3    2.8   2.85   1.23    0.00    0.46
 2003 223   126   123   15.6    0.0   15.6   0.00   2.85   16.6   13.3    2.3    2.8   2.85   1.24    0.00    0.46
 2003 224   127   124   15.6    0.0   15.6   0.00   2.84   16.6   13.3    2.3    2.8   2.84   1.25    0.00    0.46
 2003 225   128   125   15.6    0.0   15.6   0.00   2.84   16.6   13.3    2.3    2.8   2.84   1.25    0.00    0.46
 2003 226   129   126   15.6    0.0   15.6   0.00   2.84   16.6   13.3    2.3    2.8   2.84   1.26    0.00    0.46
 2003 227   130   127   15.6    0.0   15.6   0.00   2.84   16.6   13.3    2.4    2.8   2.84   1.26    0.00    0.46
 2003 228   131   128   15.6    0.0   15.6   0.00   2.83   16.6   13.3    2.4    2.8   2.83   1.27    0.00    0.46
 2003 229   132   129   15.6    0.0   15.6   0.00   2.83   16.6   13.2    2.4    2.8   2.83   1.28    0.00    0.46
 2003 230   133   130   15.6    0.0   15.6   0.00   2.83   16.6   13.2    2.4    2.8   2.83   1.28    0.00    0.46
 2003 231   134   131   15.6    0.0   15.6   0.00   2.83   16.6   13.2    2.4    2.8   2.83   1.29    0.00    0.46
 2003 232   135   132   15.6    0.0   15.6   0.00   2.82   16.6   13.2    2.4    2.8   2.82   1.30    0.00    0.46
 2003 233   136   133   15.6    0.0   15.6   0.00   2.82   16.6   13.2    2.4    2.8   2.82   1.30    0.00    0.46
 2003 234   137   134   15.6    0.0   15.6   0.00   2.82   16.6   13.2    2.4    2.8   2.82   1.31    0.00    0.46
 2003 235   138   135   15.6    0.0   15.6   0.00   2.82   16.6   13.2    2.4    2.8   2.82   1.31    0.00    0.46
 2003 236   139   136   15.6    0.0   15.6   0.00   2.82   16.6   13.2    2.4    2.8   2.82   1.32    0.00    0.46
 2003 237   140   137   15.6    0.0   15.6   0.00   2.82   16.6   13.2    2.4    2.8   2.82   1.33    0.00    0.46
 2003 238   141   138   15.6    0.0   15.6   0.00   2.82   16.6   13.2    2.4    2.8   2.82   1.33    0.00    0.46
 2003 239   142   139   15.6    0.0   15.6   0.00   2.83   16.6   13.2    2.4    2.8   2.83   1.34    0.00    0.46
 2003 240   143   140   15.6    0.0   15.6   0.00   2.83   16.6   13.2    2.4    2.8   2.83   1.35    0.00    0.46
 2003 241   144   141   15.6    0.0   15.6   0.00   2.83   16.6   13.2    2.4    2.8   2.83   1.35    0.00    0.46
 2003 242   145   142   15.6    0.0   15.6   0.00   2.83   16.6   13.2    2.4    2.8   2.83   1.36    0.00    0.46

*DSSAT Cropping System Model Ver. 4.0.2.000               Aug 12, 2016; 12:47:50

*RUN   5        : UYMZ                    
 MODEL          : MZCER040 - Maize           
 EXPERIMENT     : UYMZ0195 MZ    late to create DSS                             
 TREATMENT  1   : UYMZ                    

@YEAR DOY   DAS   DAP   CNAD   GNAD   VNAD   GN%D   VN%D   NUPC   LNAD   SNAD   LN%D   SN%D   RN%D   SNN0C   SNN1C
 2004 100     3     0    0.0    0.0    0.0   0.00   0.00    0.0    0.0    0.0    0.0   0.00   0.00    0.00    0.00
 2004 101     4     1    0.0    0.0    0.0   0.00   0.00    0.0    0.0    0.0    0.0   0.00   0.00    0.00    0.00
 2004 102     5     2    0.0    0.0    0.0   0.00   0.00    0.0    0.0    0.0    0.0   0.00   0.00    0.00    0.00
 2004 103     6     3    0.0    0.0    0.0   0.00   0.00    0.0    0.0    0.0    0.0   0.00   0.00    0.00    0.00
 2004 104     7     4    0.0    0.0    0.0   0.00   0.00    0.0    0.0    0.0    0.0   0.00   0.00    0.00    0.00
 2004 105     8     5    1.2    0.0    1.2   0.00   4.40    0.0    0.6    0.6    4.4   4.40   0.00    0.00    0.00
 2004 106     9     6    1.3    0.0    1.3   0.00   4.49    0.2    0.6    0.6    4.5   4.49   1.09    0.00    0.00
 2004 107    10     7    1.3    0.0    1.3   0.00   4.49    0.2    0.6    0.6    4.5   4.49   1.07    0.00    0.00
 2004 108    11     8    1.2    0.0    1.2   0.00   4.40    0.2    0.6    0.6    4.4   4.40   1.19    0.00    0.00
 2004 109    12     9    1.2    0.0    1.2   0.00   4.36    0.2    0.6    0.6    4.4   4.36   1.20    0.00    0.00
 2004 110    13    10    1.2    0.0    1.2   0.00   4.34    0.2    0.6    0.6    4.3   4.34   1.21    0.00    0.00
 2004 111    14    11    1.2    0.0    1.2   0.00   4.31    0.3    0.6    0.6    4.3   4.31   1.20    0.00    0.00
 2004 112    15    12    1.2    0.0    1.2   0.00   4.28    0.3    0.6    0.6    4.3   4.28   1.21    0.00    0.01
 2004 113    16    13    1.2    0.0    1.2   0.00   3.98    0.3    0.6    0.6    4.0   3.98   1.19    0.00    0.01
 2004 114    17    14    1.3    0.0    1.3   0.00   3.45    0.4    0.8    0.5    3.4   3.45   1.18    0.00    0.01
 2004 115    18    15    1.5    0.0    1.5   0.00   3.81    0.7    1.0    0.5    3.8   3.81   1.18    0.00    0.01
 2004 116    19    16    1.7    0.0    1.7   0.00   3.88    1.0    1.1    0.5    3.9   3.88   1.25    0.00    0.01
 2004 117    20    17    1.8    0.0    1.8   0.00   3.83    1.2    1.3    0.5    3.8   3.83   1.28    0.00    0.01
 2004 118    21    18    1.9    0.0    1.9   0.00   3.72    1.5    1.4    0.5    3.7   3.72   1.24    0.00    0.02
 2004 119    22    19    2.1    0.0    2.1   0.00   3.66    1.7    1.6    0.5    3.7   3.66   1.21    0.00    0.02
 2004 120    23    20    2.4    0.0    2.4   0.00   3.42    1.9    1.9    0.5    3.4   3.42   1.09    0.00    0.03
 2004 121    24    21    2.8    0.0    2.8   0.00   3.71    2.6    2.3    0.5    3.7   3.71   1.22    0.00    0.03
 2004 122    25    22    3.0    0.0    3.0   0.00   3.77    3.0    2.5    0.5    3.8   3.77   1.25    0.00    0.03
 2004 123    26    23    3.2    0.0    3.2   0.00   3.68    3.2    2.7    0.5    3.7   3.68   1.16    0.00    0.04
 2004 124    27    24    3.5    0.0    3.5   0.00   3.71    3.4    2.9    0.5    3.7   3.71   1.11    0.00    0.05
 2004 125    28    25    3.7    0.0    3.7   0.00   3.61    3.7    3.2    0.5    3.6   3.61   1.09    0.00    0.05
 2004 126    29    26    4.0    0.0    4.0   0.00   3.57    4.1    3.5    0.5    3.6   3.57   1.12    0.00    0.06
 2004 127    30    27    4.4    0.0    4.4   0.00   3.58    4.5    3.9    0.5    3.6   3.58   1.08    0.00    0.06
 2004 128    31    28    4.8    0.0    4.8   0.00   3.64    4.9    4.3    0.5    3.6   3.64   1.10    0.00    0.07
 2004 129    32    29    5.1    0.0    5.1   0.00   3.39    5.4    4.7    0.5    3.4   3.39   1.14    0.00    0.08
 2004 130    33    30    5.8    0.0    5.8   0.00   3.41    6.1    5.3    0.5    3.4   3.41   1.13    0.00    0.09
 2004 131    34    31    7.3    0.0    7.3   0.00   3.77    7.8    6.8    0.5    3.8   3.77   1.15    0.00    0.09
 2004 132    35    32    8.1    0.0    8.1   0.00   3.68    8.6    7.6    0.5    3.7   3.68   1.11    0.00    0.10
 2004 133    36    33    8.8    0.0    8.8   0.00   3.57    9.6    8.3    0.5    3.6   3.57   1.18    0.00    0.11
 2004 134    37    34    9.5    0.0    9.5   0.00   3.56   10.2    9.0    0.5    3.6   3.56   1.09    0.00    0.12
 2004 135    38    35   10.1    0.0   10.1   0.00   3.55   10.8    9.6    0.5    3.5   3.55   1.10    0.00    0.13
 2004 136    39    36   10.5    0.0   10.5   0.00   3.54   11.6    9.9    0.5    3.5   3.54   1.21    0.00    0.14
 2004 137    40    37   10.7    0.0   10.7   0.00   3.54   12.5   10.2    0.5    3.5   3.54   1.36    0.00    0.15
 2004 138    41    38   11.1    0.0   11.1   0.00   3.53   12.9   10.5    0.5    3.5   3.53   1.24    0.00    0.17
 2004 139    42    39   11.2    0.0   11.2   0.00   3.53   13.5   10.7    0.5    3.5   3.53   1.36    0.00    0.18
 2004 140    43    40   11.3    0.0   11.3   0.00   3.52   13.7   10.8    0.5    3.5   3.52   1.29    0.00    0.20
 2004 141    44    41   11.3    0.0   11.3   0.00   3.47   13.7   10.8    0.5    3.5   3.47   1.25    0.00    0.20
 2004 142    45    42   11.3    0.0   11.3   0.00   3.37   13.7   10.8    0.5    3.4   3.37   1.26    0.00    0.20
 2004 143    46    43   12.0    0.0   12.0   0.00   3.42   13.8   11.4    0.6    3.4   3.42   1.07    0.00    0.22
 2004 144    47    44   12.3    0.0   12.3   0.00   3.41   14.1   11.7    0.6    3.4   3.41   1.07    0.00    0.23
 2004 145    48    45   12.6    0.0   12.6   0.00   3.37   14.4   12.0    0.6    3.4   3.37   1.07    0.00    0.25
 2004 146    49    46   13.0    0.0   13.0   0.00   3.36   14.7   12.3    0.6    3.4   3.36   1.07    0.00    0.26
 2004 147    50    47   12.9    0.0   12.9   0.00   3.35   14.8   12.3    0.6    3.3   3.35   1.05    0.00    0.28
 2004 148    51    48   13.1    0.0   13.1   0.00   3.35   15.3   12.5    0.6    3.4   3.35   1.12    0.00    0.29
 2004 149    52    49   13.5    0.0   13.5   0.00   3.36   15.8   12.8    0.7    3.4   3.36   1.15    0.00    0.31
 2004 150    53    50   13.6    0.0   13.6   0.00   3.35   15.9   12.9    0.7    3.4   3.35   1.11    0.00    0.33
 2004 151    54    51   13.8    0.0   13.8   0.00   3.35   16.0   13.1    0.7    3.4   3.35   1.10    0.00    0.34
 2004 152    55    52   14.0    0.0   14.0   0.00   3.34   16.1   13.2    0.7    3.3   3.34   1.07    0.00    0.36
 2004 153    56    53   14.3    0.0   14.3   0.00   3.28   16.5   13.6    0.8    3.3   3.28   1.07    0.00    0.38
 2004 154    57    54   14.6    0.0   14.6   0.00   3.26   16.7   13.8    0.8    3.3   3.26   1.07    0.00    0.39
 2004 155    58    55   15.0    0.0   15.0   0.00   3.24   17.1   14.1    0.9    3.2   3.24   1.07    0.00    0.41
 2004 156    59    56   15.4    0.0   15.4   0.00   3.22   17.5   14.5    0.9    3.2   3.22   1.07    0.00    0.43
 2004 157    60    57   16.0    0.0   16.0   0.00   3.20   18.1   15.0    1.0    3.2   3.20   1.07    0.00    0.44
 2004 158    61    58   16.8    0.0   16.8   0.00   3.22   18.9   15.7    1.1    3.2   3.22   1.07    0.00    0.46
 2004 159    62    59   17.5    0.0   17.5   0.00   3.25   19.8   16.3    1.2    3.2   3.25   1.11    0.00    0.48
 2004 160    63    60   17.7    0.0   17.7   0.00   3.18   19.9   16.4    1.3    3.2   3.18   1.07    0.00    0.49
 2004 161    64    61   17.9    0.0   17.9   0.00   3.15   20.0   16.5    1.4    3.1   3.15   1.07    0.00    0.51
 2004 162    65    62   17.9    0.0   17.9   0.00   3.14   20.0   16.5    1.4    3.1   3.14   1.07    0.00    0.53
 2004 163    66    63   18.2    0.0   18.2   0.00   3.16   20.4   16.8    1.4    3.2   3.16   1.07    0.00    0.54
 2004 164    67    64   18.6    0.0   18.6   0.00   3.17   20.7   17.1    1.5    3.2   3.17   1.07    0.00    0.56
 2004 165    68    65   18.7    0.0   18.7   0.00   3.15   20.8   17.2    1.5    3.2   3.15   1.07    0.00    0.58
 2004 166    69    66   18.7    0.0   18.7   0.00   3.13   20.8   17.2    1.5    3.1   3.13   1.07    0.00    0.58
 2004 167    70    67   18.7    0.0   18.7   0.00   3.11   20.8   17.2    1.6    3.1   3.11   1.08    0.00    0.58
 2004 168    71    68   18.7    0.0   18.7   0.00   3.11   20.8   17.1    1.6    3.1   3.11   1.08    0.00    0.58
 2004 169    72    69   18.7    0.0   18.7   0.00   3.10   20.8   17.1    1.6    3.1   3.10   1.09    0.00    0.58
 2004 170    73    70   18.7    0.0   18.7   0.00   3.09   20.8   17.1    1.6    3.1   3.09   1.09    0.00    0.58
 2004 171    74    71   18.7    0.0   18.7   0.00   3.09   20.8   17.1    1.6    3.1   3.09   1.10    0.00    0.58
 2004 172    75    72   18.7    0.0   18.7   0.00   3.09   20.8   17.1    1.6    3.1   3.09   1.11    0.00    0.58
 2004 173    76    73   18.7    0.0   18.7   0.00   3.08   20.8   17.1    1.6    3.1   3.08   1.11    0.00    0.58
 2004 174    77    74   18.7    0.0   18.7   0.00   3.08   20.8   17.1    1.6    3.1   3.08   1.12    0.00    0.58
 2004 175    78    75   18.7    0.0   18.7   0.00   3.08   20.8   17.1    1.6    3.1   3.08   1.12    0.00    0.58
 2004 176    79    76   18.7    0.0   18.7   0.00   3.08   20.8   17.1    1.6    3.1   3.08   1.13    0.00    0.58
 2004 177    80    77   18.7    0.0   18.7   0.00   3.07   20.8   17.1    1.6    3.1   3.07   1.13    0.00    0.58
 2004 178    81    78   18.7    0.0   18.7   0.00   3.07   20.8   17.1    1.6    3.1   3.07   1.14    0.00    0.58
 2004 179    82    79   18.7    0.0   18.7   0.00   3.07   20.8   17.1    1.6    3.1   3.07   1.14    0.00    0.58
 2004 180    83    80   18.7    0.0   18.7   0.00   3.06   20.8   17.1    1.6    3.1   3.06   1.15    0.00    0.58
 2004 181    84    81   18.7    0.0   18.7   0.00   3.06   20.8   17.1    1.7    3.1   3.06   1.15    0.00    0.58
 2004 182    85    82   18.7    0.0   18.7   0.00   3.05   20.8   17.0    1.7    3.1   3.05   1.16    0.00    0.58
 2004 183    86    83   18.7    0.0   18.7   0.00   3.05   20.8   17.0    1.7    3.0   3.05   1.17    0.00    0.58
 2004 184    87    84   18.7    0.0   18.7   0.00   3.04   20.8   17.0    1.7    3.0   3.04   1.17    0.00    0.58
 2004 185    88    85   18.7    0.0   18.7   0.00   3.04   20.8   17.0    1.7    3.0   3.04   1.18    0.00    0.58
 2004 186    89    86   18.7    0.0   18.7   0.00   3.03   20.8   16.9    1.8    3.0   3.03   1.18    0.00    0.58
 2004 187    90    87   18.7    0.0   18.7   0.00   3.02   20.8   16.9    1.8    3.0   3.02   1.19    0.00    0.58
 2004 188    91    88   18.7    0.0   18.7   0.00   3.01   20.8   16.8    1.9    3.0   3.01   1.19    0.00    0.58
 2004 189    92    89   18.7    0.0   18.7   0.00   3.00   20.8   16.8    1.9    3.0   3.00   1.20    0.00    0.58
 2004 190    93    90   18.7    0.0   18.7   0.00   3.00   20.8   16.8    1.9    3.0   3.00   1.20    0.00    0.58
 2004 191    94    91   18.7    0.0   18.7   0.00   3.00   20.8   16.8    1.9    3.0   3.00   1.21    0.00    0.58
 2004 192    95    92   18.7    0.0   18.7   0.00   3.00   20.8   16.8    1.9    3.0   3.00   1.22    0.00    0.58
 2004 193    96    93   18.7    0.0   18.7   0.00   3.00   20.8   16.8    1.9    3.0   3.00   1.22    0.00    0.58
 2004 194    97    94   18.7    0.0   18.7   0.00   3.00   20.8   16.8    1.9    3.0   3.00   1.23    0.00    0.58
 2004 195    98    95   18.7    0.0   18.7   0.00   3.00   20.8   16.8    1.9    3.0   3.00   1.24    0.00    0.58
 2004 196    99    96   18.7    0.0   18.7   0.00   3.00   20.8   16.8    1.9    3.0   3.00   1.24    0.00    0.58
 2004 197   100    97   18.7    0.0   18.7   0.00   3.00   20.8   16.8    1.9    3.0   3.00   1.25    0.00    0.58
 2004 198   101    98   18.7    0.0   18.7   0.00   3.00   20.8   16.8    1.9    3.0   3.00   1.25    0.00    0.58
 2004 199   102    99   18.7    0.0   18.7   0.00   3.00   20.8   16.8    1.9    3.0   3.00   1.26    0.00    0.58
 2004 200   103   100   18.7    0.0   18.7   0.00   3.00   20.8   16.8    1.9    3.0   3.00   1.27    0.00    0.58
 2004 201   104   101   18.7    0.0   18.7   0.00   3.00   20.8   16.8    1.9    3.0   3.00   1.27    0.00    0.58
 2004 202   105   102   18.7    0.0   18.7   0.00   3.00   20.8   16.8    1.9    3.0   3.00   1.28    0.00    0.58
 2004 203   106   103   18.7    0.0   18.7   0.00   3.00   20.8   16.8    1.9    3.0   3.00   1.29    0.00    0.58
 2004 204   107   104   18.7    0.0   18.7   0.00   3.00   20.8   16.8    1.9    3.0   3.00   1.29    0.00    0.58
 2004 205   108   105   18.7    0.0   18.7   0.00   3.00   20.8   16.8    1.9    3.0   3.00   1.30    0.00    0.58
 2004 206   109   106   18.7    0.0   18.7   0.00   3.01   20.8   16.8    1.9    3.0   3.01   1.31    0.00    0.58
 2004 207   110   107   18.7    0.0   18.7   0.00   3.01   20.8   16.8    1.9    3.0   3.01   1.31    0.00    0.58
 2004 208   111   108   18.7    0.0   18.7   0.00   3.01   20.8   16.8    1.9    3.0   3.01   1.32    0.00    0.58
 2004 209   112   109   18.7    0.0   18.7   0.00   3.01   20.8   16.8    1.9    3.0   3.01   1.32    0.00    0.58
 2004 210   113   110   18.7    0.0   18.7   0.00   3.01   20.8   16.8    1.9    3.0   3.01   1.33    0.00    0.58
 2004 211   114   111   18.7    0.0   18.7   0.00   3.01   20.8   16.8    1.9    3.0   3.01   1.34    0.00    0.58
 2004 212   115   112   18.7    0.0   18.7   0.00   3.01   20.8   16.8    1.9    3.0   3.01   1.34    0.00    0.58
 2004 213   116   113   18.7    0.0   18.7   0.00   3.01   20.8   16.8    1.9    3.0   3.01   1.35    0.00    0.58
 2004 214   117   114   18.7    0.0   18.7   0.00   3.01   20.8   16.8    1.9    3.0   3.01   1.36    0.00    0.58
 2004 215   118   115   18.7    0.0   18.7   0.00   3.01   20.8   16.8    1.9    3.0   3.01   1.37    0.00    0.58
 2004 216   119   116   18.7    0.0   18.7   0.00   3.01   20.8   16.8    1.9    3.0   3.01   1.37    0.00    0.58
 2004 217   120   117   18.7    0.0   18.7   0.00   3.01   20.8   16.8    1.9    3.0   3.01   1.38    0.00    0.58
 2004 218   121   118   18.7    0.0   18.7   0.00   3.01   20.8   16.8    1.9    3.0   3.01   1.39    0.00    0.58
 2004 219   122   119   18.7    0.0   18.7   0.00   3.02   20.8   16.8    1.9    3.0   3.02   1.39    0.00    0.58
 2004 220   123   120   18.7    0.0   18.7   0.00   3.02   20.8   16.8    1.9    3.0   3.02   1.40    0.00    0.58
 2004 221   124   121   18.7    0.0   18.7   0.00   3.02   20.8   16.8    1.9    3.0   3.02   1.41    0.00    0.58
 2004 222   125   122   18.7    0.0   18.7   0.00   3.02   20.8   16.8    1.9    3.0   3.02   1.41    0.00    0.58
[...]
 2008 302   205   202   51.3    3.8   47.5   1.70   3.88   53.6   20.2   27.3    3.9   3.88   1.56    0.00    1.13
 2008 303   206   203   51.3    3.8   47.5   1.70   3.88   53.6   20.2   27.2    3.9   3.88   1.57    0.00    1.13
 2008 304   207   204   51.3    3.9   47.4   1.70   3.88   53.6   20.2   27.2    3.9   3.88   1.58    0.00    1.13
 2008 305   208   205   51.3    3.9   47.4   1.70   3.87   53.6   20.2   27.2    3.9   3.87   1.59    0.00    1.13
 2008 306   209   206   51.3    3.9   47.4   1.70   3.87   53.6   20.2   27.2    3.9   3.87   1.59    0.00    1.13
 2008 307   210   207   51.3    3.9   47.4   1.70   3.87   53.6   20.2   27.2    3.9   3.87   1.60    0.00    1.13
 2008 308   211   208   51.3    4.0   47.3   1.70   3.87   53.6   20.2   27.2    3.9   3.87   1.61    0.00    1.13
 2008 309   212   209   51.3    4.0   47.3   1.70   3.87   53.6   20.1   27.2    3.9   3.87   1.62    0.00    1.13
 2008 310   213   210   51.3    4.0   47.3   1.70   3.86   53.6   20.1   27.1    3.9   3.86   1.63    0.00    1.13
 2008 311   214   211   51.3    4.0   47.3   1.70   3.86   53.6   20.1   27.1    3.9   3.86   1.63    0.00    1.13
 2008 312   215   212   51.3    4.1   47.2   1.70   3.86   53.6   20.1   27.1    3.9   3.86   1.64    0.00    1.13
 2008 313   216   213   51.3    4.1   47.2   1.70   3.86   53.6   20.1   27.1    3.9   3.86   1.65    0.00    1.13
 2008 314   217   214   51.3    4.1   47.2   1.70   3.86   53.6   20.1   27.1    3.9   3.86   1.66    0.00    1.13
 2008 315   218   215   51.3    4.1   47.2   1.70   3.85   53.6   20.1   27.1    3.9   3.85   1.67    0.00    1.13
 2008 316   219   216   51.3    4.2   47.1   1.70   3.85   53.6   20.1   27.1    3.9   3.85   1.68    0.00    1.13
 2008 317   220   217   51.3    4.2   47.1   1.70   3.85   53.6   20.1   27.0    3.8   3.85   1.68    0.00    1.13
 2008 318   221   218   51.3    4.2   47.1   1.70   3.85   53.6   20.1   27.0    3.8   3.85   1.69    0.00    1.13
 2008 319   222   219   51.3    4.3   47.1   1.70   3.85   53.6   20.0   27.0    3.8   3.85   1.70    0.00    1.13
 2008 320   223   220   51.3    4.3   47.0   1.70   3.84   53.6   20.0   27.0    3.8   3.84   1.71    0.00    1.13
 2008 321   224   221   51.3    4.3   47.0   1.70   3.84   53.6   20.0   27.0    3.8   3.84   1.72    0.00    1.13
 2008 322   225   222   51.3    4.3   47.0   1.70   3.84   53.6   20.0   27.0    3.8   3.84   1.72    0.00    1.13
 2008 323   226   223   51.3    4.3   47.0   1.70   3.84   53.6   20.0   27.0    3.8   3.84   1.72    0.00    1.13
 2008 324   227   224   51.3    4.3   47.0   1.70   3.84   53.6   20.0   27.0    3.8   3.84   1.72    0.00    1.13
 2008 325   228   225   51.3    4.3   47.0   1.70   3.84   53.6   20.0   27.0    3.8   3.84   1.72    0.00    1.13
 2008 326   229   226   51.3    4.3   47.0   1.70   3.84   53.6   20.0   27.0    3.8   3.84   1.72    0.00    1.13

*DSSAT Cropping System Model Ver. 4.0.2.000               Aug 12, 2016; 12:47:50

*RUN  10        : UYMZ                    
 MODEL          : MZCER040 - Maize           
 EXPERIMENT     : UYMZ0195 MZ    late to create DSS                             
 TREATMENT  1   : UYMZ                    

@YEAR DOY   DAS   DAP   CNAD   GNAD   VNAD   GN%D   VN%D   NUPC   LNAD   SNAD   LN%D   SN%D   RN%D   SNN0C   SNN1C
 2009 100     3     0    0.0    0.0    0.0   0.00   0.00    0.0    0.0    0.0    0.0   0.00   0.00    0.00    0.00
 2009 101     4     1    0.0    0.0    0.0   0.00   0.00    0.0    0.0    0.0    0.0   0.00   0.00    0.00    0.00
 2009 102     5     2    0.0    0.0    0.0   0.00   0.00    0.0    0.0    0.0    0.0   0.00   0.00    0.00    0.00
 2009 103     6     3    0.0    0.0    0.0   0.00   0.00    0.0    0.0    0.0    0.0   0.00   0.00    0.00    0.00
 2009 104     7     4    0.0    0.0    0.0   0.00   0.00    0.0    0.0    0.0    0.0   0.00   0.00    0.00    0.00
 2009 105     8     5    0.0    0.0    0.0   0.00   0.00    0.0    0.0    0.0    0.0   0.00   0.00    0.00    0.00
 2009 106     9     6    0.0    0.0    0.0   0.00   0.00    0.0    0.0    0.0    0.0   0.00   0.00    0.00    0.00
 2009 107    10     7    0.0    0.0    0.0   0.00   0.00    0.0    0.0    0.0    0.0   0.00   0.00    0.00    0.00
 2009 108    11     8    0.0    0.0    0.0   0.00   0.00    0.0    0.0    0.0    0.0   0.00   0.00    0.00    0.00
 2009 109    12     9    0.0    0.0    0.0   0.00   0.00    0.0    0.0    0.0    0.0   0.00   0.00    0.00    0.00
 2009 110    13    10    0.0    0.0    0.0   0.00   0.00    0.0    0.0    0.0    0.0   0.00   0.00    0.00    0.00
 2009 111    14    11    0.0    0.0    0.0   0.00   0.00    0.0    0.0    0.0    0.0   0.00   0.00    0.00    0.00
 2009 112    15    12    0.0    0.0    0.0   0.00   0.00    0.0    0.0    0.0    0.0   0.00   0.00    0.00    0.00
 2009 113    16    13    0.0    0.0    0.0   0.00   0.00    0.0    0.0    0.0    0.0   0.00   0.00    0.00    0.00
 2009 114    17    14    0.0    0.0    0.0   0.00   0.00    0.0    0.0    0.0    0.0   0.00   0.00    0.00    0.00
 2009 115    18    15    0.0    0.0    0.0   0.00   0.00    0.0    0.0    0.0    0.0   0.00   0.00    0.00    0.00
 2009 116    19    16    0.0    0.0    0.0   0.00   0.00    0.0    0.0    0.0    0.0   0.00   0.00    0.00    0.00
 2009 117    20    17    0.0    0.0    0.0   0.00   0.00    0.0    0.0    0.0    0.0   0.00   0.00    0.00    0.00
 2009 118    21    18    0.0    0.0    0.0   0.00   0.00    0.0    0.0    0.0    0.0   0.00   0.00    0.00    0.00
 2009 119    22    19    0.0    0.0    0.0   0.00   0.00    0.0    0.0    0.0    0.0   0.00   0.00    0.00    0.00
 2009 120    23    20    0.0    0.0    0.0   0.00   0.00    0.0    0.0    0.0    0.0   0.00   0.00    0.00    0.00
 2009 121    24    21    0.0    0.0    0.0   0.00   0.00    0.0    0.0    0.0    0.0   0.00   0.00    0.00    0.00

*DSSAT Cropping System Model Ver. 4.0.2.000               Aug 12, 2016; 12:47:50

*RUN  11        : UYMZ                    
 MODEL          : MZCER040 - Maize           
 EXPERIMENT     : UYMZ0195 MZ    late to create DSS                             
 TREATMENT  1   : UYMZ                    

@YEAR DOY   DAS   DAP   CNAD   GNAD   VNAD   GN%D   VN%D   NUPC   LNAD   SNAD   LN%D   SN%D   RN%D   SNN0C   SNN1C
 2010 100     3     0    0.0    0.0    0.0   0.00   0.00    0.0    0.0    0.0    0.0   0.00   0.00    0.00    0.00
 2010 101     4     1    0.0    0.0    0.0   0.00   0.00    0.0    0.0    0.0    0.0   0.00   0.00    0.00    0.00
 2010 102     5     2    0.0    0.0    0.0   0.00   0.00    0.0    0.0    0.0    0.0   0.00   0.00    0.00    0.00
 2010 103     6     3    0.0    0.0    0.0   0.00   0.00    0.0    0.0    0.0    0.0   0.00   0.00    0.00    0.00
 2010 104     7     4    0.0    0.0    0.0   0.00   0.00    0.0    0.0    0.0    0.0   0.00   0.00    0.00    0.00
 2010 105     8     5    0.0    0.0    0.0   0.00   0.00    0.0    0.0    0.0    0.0   0.00   0.00    0.00    0.00
 2010 106     9     6    1.2    0.0    1.2   0.00   4.40    0.0    0.6    0.6    4.4   4.40   0.00    0.00    0.00
 2010 107    10     7    1.3    0.0    1.3   0.00   4.54    0.2    0.6    0.6    4.5   4.54   1.08    0.00    0.00
 2010 108    11     8    1.3    0.0    1.3   0.00   4.54    0.2    0.6    0.6    4.5   4.54   1.04    0.00    0.00
 2010 109    12     9    1.3    0.0    1.3   0.00   4.54    0.2    0.6    0.6    4.5   4.54   0.97    0.00    0.00
 2010 110    13    10    1.3    0.0    1.3   0.00   4.54    0.2    0.6    0.6    4.5   4.54   0.90    0.00    0.00
 2010 111    14    11    1.2    0.0    1.2   0.00   4.33    0.2    0.6    0.6    4.3   4.33   1.19    0.00    0.00
 2010 112    15    12    1.2    0.0    1.2   0.00   4.30    0.2    0.6    0.6    4.3   4.30   1.15    0.00    0.00
 2010 113    16    13    1.2    0.0    1.2   0.00   4.29    0.3    0.6    0.6    4.3   4.29   1.32    0.00    0.00
 2010 114    17    14    1.2    0.0    1.2   0.00   4.27    0.3    0.6    0.6    4.3   4.27   1.22    0.00    0.00
 2010 115    18    15    1.2    0.0    1.2   0.00   3.99    0.3    0.6    0.6    4.0   3.99   1.17    0.00    0.00
 2010 116    19    16    1.3    0.0    1.3   0.00   3.68    0.4    0.7    0.5    3.7   3.68   1.11    0.00    0.01
 2010 117    20    17    1.4    0.0    1.4   0.00   3.79    0.6    0.9    0.5    3.8   3.79   1.22    0.00    0.01
 2010 118    21    18    1.6    0.0    1.6   0.00   3.71    0.8    1.1    0.5    3.7   3.71   1.23    0.00    0.01
 2010 119    22    19    1.8    0.0    1.8   0.00   3.70    1.1    1.2    0.5    3.7   3.70   1.24    0.00    0.01
 2010 120    23    20    1.9    0.0    1.9   0.00   3.56    1.4    1.4    0.5    3.6   3.56   1.22    0.00    0.02
 2010 121    24    21    2.2    0.0    2.2   0.00   3.44    1.8    1.7    0.5    3.4   3.44   1.21    0.00    0.02
 2010 122    25    22    2.6    0.0    2.6   0.00   3.50    2.3    2.1    0.5    3.5   3.50   1.19    0.00    0.02
 2010 123    26    23    3.0    0.0    3.0   0.00   3.67    2.6    2.5    0.5    3.7   3.67   1.09    0.00    0.03
 2010 124    27    24    3.2    0.0    3.2   0.00   3.47    3.0    2.8    0.5    3.5   3.47   1.19    0.00    0.03
 2010 125    28    25    3.7    0.0    3.7   0.00   3.49    3.5    3.2    0.5    3.5   3.49   1.14    0.00    0.04
 2010 126    29    26    4.2    0.0    4.2   0.00   3.54    4.1    3.7    0.5    3.5   3.54   1.15    0.00    0.04
 2010 127    30    27    4.6    0.0    4.6   0.00   3.73    4.7    4.1    0.5    3.7   3.73   1.24    0.00    0.05
 2010 128    31    28    4.8    0.0    4.8   0.00   3.73    5.2    4.3    0.5    3.7   3.73   1.29    0.00    0.05
 2010 129    32    29    5.0    0.0    5.0   0.00   3.97    5.7    4.4    0.6    4.0   3.97   1.28    0.00    0.06
 2010 130    33    30    5.0    0.0    5.0   0.00   3.80    5.7    4.5    0.5    3.8   3.80   1.23    0.00    0.06
 2010 131    34    31    5.0    0.0    5.0   0.00   3.52    5.7    4.5    0.5    3.5   3.52   1.14    0.00    0.07
 2010 132    35    32    5.9    0.0    5.9   0.00   3.77    6.7    5.3    0.5    3.8   3.77   1.14    0.00    0.08
 2010 133    36    33    6.3    0.0    6.3   0.00   3.68    7.1    5.8    0.5    3.7   3.68   1.10    0.00    0.09
 2010 134    37    34    6.7    0.0    6.7   0.00   3.57    7.8    6.2    0.5    3.6   3.57   1.15    0.00    0.10
 2010 135    38    35    7.6    0.0    7.6   0.00   3.53    8.7    7.1    0.5    3.5   3.53   1.11    0.00    0.11
 2010 136    39    36    7.9    0.0    7.9   0.00   3.56    9.6    7.4    0.5    3.6   3.56   1.24    0.00    0.13
 2010 137    40    37    8.3    0.0    8.3   0.00   3.50    9.8    7.8    0.5    3.5   3.50   1.13    0.00    0.14
 2010 138    41    38    8.9    0.0    8.9   0.00   3.46   10.3    8.4    0.5    3.5   3.46   1.07    0.00    0.15
 2010 139    42    39   10.0    0.0   10.0   0.00   3.42   11.4    9.4    0.6    3.4   3.42   1.07    0.00    0.17
 2010 140    43    40   10.7    0.0   10.7   0.00   3.38   12.1   10.1    0.6    3.4   3.38   1.07    0.00    0.18
 2010 141    44    41   11.5    0.0   11.5   0.00   3.33   12.9   10.9    0.6    3.3   3.33   1.07    0.00    0.19
 2010 142    45    42   13.0    0.0   13.0   0.00   3.29   14.6   12.2    0.8    3.3   3.29   1.10    0.00    0.21
 2010 143    46    43   14.4    0.0   14.4   0.00   3.24   15.9   13.5    0.9    3.2   3.24   1.08    0.00    0.22
 2010 144    47    44   15.2    0.0   15.2   0.00   3.21   16.7   14.2    1.1    3.2   3.21   1.07    0.00    0.23
 2010 145    48    45   16.4    0.0   16.4   0.00   3.18   18.4   15.2    1.3    3.2   3.18   1.16    0.00    0.25
 2010 146    49    46   17.3    0.0   17.3   0.00   3.18   19.1   15.9    1.4    3.2   3.18   1.09    0.00    0.26
 2010 147    50    47   18.1    0.0   18.1   0.00   3.13   19.9   16.6    1.6    3.1   3.13   1.07    0.00    0.28
 2010 148    51    48   19.4    0.0   19.4   0.00   3.10   21.2   17.6    1.8    3.1   3.10   1.08    0.00    0.29
 2010 149    52    49   20.4    0.0   20.4   0.00   3.08   22.2   18.3    2.0    3.1   3.08   1.07    0.00    0.31
 2010 150    53    50   21.3    0.0   21.3   0.00   3.07   23.2   19.1    2.3    3.1   3.07   1.07    0.00    0.32
 2010 151    54    51   22.2    0.0   22.2   0.00   3.10   24.5   19.8    2.4    3.1   3.10   1.19    0.00    0.34
 2010 152    55    52   22.8    0.0   22.8   0.00   3.08   25.6   20.2    2.6    3.1   3.08   1.23    0.00    0.35
 2010 153    56    53   23.9    0.0   23.9   0.00   3.04   26.7   21.0    2.9    3.0   3.04   1.16    0.00    0.37
 2010 154    57    54   25.3    0.0   25.3   0.00   3.00   28.1   22.0    3.3    3.0   3.00   1.11    0.00    0.39
 2010 155    58    55   27.2    0.0   27.2   0.00   2.98   30.1   23.4    3.9    3.0   2.98   1.10    0.00    0.41
 2010 156    59    56   28.7    0.0   28.7   0.00   2.98   32.3   24.4    4.3    3.0   2.98   1.19    0.00    0.44
 2010 157    60    57   30.1    0.0   30.1   0.00   2.95   34.1   25.4    4.8    2.9   2.95   1.16    0.00    0.46
 2010 158    61    58   31.6    0.0   31.6   0.00   2.95   35.9   26.4    5.2    3.0   2.95   1.16    0.00    0.49
 2010 159    62    59   32.7    0.0   32.7   0.00   2.97   37.3   27.2    5.5    3.0   2.97   1.17    0.00    0.51
 2010 160    63    60   33.5    0.0   33.5   0.00   2.99   37.9   27.7    5.7    3.0   2.99   1.14    0.00    0.54
 2010 161    64    61   34.1    0.0   34.1   0.00   2.94   38.2   28.1    6.0    2.9   2.94   1.07    0.00    0.57
 2010 162    65    62   35.1    0.0   35.1   0.00   2.93   39.2   28.7    6.4    2.9   2.93   1.07    0.00    0.60
 2010 163    66    63   35.9    0.0   35.9   0.00   2.88   40.0   29.0    6.8    2.9   2.88   1.07    0.00    0.62
 2010 164    67    64   36.3    0.0   36.3   0.00   2.85   40.4   29.1    7.2    2.8   2.85   1.07    0.00    0.65
 2010 165    68    65   36.7    0.0   36.7   0.00   2.82   40.8   29.2    7.5    2.8   2.82   1.07    0.00    0.67
 2010 166    69    66   38.6    0.0   38.6   0.00   2.81   42.8   29.8    8.8    2.8   2.81   1.07    0.00    0.70
 2010 167    70    67   39.2    0.0   39.2   0.00   2.82   43.3   30.1    9.1    2.8   2.82   1.07    0.00    0.73
 2010 168    71    68   39.5    0.0   39.5   0.00   2.79   43.6   30.1    9.4    2.8   2.79   1.07    0.00    0.75
 2010 169    72    69   39.9    0.0   39.9   0.00   2.78   44.0   30.1    9.8    2.8   2.78   1.07    0.00    0.78
 2010 170    73    70   41.4    0.0   41.4   0.00   2.79   45.5   30.7   10.7    2.8   2.79   1.07    0.00    0.81
 2010 171    74    71   42.3    0.0   42.3   0.00   2.78   46.4   30.9   11.4    2.8   2.78   1.07    0.00    0.83
 2010 172    75    72   43.6    0.0   43.6   0.00   2.83   47.7   31.6   12.0    2.8   2.83   1.08    0.00    0.86
 2010 173    76    73   43.9    0.0   43.9   0.00   2.77   48.0   31.4   12.6    2.8   2.77   1.08    0.00    0.89
 2010 174    77    74   44.3    0.0   44.3   0.00   2.72   48.3   31.1   13.1    2.7   2.72   1.07    0.00    0.91
 2010 175    78    75   44.5    0.0   44.5   0.00   2.71   48.5   31.1   13.4    2.7   2.71   1.07    0.00    0.94
 2010 176    79    76   44.7    0.0   44.7   0.00   2.71   48.7   31.1   13.5    2.7   2.71   1.07    0.00    0.96
 2010 177    80    77   44.8    0.0   44.8   0.00   2.70   48.8   31.1   13.6    2.7   2.70   1.07    0.00    0.99
 2010 178    81    78   44.8    0.0   44.8   0.00   2.69   48.8   31.0   13.7    2.7   2.69   1.07    0.00    0.99
 2010 179    82    79   45.0    0.0   45.0   0.00   2.68   49.0   31.0   14.0    2.7   2.68   1.07    0.00    1.01
 2010 180    83    80   45.2    0.0   45.2   0.00   2.66   49.1   31.0   14.2    2.7   2.66   1.07    0.00    1.04
 2010 181    84    81   45.2    0.0   45.2   0.00   2.65   49.1   30.9   14.3    2.7   2.65   1.07    0.00    1.04
 2010 182    85    82   45.2    0.0   45.2   0.00   2.64   49.1   30.8   14.4    2.6   2.64   1.08    0.00    1.04
 2010 183    86    83   45.2    0.0   45.2   0.00   2.62   49.1   30.7   14.5    2.6   2.62   1.08    0.00    1.04
 2010 184    87    84   45.2    0.0   45.2   0.00   2.60   49.1   30.5   14.7    2.6   2.60   1.08    0.00    1.04
 2010 185    88    85   45.2    0.0   45.2   0.00   2.56   49.1   30.2   15.0    2.6   2.56   1.09    0.00    1.04
 2010 186    89    86   45.2    0.0   45.2   0.00   2.53   49.1   30.0   15.2    2.5   2.53   1.09    0.00    1.04
 2010 187    90    87   45.2    0.0   45.2   0.00   2.52   49.1   29.8   15.3    2.5   2.52   1.09    0.00    1.04
 2010 188    91    88   45.2    0.0   45.2   0.00   2.51   49.1   29.8   15.4    2.5   2.51   1.10    0.00    1.04
 2010 189    92    89   45.2    0.0   45.2   0.00   2.48   49.1   29.5   15.6    2.5   2.48   1.10    0.00    1.04
 2010 190    93    90   45.2    0.0   45.2   0.00   2.46   49.1   29.3   15.8    2.5   2.46   1.10    0.00    1.04
 2010 191    94    91   45.2    0.0   45.2   0.00   2.45   49.1   29.2   15.9    2.4   2.45   1.11    0.00    1.04
 2010 192    95    92   45.2    0.0   45.2   0.00   2.44   49.1   29.2   16.0    2.4   2.44   1.11    0.00    1.04
 2010 193    96    93   45.2    0.0   45.2   0.00   2.44   49.1   29.2   16.0    2.4   2.44   1.12    0.00    1.04
 2010 194    97    94   45.2    0.0   45.2   0.00   2.43   49.1   29.1   16.0    2.4   2.43   1.12    0.00    1.04
 2010 195    98    95   45.2    0.0   45.2   0.00   2.43   49.1   29.1   16.1    2.4   2.43   1.13    0.00    1.04
 2010 196    99    96   45.2    0.0   45.2   0.00   2.43   49.1   29.1   16.1    2.4   2.43   1.14    0.00    1.04
 2010 197   100    97   45.2    0.0   45.2   0.00   2.43   49.1   29.1   16.1    2.4   2.43   1.14    0.00    1.04
 2010 198   101    98   45.2    0.0   45.2   0.00   2.43   49.1   29.1   16.1    2.4   2.43   1.15    0.00    1.04
 2010 199   102    99   45.2    0.0   45.2   0.00   2.43   49.1   29.1   16.1    2.4   2.43   1.15    0.00    1.04
 2010 200   103   100   45.2    0.0   45.2   0.00   2.43   49.1   29.1   16.1    2.4   2.43   1.16    0.00    1.04
 2010 201   104   101   45.2    0.0   45.2   0.00   2.43   49.1   29.1   16.1    2.4   2.43   1.16    0.00    1.04
 2010 202   105   102   45.2    0.0   45.2   0.00   2.43   49.1   29.1   16.1    2.4   2.43   1.17    0.00    1.04
 2010 203   106   103   45.2    0.0   45.2   0.00   2.43   49.1   29.1   16.1    2.4   2.43   1.18    0.00    1.04
 2010 204   107   104   45.2    0.0   45.2   0.00   2.43   49.1   29.1   16.1    2.4   2.43   1.18    0.00    1.04
 2010 205   108   105   45.2    0.0   45.2   0.00   2.43   49.1   29.1   16.1    2.4   2.43   1.19    0.00    1.04
 2010 206   109   106   45.2    0.0   45.2   0.00   2.44   49.1   29.1   16.1    2.4   2.44   1.19    0.00    1.04
 2010 207   110   107   45.2    0.0   45.2   0.00   2.44   49.1   29.1   16.1    2.4   2.44   1.20    0.00    1.04
 2010 208   111   108   45.2    0.0   45.2   0.00   2.44   49.1   29.1   16.1    2.4   2.44   1.21    0.00    1.04
 2010 209   112   109   45.2    0.0   45.2   0.00   2.44   49.1   29.0   16.1    2.4   2.44   1.21    0.00    1.04
 2010 210   113   110   45.2    0.0   45.2   0.00   2.44   49.1   29.0   16.1    2.4   2.44   1.22    0.00    1.04
 2010 211   114   111   45.2    0.0   45.2   0.00   2.44   49.1   29.0   16.1    2.4   2.44   1.22    0.00    1.04
 2010 212   115   112   45.2    0.0   45.2   0.00   2.44   49.1   29.0   16.1    2.4   2.44   1.23    0.00    1.04
 2010 213   116   113   45.2    0.0   45.2   0.00   2.44   49.1   29.0   16.1    2.4   2.44   1.24    0.00    1.04
 2010 214   117   114   45.2    0.0   45.2   0.00   2.44   49.1   29.0   16.1    2.4   2.44   1.24    0.00    1.04
 2010 215   118   115   45.2    0.0   45.2   0.00   2.44   49.1   29.0   16.1    2.4   2.44   1.25    0.00    1.04
 2010 216   119   116   45.2    0.0   45.2   0.00   2.44   49.1   29.0   16.1    2.4   2.44   1.25    0.00    1.04
 2010 217   120   117   45.2    0.0   45.2   0.00   2.44   49.1   29.0   16.1    2.4   2.44   1.26    0.00    1.04
 2010 218   121   118   45.2    0.0   45.2   0.00   2.44   49.1   29.0   16.1    2.4   2.44   1.27    0.00    1.04
