*SOIL N BALANCE - CERES SOIL N&C ROUTINES

*DSSAT Cropping System Model Ver. 4.0.2.000               Aug 12, 2016; 12:47:50

*RUN   1        : UYMZ                    
 MODEL          : MZCER040 - Maize           
 EXPERIMENT     : UYMZ0195 MZ    late to create DSS                             
 TREATMENT  1   : UYMZ                    



                                         INITIAL Year/Doy      FINAL Year/Doy
                                                 2000/097            2000/209
SOIL N BALANCE                                  -----------kg N/ha-----------

   Soil Humus N                                  12327.10            12285.62
   Soil Litter N                                     0.00                1.91
   N in Surface Residue                              0.00                0.00
   Soil NO3                                         25.14                4.65
   Soil NH4                                         21.32                7.50
   Soil Urea                                         0.00                0.00

   Added to / Removed from Soil:
   N in Harvest Residues from Previous Crop          0.00
   N from Organic Applications                       0.00
   N from senesced plant matter                      2.42
   Fertilizer N                                      1.00
   Leached NO3                                                          25.10
   N Denitrified                                                         2.27
   N Uptake From Soil                                                   49.19
   Ammonia volatilization                                                0.72

   Total N balance                               12376.98            12376.97

================================================================================

*DSSAT Cropping System Model Ver. 4.0.2.000               Aug 12, 2016; 12:47:50

*RUN   2        : UYMZ                    
 MODEL          : MZCER040 - Maize           
 EXPERIMENT     : UYMZ0195 MZ    late to create DSS                             
 TREATMENT  1   : UYMZ                    



                                         INITIAL Year/Doy      FINAL Year/Doy
                                                 2001/097            2001/305
SOIL N BALANCE                                  -----------kg N/ha-----------

   Soil Humus N                                  12327.10            12249.03
   Soil Litter N                                     0.00                0.54
   N in Surface Residue                              0.00                0.00
   Soil NO3                                         25.14               25.08
   Soil NH4                                         21.32               16.81
   Soil Urea                                         0.00                0.00

   Added to / Removed from Soil:
   N in Harvest Residues from Previous Crop          0.00
   N from Organic Applications                       0.00
   N from senesced plant matter                      1.59
   Fertilizer N                                      1.00
   Leached NO3                                                          18.77
   N Denitrified                                                         1.83
   N Uptake From Soil                                                   62.93
   Ammonia volatilization                                                1.16

   Total N balance                               12376.15            12376.15

================================================================================

*DSSAT Cropping System Model Ver. 4.0.2.000               Aug 12, 2016; 12:47:50

*RUN   3        : UYMZ                    
 MODEL          : MZCER040 - Maize           
 EXPERIMENT     : UYMZ0195 MZ    late to create DSS                             
 TREATMENT  1   : UYMZ                    



                                         INITIAL Year/Doy      FINAL Year/Doy
                                                 2002/097            2002/194
SOIL N BALANCE                                  -----------kg N/ha-----------

   Soil Humus N                                  12327.10            12289.91
   Soil Litter N                                     0.00                1.23
   N in Surface Residue                              0.00                0.00
   Soil NO3                                         25.14               15.37
   Soil NH4                                         21.32               14.25
   Soil Urea                                         0.00                0.00

   Added to / Removed from Soil:
   N in Harvest Residues from Previous Crop          0.00
   N from Organic Applications                       0.00
   N from senesced plant matter                      1.47
   Fertilizer N                                      1.00
   Leached NO3                                                          16.50
   N Denitrified                                                         2.61
   N Uptake From Soil                                                   35.52
   Ammonia volatilization                                                0.65

   Total N balance                               12376.03            12376.02

================================================================================

*DSSAT Cropping System Model Ver. 4.0.2.000               Aug 12, 2016; 12:47:50

*RUN   4        : UYMZ                    
 MODEL          : MZCER040 - Maize           
 EXPERIMENT     : UYMZ0195 MZ    late to create DSS                             
 TREATMENT  1   : UYMZ                    



                                         INITIAL Year/Doy      FINAL Year/Doy
                                                 2003/097            2003/242
SOIL N BALANCE                                  -----------kg N/ha-----------

   Soil Humus N                                  12327.10            12276.21
   Soil Litter N                                     0.00                0.30
   N in Surface Residue                              0.00                0.00
   Soil NO3                                         25.14               36.12
   Soil NH4                                         21.32               16.92
   Soil Urea                                         0.00                0.00

   Added to / Removed from Soil:
   N in Harvest Residues from Previous Crop          0.00
   N from Organic Applications                       0.00
   N from senesced plant matter                      0.46
   Fertilizer N                                      1.00
   Leached NO3                                                          25.51
   N Denitrified                                                         2.54
   N Uptake From Soil                                                   16.59
   Ammonia volatilization                                                0.84

   Total N balance                               12375.02            12375.02

================================================================================

*DSSAT Cropping System Model Ver. 4.0.2.000               Aug 12, 2016; 12:47:50

*RUN   5        : UYMZ                    
 MODEL          : MZCER040 - Maize           
 EXPERIMENT     : UYMZ0195 MZ    late to create DSS                             
 TREATMENT  1   : UYMZ                    



                                         INITIAL Year/Doy      FINAL Year/Doy
                                                 2004/097            2004/262
SOIL N BALANCE                                  -----------kg N/ha-----------

   Soil Humus N                                  12327.10            12266.18
   Soil Litter N                                     0.00                0.27
   N in Surface Residue                              0.00                0.00
   Soil NO3                                         25.14               41.62
   Soil NH4                                         21.32               18.43
   Soil Urea                                         0.00                0.00

   Added to / Removed from Soil:
   N in Harvest Residues from Previous Crop          0.00
   N from Organic Applications                       0.00
   N from senesced plant matter                      0.58
   Fertilizer N                                      1.00
   Leached NO3                                                          24.41
   N Denitrified                                                         2.54
   N Uptake From Soil                                                   20.81
   Ammonia volatilization                                                0.87

   Total N balance                               12375.14            12375.13

================================================================================

*DSSAT Cropping System Model Ver. 4.0.2.000               Aug 12, 2016; 12:47:50

*RUN   6        : UYMZ                    
 MODEL          : MZCER040 - Maize           
 EXPERIMENT     : UYMZ0195 MZ    late to create DSS                             
 TREATMENT  1   : UYMZ                    



                                         INITIAL Year/Doy      FINAL Year/Doy
                                                 2005/097            2005/321
SOIL N BALANCE                                  -----------kg N/ha-----------

   Soil Humus N                                  12327.10            12243.19
   Soil Litter N                                     0.00                0.47
   N in Surface Residue                              0.00                0.00
   Soil NO3                                         25.14               33.71
   Soil NH4                                         21.32               13.96
   Soil Urea                                         0.00                0.00

   Added to / Removed from Soil:
   N in Harvest Residues from Previous Crop          0.00
   N from Organic Applications                       0.00
   N from senesced plant matter                      1.13
   Fertilizer N                                      1.00
   Leached NO3                                                          31.20
   N Denitrified                                                         3.21
   N Uptake From Soil                                                   48.81
   Ammonia volatilization                                                1.13

   Total N balance                               12375.68            12375.69

================================================================================

*DSSAT Cropping System Model Ver. 4.0.2.000               Aug 12, 2016; 12:47:50

*RUN   7        : UYMZ                    
 MODEL          : MZCER040 - Maize           
 EXPERIMENT     : UYMZ0195 MZ    late to create DSS                             
 TREATMENT  1   : UYMZ                    



                                         INITIAL Year/Doy      FINAL Year/Doy
                                                 2006/097            2006/328
SOIL N BALANCE                                  -----------kg N/ha-----------

   Soil Humus N                                  12327.10            12239.49
   Soil Litter N                                     0.00                0.32
   N in Surface Residue                              0.00                0.00
   Soil NO3                                         25.14               53.37
   Soil NH4                                         21.32               18.58
   Soil Urea                                         0.00                0.00

   Added to / Removed from Soil:
   N in Harvest Residues from Previous Crop          0.00
   N from Organic Applications                       0.00
   N from senesced plant matter                      1.01
   Fertilizer N                                      1.00
   Leached NO3                                                          31.38
   N Denitrified                                                         3.12
   N Uptake From Soil                                                   27.74
   Ammonia volatilization                                                1.57

   Total N balance                               12375.57            12375.57

================================================================================

*DSSAT Cropping System Model Ver. 4.0.2.000               Aug 12, 2016; 12:47:50

*RUN   8        : UYMZ                    
 MODEL          : MZCER040 - Maize           
 EXPERIMENT     : UYMZ0195 MZ    late to create DSS                             
 TREATMENT  1   : UYMZ                    



                                         INITIAL Year/Doy      FINAL Year/Doy
                                                 2007/097            2007/208
SOIL N BALANCE                                  -----------kg N/ha-----------

   Soil Humus N                                  12327.10            12288.06
   Soil Litter N                                     0.00                0.52
   N in Surface Residue                              0.00                0.00
   Soil NO3                                         25.14               40.01
   Soil NH4                                         21.32               15.08
   Soil Urea                                         0.00                0.00

   Added to / Removed from Soil:
   N in Harvest Residues from Previous Crop          0.00
   N from Organic Applications                       0.00
   N from senesced plant matter                      0.78
   Fertilizer N                                      1.00
   Leached NO3                                                           9.90
   N Denitrified                                                         1.87
   N Uptake From Soil                                                   19.04
   Ammonia volatilization                                                0.85

   Total N balance                               12375.34            12375.34

================================================================================

*DSSAT Cropping System Model Ver. 4.0.2.000               Aug 12, 2016; 12:47:50

*RUN   9        : UYMZ                    
 MODEL          : MZCER040 - Maize           
 EXPERIMENT     : UYMZ0195 MZ    late to create DSS                             
 TREATMENT  1   : UYMZ                    



                                         INITIAL Year/Doy      FINAL Year/Doy
                                                 2008/097            2008/326
SOIL N BALANCE                                  -----------kg N/ha-----------

   Soil Humus N                                  12327.10            12240.21
   Soil Litter N                                     0.00                0.38
   N in Surface Residue                              0.00                0.00
   Soil NO3                                         25.14               48.22
   Soil NH4                                         21.32               15.50
   Soil Urea                                         0.00                0.00

   Added to / Removed from Soil:
   N in Harvest Residues from Previous Crop          0.00
   N from Organic Applications                       0.00
   N from senesced plant matter                      1.13
   Fertilizer N                                      1.00
   Leached NO3                                                          15.08
   N Denitrified                                                         1.31
   N Uptake From Soil                                                   53.56
   Ammonia volatilization                                                1.42

   Total N balance                               12375.69            12375.69

================================================================================

*DSSAT Cropping System Model Ver. 4.0.2.000               Aug 12, 2016; 12:47:50

*RUN  10        : UYMZ                    
 MODEL          : MZCER040 - Maize           
 EXPERIMENT     : UYMZ0195 MZ    late to create DSS                             
 TREATMENT  1   : UYMZ                    



                                         INITIAL Year/Doy      FINAL Year/Doy
                                                 2009/097            2009/121
SOIL N BALANCE                                  -----------kg N/ha-----------

   Soil Humus N                                  12327.10            12315.16
   Soil Litter N                                     0.00                0.00
   N in Surface Residue                              0.00                0.00
   Soil NO3                                         25.14               45.39
   Soil NH4                                         21.32               13.87
   Soil Urea                                         0.00                0.00

   Added to / Removed from Soil:
   N in Harvest Residues from Previous Crop          0.00
   N from Organic Applications                       0.00
   N from senesced plant matter                      0.00
   Fertilizer N                                      1.00
   Leached NO3                                                           0.00
   N Denitrified                                                         0.00
   N Uptake From Soil                                                    0.00
   Ammonia volatilization                                                0.15

   Total N balance                               12374.56            12374.56

================================================================================

*DSSAT Cropping System Model Ver. 4.0.2.000               Aug 12, 2016; 12:47:50

*RUN  11        : UYMZ                    
 MODEL          : MZCER040 - Maize           
 EXPERIMENT     : UYMZ0195 MZ    late to create DSS                             
 TREATMENT  1   : UYMZ                    



                                         INITIAL Year/Doy      FINAL Year/Doy
                                                 2010/097            2010/218
SOIL N BALANCE                                  -----------kg N/ha-----------

   Soil Humus N                                  12327.10            12282.52
   Soil Litter N                                     0.00                0.65
   N in Surface Residue                              0.00                0.00
   Soil NO3                                         25.14               16.69
   Soil NH4                                         21.32               15.97
   Soil Urea                                         0.00                0.00

   Added to / Removed from Soil:
   N in Harvest Residues from Previous Crop          0.00
   N from Organic Applications                       0.00
   N from senesced plant matter                      1.04
   Fertilizer N                                      1.00
   Leached NO3                                                           9.24
   N Denitrified                                                         0.46
   N Uptake From Soil                                                   49.14
   Ammonia volatilization                                                0.95

   Total N balance                               12375.60            12375.60
