*SOIL-PLANT-ATMOSPHERE MODULE OUTPUT FILE

*DSSAT Cropping System Model Ver. 4.0.2.000               Aug 15, 2016; 15:45:51

*RUN   1        : UYMZ                    
 MODEL          : MZCER040 - Maize           
 EXPERIMENT     : UYMZ0207 MZ    late to create DSS                             
 TREATMENT  1   : UYMZ                    

@YEAR DOY   DAS   SRAA   TMXA   TMNA   EOAA   ETAA   EPAA   ESAA   EFAD   ETAC   EPAC   ESAC   EFAC
 1990 223     0  15.40  28.00  11.90  3.842  2.370  0.000  2.370  0.000    2.4    0.0    2.4    0.0
 1990 224     1  15.30  28.40  12.10  3.842  1.374  0.000  1.374  0.000    3.7    0.0    3.7    0.0
 1990 225     2  14.50  28.00  12.80  3.644  1.078  0.000  1.078  0.000    4.8    0.0    4.8    0.0
 1990 226     3   5.20  25.80  14.90  1.294  0.917  0.000  0.917  0.000    5.7    0.0    5.7    0.0
 1990 227     4   7.50  15.80  10.50  1.580  1.580  0.000  1.580  0.000    7.3    0.0    7.3    0.0
 1990 228     5  14.80  18.90   8.50  3.195  3.195  0.000  3.195  0.000   10.5    0.0   10.5    0.0
 1990 229     6  16.80  21.40   7.70  3.724  2.725  0.000  2.725  0.000   13.2    0.0   13.2    0.0
 1990 230     7  16.20  20.80   6.00  3.508  2.308  0.000  2.308  0.000   15.5    0.0   15.5    0.0
 1990 231     8  12.80  20.80  10.40  2.883  1.364  0.000  1.364  0.000   16.9    0.0   16.9    0.0
 1990 232     9  17.30  21.00  10.30  3.903  1.073  0.000  1.073  0.000   18.0    0.0   18.0    0.0
 1990 233    10  14.80  20.90   6.70  3.230  0.914  0.000  0.914  0.000   18.9    0.0   18.9    0.0
 1990 234    11  13.00  18.40   8.30  2.782  0.810  0.000  0.810  0.000   19.7    0.0   19.7    0.0
 1990 235    12  17.00  15.60   4.40  3.366  0.735  0.000  0.735  0.000   20.4    0.0   20.4    0.0
 1990 236    13  11.20  18.10   3.70  2.285  0.677  0.000  0.677  0.000   21.1    0.0   21.1    0.0
 1990 237    14  13.00  24.60   9.60  3.054  0.632  0.000  0.632  0.000   21.8    0.0   21.8    0.0
 1990 238    15  16.40  25.50  11.70  3.963  0.601  0.007  0.594  0.000   22.4    0.0   22.3    0.0
 1990 239    16   6.80  17.60   5.50  1.401  1.401  0.005  1.396  0.000   23.8    0.0   23.7    0.0
 1990 240    17  18.80   9.70   2.00  3.303  3.303  0.014  3.289  0.000   27.1    0.0   27.0    0.0
 1990 241    18  17.80  14.60  -1.20  3.273  3.053  0.011  3.041  0.000   30.1    0.0   30.1    0.0
 1990 242    19  16.80  21.80   2.90  3.584  3.192  0.006  3.185  0.000   33.3    0.0   33.3    0.0
 1990 243    20   5.50  11.80   5.50  1.039  1.039  0.003  1.036  0.000   34.3    0.0   34.3    0.0
 1990 244    21  10.70  10.20   0.80  1.871  1.871  0.005  1.866  0.000   36.2    0.1   36.2    0.0
 1990 245    22  17.70  11.60  -2.30  3.060  1.480  0.006  1.474  0.000   37.7    0.1   37.6    0.0
 1990 246    23  19.80  16.80   2.50  3.916  1.126  0.002  1.123  0.000   38.8    0.1   38.8    0.0
 1990 247    24   5.60  16.40   7.10  1.152  0.945  0.001  0.944  0.000   39.8    0.1   39.7    0.0
 1990 248    25   6.00  18.60  13.40  1.347  0.833  0.002  0.831  0.000   40.6    0.1   40.5    0.0
 1990 249    26   5.70  15.40  13.40  1.226  0.804  0.004  0.800  0.000   41.4    0.1   41.3    0.0
 1990 250    27   5.80  15.90  12.80  1.249  0.916  0.006  0.910  0.000   42.3    0.1   42.2    0.0
 1990 251    28   5.80  14.30  10.30  1.192  1.192  0.007  1.185  0.000   43.5    0.1   43.4    0.0
 1990 252    29  19.70  23.50   7.80  4.489  4.489  0.031  4.458  0.000   48.0    0.1   47.9    0.0
 1990 253    30  15.20  27.50  11.60  3.756  2.410  0.034  2.376  0.000   50.4    0.1   50.3    0.0
 1990 254    31   9.60  23.10  10.70  2.227  2.227  0.042  2.185  0.000   52.6    0.2   52.4    0.0
 1990 255    32  17.10  13.80   5.20  3.308  3.308  0.088  3.220  0.000   55.9    0.3   55.7    0.0
 1990 256    33  18.80  11.80   2.70  3.433  2.337  0.097  2.240  0.000   58.3    0.4   57.9    0.0
 1990 257    34  20.40  14.20   0.50  3.783  2.320  0.098  2.222  0.000   60.6    0.5   60.1    0.0
 1990 258    35  21.40  18.40   3.40  4.360  1.432  0.084  1.349  0.000   62.0    0.6   61.5    0.0
 1990 259    36  17.80  21.60   7.90  3.951  1.151  0.085  1.065  0.000   63.2    0.6   62.5    0.0
 1990 260    37  10.60  17.70  10.60  2.284  0.977  0.067  0.909  0.000   64.2    0.7   63.5    0.0
 1990 261    38   9.30  17.90  11.00  2.015  2.015  0.073  1.942  0.000   66.2    0.8   65.4    0.0
 1990 262    39  13.80  17.70  10.00  2.951  2.951  0.129  2.823  0.000   69.1    0.9   68.2    0.0
 1990 263    40   6.40  17.90  13.30  1.412  1.370  0.072  1.299  0.000   70.5    1.0   69.5    0.0
 1990 264    41   6.40  20.50  15.80  1.491  1.491  0.088  1.402  0.000   72.0    1.1   70.9    0.0
 1990 265    42  20.10  18.60   9.20  4.302  2.638  0.309  2.329  0.000   74.6    1.4   73.2    0.0
 1990 266    43  18.60  13.50   5.40  3.560  1.655  0.287  1.368  0.000   76.3    1.7   74.6    0.0
 1990 267    44  22.30  15.00   3.20  4.269  1.429  0.355  1.075  0.000   77.7    2.0   75.7    0.0
 1990 268    45  23.20  16.30   3.10  4.527  1.277  0.362  0.915  0.000   79.0    2.4   76.6    0.0
 1990 269    46  23.40  20.50   5.10  4.947  1.194  0.384  0.811  0.000   80.2    2.8   77.4    0.0
 1990 270    47  21.30  24.00   8.90  4.873  1.156  0.420  0.735  0.000   81.3    3.2   78.1    0.0
 1990 271    48   6.80  21.70  12.20  1.550  0.836  0.158  0.678  0.000   82.2    3.3   78.8    0.0
 1990 272    49  19.30  22.00  11.30  4.372  1.143  0.511  0.632  0.000   83.3    3.9   79.5    0.0
 1990 273    50  19.30  25.20   8.90  4.451  1.188  0.594  0.594  0.000   84.5    4.4   80.1    0.0
 1990 274    51  21.70  28.10  12.90  5.340  1.377  0.814  0.563  0.000   85.9    5.3   80.6    0.0
 1990 275    52  24.20  24.00  11.90  5.598  1.542  1.006  0.536  0.000   87.4    6.3   81.2    0.0
 1990 276    53  21.80  26.60  13.30  5.247  1.575  1.063  0.512  0.000   89.0    7.3   81.7    0.0
 1990 277    54  17.90  30.10  17.50  4.613  1.556  1.064  0.492  0.000   90.5    8.4   82.2    0.0
 1990 278    55   7.10  19.10  17.30  1.594  0.901  0.428  0.473  0.000   91.5    8.8   82.6    0.0
 1990 279    56   9.40  22.70  17.20  2.198  2.198  0.642  1.556  0.000   93.6    9.5   84.2    0.0
 1990 280    57   7.20  21.60  17.70  1.659  1.659  0.540  1.119  0.000   95.3   10.0   85.3    0.0
 1990 281    58  11.50  20.40  13.70  2.514  2.514  0.891  1.623  0.000   97.8   10.9   86.9    0.0
 1990 282    59  23.40  22.30   9.50  5.045  5.045  1.855  3.191  0.000  102.9   12.7   90.1    0.0
 1990 283    60  21.00  22.30  11.30  4.584  3.937  1.779  2.158  0.000  106.8   14.5   92.3    0.0
 1990 284    61   9.00  22.10  14.50  2.006  2.006  0.826  1.181  0.000  108.8   15.4   93.5    0.0
 1990 285    62  25.50  19.40  11.30  5.319  5.319  2.337  2.981  0.000  114.1   17.7   96.4    0.0
 1990 286    63  26.10  21.60   7.60  5.407  5.407  2.491  2.916  0.000  119.5   20.2   99.4    0.0
 1990 287    64  24.80  22.60  11.50  5.370  4.290  2.566  1.724  0.000  123.8   22.7  101.1    0.0
 1990 288    65  25.50  20.10   8.90  5.206  4.848  2.611  2.236  0.000  128.7   25.4  103.3    0.0
 1990 289    66  26.40  20.50   5.00  5.217  4.055  2.704  1.351  0.000  132.7   28.1  104.7    0.0
 1990 290    67  15.20  21.40   8.90  3.144  2.730  1.663  1.067  0.000  135.5   29.7  105.7    0.0
 1990 291    68  24.50  24.40  14.30  5.495  3.917  3.007  0.910  0.000  139.4   32.7  106.6    0.0
 1990 292    69  17.30  24.00  15.30  3.874  3.549  2.247  1.302  0.000  142.9   35.0  107.9    0.0
 1990 293    70  16.40  23.70  15.70  3.653  3.653  2.234  1.420  0.000  146.6   37.2  109.4    0.0
 1990 294    71  22.20  24.00  14.20  4.882  4.882  3.126  1.756  0.000  151.5   40.3  111.1    0.0
 1990 295    72  27.10  24.80  13.10  5.942  5.683  3.956  1.726  0.000  157.1   44.3  112.8    0.0
 1990 296    73  21.10  25.60  13.10  4.656  4.656  3.208  1.448  0.000  161.8   47.5  114.3    0.0
 1990 297    74  20.80  22.20  13.80  4.412  4.412  3.139  1.273  0.000  166.2   50.6  115.6    0.0
 1990 298    75  14.30  24.70  11.80  3.069  3.069  2.239  0.830  0.000  169.3   52.9  116.4    0.0
 1990 299    76  25.10  27.10  16.30  5.732  5.612  4.282  1.330  0.000  174.9   57.2  117.7    0.0
 1990 300    77  19.60  28.30  17.00  4.548  4.548  3.497  1.051  0.000  179.4   60.7  118.8    0.0
 1990 301    78   8.80  23.80  18.50  1.955  1.955  1.544  0.410  0.000  181.4   62.2  119.2    0.0
 1990 302    79  12.20  27.40  20.40  2.860  2.860  2.300  0.560  0.000  184.3   64.5  119.7    0.0
 1990 303    80  26.40  28.80  17.90  6.155  6.155  5.057  1.098  0.000  190.4   69.6  120.8    0.0
 1990 304    81  26.50  23.20  15.80  5.679  5.679  4.763  0.916  0.000  196.1   74.3  121.8    0.0
 1990 305    82  23.10  24.10  16.70  5.033  5.033  4.279  0.754  0.000  201.1   78.6  122.5    0.0
 1990 306    83  20.10  27.00  14.30  4.440  4.440  3.826  0.614  0.000  205.6   82.4  123.1    0.0
 1990 307    84  11.80  28.10  20.80  2.769  2.769  2.416  0.353  0.000  208.3   84.8  123.5    0.0
 1990 308    85  21.00  22.20  10.80  4.237  4.237  3.733  0.504  0.000  212.6   88.6  124.0    0.0
 1990 309    86  28.80  19.00   6.40  5.348  5.348  4.744  0.604  0.000  217.9   93.3  124.6    0.0
 1990 310    87  17.40  21.20   9.80  3.432  3.432  3.053  0.378  0.000  221.3   96.4  125.0    0.0
 1990 311    88  23.40  23.50  13.50  4.901  4.901  4.383  0.518  0.000  226.2  100.8  125.5    0.0
 1990 312    89   8.40  18.40  11.30  1.615  1.615  1.454  0.161  0.000  227.9  102.2  125.6    0.0
 1990 313    90  16.20  22.30  15.10  3.383  3.383  3.058  0.325  0.000  231.2  105.3  126.0    0.0
 1990 314    91  21.20  24.80  13.70  4.508  4.508  4.114  0.394  0.000  235.8  109.4  126.4    0.0
 1990 315    92  23.60  27.00  15.30  5.212  5.212  4.795  0.417  0.000  241.0  114.2  126.8    0.0
 1990 316    93  12.20  24.60  14.20  2.594  2.594  2.401  0.193  0.000  243.6  116.6  127.0    0.0
 1990 317    94  26.70  34.90  18.50  6.581  6.581  6.107  0.474  0.000  250.1  122.7  127.4    0.0
 1990 318    95  15.90  33.00  20.80  3.902  3.902  3.638  0.263  0.000  254.0  126.3  127.7    0.0
 1990 319    96   8.60  23.20  17.30  1.841  1.841  1.720  0.121  0.000  255.9  128.0  127.8    0.0
 1990 320    97  17.60  22.10  12.20  3.563  3.563  3.330  0.234  0.000  259.4  131.4  128.1    0.0
 1990 321    98  28.70  26.10   9.30  5.964  5.964  5.572  0.392  0.000  265.4  137.0  128.5    0.0
 1990 322    99  27.80  29.70  16.50  6.378  6.378  5.959  0.419  0.000  271.8  142.9  128.9    0.0
 1990 323   100  27.10  33.40  21.80  6.722  6.722  6.286  0.436  0.000  278.5  149.2  129.3    0.0
 1990 324   101  12.20  28.00  21.10  2.841  2.841  2.661  0.180  0.000  281.4  151.9  129.5    0.0
 1990 325   102  30.70  28.70  18.80  7.084  7.084  6.635  0.449  0.000  288.4  158.5  129.9    0.0
 1990 326   103  28.10  28.00  15.30  6.264  6.264  5.870  0.394  0.000  294.7  164.4  130.3    0.0
 1990 327   104  29.80  28.20  14.20  6.602  6.602  6.186  0.416  0.000  301.3  170.5  130.8    0.0
 1990 328   105  25.60  28.70  16.80  5.819  5.819  5.451  0.368  0.000  307.1  176.0  131.1    0.0
 1990 329   106  20.10  29.20  18.20  4.643  4.643  4.349  0.294  0.000  311.8  180.3  131.4    0.0
 1990 330   107  22.90  24.90  15.80  4.943  4.943  4.618  0.325  0.000  316.7  185.0  131.7    0.0
 1990 331   108  30.40  21.20  10.00  5.972  5.972  5.563  0.409  0.000  322.7  190.5  132.1    0.0
 1990 332   109  30.90  24.60   9.00  6.289  6.289  5.846  0.444  0.000  329.0  196.4  132.6    0.0
 1990 333   110  31.00  27.10  12.20  6.682  6.682  6.197  0.485  0.000  335.6  202.6  133.1    0.0
 1990 334   111  14.90  26.80  14.90  3.270  3.270  3.027  0.244  0.000  338.9  205.6  133.3    0.0
 1990 335   112  23.40  26.40  14.70  5.105  5.105  4.715  0.390  0.000  344.0  210.3  133.7    0.0
 1990 336   113   9.00  23.50  14.10  1.887  1.887  1.740  0.147  0.000  345.9  212.1  133.9    0.0
 1990 337   114  30.10  22.90  11.40  6.126  6.126  5.638  0.488  0.000  352.0  217.7  134.3    0.0
 1990 338   115  28.70  27.90  10.60  6.174  6.174  5.672  0.502  0.000  358.2  223.4  134.8    0.0
 1990 339   116  16.80  32.30  20.30  4.086  4.086  3.748  0.338  0.000  362.3  227.1  135.2    0.0
 1990 340   117  16.80  25.60  17.50  3.715  3.715  3.403  0.312  0.000  366.0  230.5  135.5    0.0
 1990 341   118  26.90  25.20  16.00  5.852  5.852  5.353  0.500  0.000  371.9  235.9  136.0    0.0
 1990 342   119  30.30  25.00  12.00  6.369  6.369  5.817  0.551  0.000  378.2  241.7  136.5    0.0
 1990 343   120   9.00  19.70  14.20  1.803  1.803  1.645  0.158  0.000  380.0  243.3  136.7    0.0
 1990 344   121   9.10  19.50  15.90  1.845  1.845  1.680  0.165  0.000  381.9  245.0  136.9    0.0
 1990 345   122  24.70  25.00  14.70  5.310  5.310  4.824  0.487  0.000  387.2  249.8  137.4    0.0
 1990 346   123  14.70  22.00  10.50  2.941  2.941  2.665  0.276  0.000  390.1  252.5  137.6    0.0
 1990 347   124  19.00  24.00  14.30  4.025  4.025  3.638  0.387  0.000  394.2  256.1  138.0    0.0
 1990 348   125  29.20  21.90  10.30  5.828  5.828  5.252  0.576  0.000  400.0  261.4  138.6    0.0
 1990 349   126  31.80  27.30  10.90  6.827  6.827  6.134  0.693  0.000  406.8  267.5  139.3    0.0
 1990 350   127  28.70  30.20  13.70  6.518  6.518  5.838  0.680  0.000  413.3  273.4  140.0    0.0
 1990 351   128  14.40  30.10  18.00  3.375  3.375  3.013  0.362  0.000  416.7  276.4  140.3    0.0
 1990 352   129  27.40  25.60  17.30  6.072  6.072  5.401  0.671  0.000  422.8  281.8  141.0    0.0
 1990 353   130  31.40  25.60  14.40  6.804  6.804  6.028  0.776  0.000  429.6  287.8  141.8    0.0
 1990 354   131  31.60  27.10  14.00  6.952  6.952  6.133  0.819  0.000  436.5  293.9  142.6    0.0
 1990 355   132  25.60  29.80  15.90  5.899  5.899  5.180  0.719  0.000  442.4  299.1  143.3    0.0
 1990 356   133  10.00  25.70  19.00  2.253  2.253  1.968  0.285  0.000  444.7  301.1  143.6    0.0
 1990 357   134  19.50  28.40  17.80  4.492  4.492  3.903  0.589  0.000  449.2  305.0  144.2    0.0
 1990 358   135  13.10  24.40  15.50  2.832  2.832  2.446  0.386  0.000  452.0  307.4  144.6    0.0
 1990 359   136  29.40  25.70  12.70  6.316  6.316  5.421  0.895  0.000  458.3  312.9  145.5    0.0
 1990 360   137  31.40  31.30  15.30  7.352  7.352  6.267  1.085  0.000  465.7  319.1  146.6    0.0
 1990 361   138  31.40  31.50  18.00  7.522  7.522  6.366  1.156  0.000  473.2  325.5  147.7    0.0
 1990 362   139  31.40  21.00  13.30  6.411  6.411  5.383  1.028  0.000  479.6  330.9  148.7    0.0
 1990 363   140  29.60  23.30   9.40  6.027  6.027  5.016  1.011  0.000  485.6  335.9  149.8    0.0
 1990 364   141  30.80  27.20  11.40  6.700  6.406  5.526  0.880  0.000  492.0  341.4  150.6    0.0
 1990 365   142  31.50  29.40  14.80  7.228  7.228  5.906  1.322  0.000  499.3  347.3  152.0    0.0
 1991 001   143  24.30  31.60  17.10  5.820  5.820  4.709  1.112  0.000  505.1  352.0  153.1    0.0
 1991 002   144  24.10  29.20  20.30  5.763  5.763  4.613  1.150  0.000  510.9  356.6  154.2    0.0
 1991 003   145  26.70  29.10  17.40  6.250  6.250  4.946  1.304  0.000  517.1  361.6  155.5    0.0
 1991 004   146  31.30  28.60  13.40  7.076  6.578  5.532  1.047  0.000  523.7  367.1  156.6    0.0
 1991 005   147  31.30  28.20  13.80  7.076  6.356  5.459  0.898  0.000  530.0  372.6  157.5    0.0
 1991 006   148  31.30  30.20  13.00  7.208  6.282  5.483  0.798  0.000  536.3  378.1  158.3    0.0
 1991 007   149  29.60  32.40  17.10  7.214  6.133  5.407  0.726  0.000  542.5  383.5  159.0    0.0
 1991 008   150  29.90  34.30  19.30  7.567  6.253  5.582  0.671  0.000  548.7  389.0  159.7    0.0
 1991 009   151   9.90  24.30  21.30  2.282  2.282  1.655  0.626  0.000  551.0  390.7  160.3    0.0
 1991 010   152  27.90  30.80  19.20  6.822  6.822  4.861  1.962  0.000  557.8  395.6  162.2    0.0
 1991 011   153  25.10  27.80  15.90  5.802  4.994  4.055  0.939  0.000  562.8  399.6  163.2    0.0
 1991 012   154  29.50  26.40  13.00  6.570  5.330  4.503  0.827  0.000  568.1  404.1  164.0    0.0
 1991 013   155  19.30  27.00  12.90  4.335  3.657  2.910  0.747  0.000  571.8  407.0  164.8    0.0
 1991 014   156  30.50  28.00  14.60  7.040  5.311  4.624  0.687  0.000  577.1  411.7  165.4    0.0
 1991 015   157  29.90  31.70  14.10  7.188  5.254  4.614  0.640  0.000  582.4  416.3  166.1    0.0
 1991 016   158  22.10  22.50  13.00  4.733  3.568  2.967  0.601  0.000  585.9  419.2  166.7    0.0
 1991 017   159  30.40  24.40   7.10  6.359  4.438  3.870  0.568  0.000  590.4  423.1  167.3    0.0
 1991 018   160  30.70  27.70  11.00  6.927  4.667  4.127  0.540  0.000  595.0  427.2  167.8    0.0
 1991 019   161  27.80  29.60  11.80  6.471  4.271  3.754  0.516  0.000  599.3  431.0  168.3    0.0
 1991 020   162  22.10  32.20  11.60  5.305  3.489  2.994  0.495  0.000  602.8  434.0  168.8    0.0
 1991 021   163  10.90  24.10  18.70  2.517  2.517  1.420  1.096  0.000  605.3  435.4  169.9    0.0
 1991 022   164  30.70  28.90  15.50  7.311  7.311  4.125  3.185  0.000  612.6  439.5  173.1    0.0
 1991 023   165  25.20  29.20  16.90  6.085  6.085  3.434  2.651  0.000  618.7  443.0  175.7    0.0

*DSSAT Cropping System Model Ver. 4.0.2.000               Aug 15, 2016; 15:45:51

*RUN   2        : UYMZ                    
 MODEL          : MZCER040 - Maize           
 EXPERIMENT     : UYMZ0207 MZ    late to create DSS                             
 TREATMENT  1   : UYMZ                    

@YEAR DOY   DAS   SRAA   TMXA   TMNA   EOAA   ETAA   EPAA   ESAA   EFAD   ETAC   EPAC   ESAC   EFAC
 1991 223     0   7.80  13.10   5.60  1.505  1.505  0.000  1.505  0.000    1.5    0.0    1.5    0.0
 1991 224     1  12.50  15.80   1.50  2.411  1.725  0.000  1.725  0.000    3.2    0.0    3.2    0.0
 1991 225     2  11.60  18.50   7.30  2.463  2.463  0.000  2.463  0.000    5.7    0.0    5.7    0.0
 1991 226     3  15.20  25.70  10.80  3.656  1.452  0.000  1.452  0.000    7.1    0.0    7.1    0.0
 1991 227     4  10.70  25.30  15.40  2.658  1.114  0.000  1.114  0.000    8.3    0.0    8.3    0.0
 1991 228     5  12.60  27.30  14.40  3.180  0.939  0.000  0.939  0.000    9.2    0.0    9.2    0.0
 1991 229     6  16.10  24.70  11.80  3.857  0.200  0.000  0.200  0.000    9.4    0.0    9.4    0.0
 1991 230     7   9.30  23.80  13.60  2.236  0.130  0.000  0.130  0.000    9.5    0.0    9.5    0.0
 1991 231     8  12.70  26.00  10.90  3.068  0.126  0.000  0.126  0.000    9.7    0.0    9.7    0.0
 1991 232     9   9.30  26.00  11.80  2.264  0.122  0.000  0.122  0.000    9.8    0.0    9.8    0.0
 1991 233    10  14.70  26.00  11.60  3.572  0.118  0.000  0.118  0.000    9.9    0.0    9.9    0.0
 1991 234    11  13.80  26.40  14.60  3.451  0.115  0.000  0.115  0.000   10.0    0.0   10.0    0.0
 1991 235    12  16.70  21.60  14.50  3.936  0.111  0.000  0.111  0.000   10.1    0.0   10.1    0.0
 1991 236    13  16.20  20.70   9.90  3.628  0.108  0.000  0.108  0.000   10.2    0.0   10.2    0.0
 1991 237    14  14.10  24.70  11.10  3.358  0.105  0.000  0.105  0.000   10.3    0.0   10.3    0.0
 1991 238    15   5.40  16.90  11.90  1.170  0.103  0.000  0.103  0.000   10.4    0.0   10.4    0.0
 1991 239    16   5.30  16.20  10.20  1.119  0.100  0.000  0.100  0.000   10.5    0.0   10.5    0.0
 1991 240    17  10.80  21.40  12.10  2.488  0.903  0.000  0.903  0.000   11.4    0.0   11.4    0.0
 1991 241    18  10.70  22.80  14.40  2.558  0.802  0.000  0.802  0.000   12.2    0.0   12.2    0.0
 1991 242    19   7.30  24.20  16.00  1.798  0.583  0.000  0.583  0.000   12.8    0.0   12.8    0.0
 1991 243    20   5.50  16.80  11.00  1.180  0.092  0.000  0.092  0.000   12.9    0.0   12.9    0.0
 1991 244    21   9.40  16.10   8.10  1.944  1.944  0.000  1.944  0.000   14.9    0.0   14.9    0.0
 1991 245    22   5.50  17.90  11.20  1.200  1.200  0.000  1.200  0.000   16.1    0.0   16.1    0.0
 1991 246    23  10.50  22.80  14.00  2.502  2.502  0.000  2.502  0.000   18.6    0.0   18.6    0.0
 1991 247    24  18.10  25.80  13.20  4.445  2.929  0.000  2.929  0.000   21.5    0.0   21.5    0.0
 1991 248    25  18.40  27.20  13.90  4.620  1.900  0.000  1.900  0.000   23.4    0.0   23.4    0.0
 1991 249    26   5.70  22.50  16.00  1.376  1.273  0.000  1.273  0.000   24.7    0.0   24.7    0.0
 1991 250    27   5.80  17.20  12.80  1.272  1.272  0.000  1.272  0.000   25.9    0.0   25.9    0.0
 1991 251    28   6.40  17.10  10.50  1.372  1.176  0.002  1.175  0.000   27.1    0.0   27.1    0.0
 1991 252    29  15.60  20.00   8.40  3.414  3.226  0.007  3.219  0.000   30.3    0.0   30.3    0.0
 1991 253    30  17.50  22.00  10.20  3.995  1.457  0.011  1.446  0.000   31.8    0.0   31.8    0.0
 1991 254    31  20.20  25.00  10.80  4.813  1.133  0.023  1.111  0.000   32.9    0.0   32.9    0.0
 1991 255    32  19.90  27.80  14.10  5.035  0.964  0.027  0.937  0.000   33.9    0.1   33.8    0.0
 1991 256    33  15.40  30.70  16.10  4.088  0.856  0.030  0.826  0.000   34.7    0.1   34.6    0.0
 1991 257    34   6.10  21.00   7.80  1.344  0.760  0.014  0.746  0.000   35.5    0.1   35.4    0.0
 1991 258    35   6.20  12.30   8.20  1.211  1.211  0.018  1.193  0.000   36.7    0.1   36.6    0.0
 1991 259    36  11.50  23.50  12.40  2.721  2.721  0.045  2.676  0.000   39.4    0.2   39.3    0.0
 1991 260    37   6.30  21.10  17.10  1.502  1.502  0.037  1.465  0.000   40.9    0.2   40.7    0.0
 1991 261    38  18.90  19.70  13.10  4.274  4.274  0.149  4.125  0.000   45.2    0.4   44.9    0.0
 1991 262    39  21.70  17.30   8.80  4.564  3.568  0.198  3.370  0.000   48.8    0.6   48.2    0.0
 1991 263    40  13.10  22.60   8.30  2.944  2.456  0.145  2.311  0.000   51.2    0.7   50.5    0.0
 1991 264    41  11.00  27.50  12.60  2.720  1.521  0.156  1.365  0.000   52.8    0.9   51.9    0.0
 1991 265    42  20.40  20.30  10.30  4.512  1.397  0.323  1.073  0.000   54.2    1.2   53.0    0.0
 1991 266    43  21.60  16.90   3.20  4.256  1.261  0.347  0.914  0.000   55.4    1.5   53.9    0.0
 1991 267    44  22.30  19.00   4.90  4.607  1.175  0.365  0.810  0.000   56.6    1.9   54.7    0.0
 1991 268    45  20.30  21.10   8.70  4.465  1.114  0.380  0.735  0.000   57.7    2.3   55.4    0.0
 1991 269    46  21.70  23.40   7.80  4.873  1.145  0.467  0.677  0.000   58.8    2.7   56.1    0.0
 1991 270    47  17.70  27.80  13.80  4.400  1.111  0.480  0.632  0.000   60.0    3.2   56.7    0.0
 1991 271    48  22.20  16.10   9.00  4.540  1.188  0.594  0.594  0.000   61.1    3.8   57.3    0.0
 1991 272    49  21.80  18.00   7.50  4.509  1.190  0.628  0.563  0.000   62.3    4.4   57.9    0.0
 1991 273    50  21.10  20.20   9.70  4.582  1.217  0.681  0.536  0.000   63.6    5.1   58.4    0.0
 1991 274    51  19.70  18.40   7.00  4.065  1.172  0.660  0.512  0.000   64.7    5.8   58.9    0.0
 1991 275    52  22.00  18.40   5.70  4.477  1.263  0.772  0.491  0.000   66.0    6.6   59.4    0.0
 1991 276    53  23.00  19.80   3.80  4.683  1.324  0.851  0.473  0.000   67.3    7.4   59.9    0.0
 1991 277    54  19.10  21.70   6.30  4.084  1.206  0.749  0.457  0.000   68.5    8.2   60.4    0.0
 1991 278    55   7.10  13.60  10.60  1.408  0.720  0.278  0.442  0.000   69.2    8.4   60.8    0.0
 1991 279    56  13.30  12.50   7.00  2.501  2.501  0.514  1.987  0.000   71.7    8.9   62.8    0.0
 1991 280    57  14.80  14.20   4.00  2.769  2.769  0.580  2.189  0.000   74.5    9.5   65.0    0.0
 1991 281    58  23.60  16.90   3.90  4.596  4.596  0.944  3.652  0.000   79.1   10.5   68.6    0.0
 1991 282    59  20.30  20.90   7.30  4.320  3.007  0.876  2.130  0.000   82.1   11.3   70.8    0.0
 1991 283    60  24.30  23.10   7.20  5.309  3.199  1.153  2.046  0.000   85.3   12.5   72.8    0.0
 1991 284    61  24.30  25.00   8.70  5.495  2.610  1.299  1.311  0.000   87.9   13.8   74.1    0.0
 1991 285    62  24.40  29.20  12.20  5.951  2.597  1.550  1.047  0.000   90.5   15.3   75.2    0.0
 1991 286    63  21.90  33.00  20.00  5.872  2.629  1.731  0.898  0.000   93.1   17.1   76.1    0.0
 1991 287    64  11.80  32.00  21.10  3.128  3.128  1.099  2.029  0.000   96.3   18.2   78.1    0.0
 1991 288    65   7.50  23.50  17.60  1.747  1.747  0.698  1.050  0.000   98.0   18.9   79.1    0.0
 1991 289    66   7.60  17.80  11.60  1.558  1.558  0.669  0.889  0.000   99.6   19.5   80.0    0.0
 1991 290    67  15.50  16.00   8.40  2.999  2.999  1.348  1.652  0.000  102.6   20.9   81.7    0.0
 1991 291    68  26.30  21.50   8.40  5.486  5.486  2.488  2.998  0.000  108.1   23.4   84.7    0.0
 1991 292    69  26.30  24.60  11.00  5.823  4.773  2.735  2.038  0.000  112.8   26.1   86.7    0.0
 1991 293    70  26.30  24.90  12.50  5.895  5.183  2.921  2.262  0.000  118.0   29.0   89.0    0.0
 1991 294    71  24.40  29.60  14.20  5.835  4.412  3.056  1.356  0.000  122.4   32.1   90.3    0.0
 1991 295    72  20.20  29.90  19.80  5.021  3.911  2.842  1.069  0.000  126.3   34.9   91.4    0.0
 1991 296    73   8.30  19.10  12.60  1.699  1.699  1.040  0.659  0.000  128.0   36.0   92.1    0.0
 1991 297    74   7.90  17.40  10.20  1.543  1.543  0.974  0.568  0.000  129.6   36.9   92.6    0.0
 1991 298    75   7.90  21.30  15.40  1.696  1.696  1.094  0.602  0.000  131.3   38.0   93.2    0.0
 1991 299    76  22.70  24.90  16.30  5.111  4.502  3.416  1.087  0.000  135.8   41.5   94.3    0.0
 1991 300    77  12.20  23.30  14.70  2.649  2.649  1.841  0.809  0.000  138.4   43.3   95.1    0.0
 1991 301    78   8.00  20.10  14.90  1.667  1.667  1.193  0.473  0.000  140.1   44.5   95.6    0.0
 1991 302    79   8.00  16.80  15.20  1.597  1.597  1.171  0.426  0.000  141.7   45.7   96.0    0.0
 1991 303    80   8.10  18.00  14.60  1.631  1.631  1.217  0.413  0.000  143.3   46.9   96.4    0.0
 1991 304    81   8.10  20.70  14.60  1.685  1.685  1.280  0.405  0.000  145.0   48.2   96.9    0.0
 1991 305    82  17.90  22.30  13.70  3.764  3.764  2.913  0.850  0.000  148.8   51.1   97.7    0.0
 1991 306    83  25.50  22.30  12.20  5.283  5.283  4.165  1.119  0.000  154.1   55.2   98.8    0.0
 1991 307    84  20.80  22.80  12.80  4.351  4.351  3.483  0.868  0.000  158.4   58.7   99.7    0.0
 1991 308    85  27.90  25.00  11.90  5.943  5.943  4.829  1.114  0.000  164.4   63.6  100.8    0.0
 1991 309    86  20.90  25.90  13.20  4.541  4.541  3.745  0.796  0.000  168.9   67.3  101.6    0.0
 1991 310    87  11.60  24.30  16.20  2.528  2.528  2.117  0.411  0.000  171.4   69.4  102.0    0.0
 1991 311    88  21.40  22.80  13.70  4.479  4.479  3.806  0.673  0.000  175.9   73.2  102.7    0.0
 1991 312    89  20.00  21.40  12.40  4.062  4.062  3.490  0.572  0.000  180.0   76.7  103.3    0.0
 1991 313    90  27.20  23.90   9.20  5.544  5.544  4.806  0.738  0.000  185.5   81.5  104.0    0.0
 1991 314    91  17.60  25.70  11.30  3.730  3.730  3.259  0.471  0.000  189.2   84.8  104.5    0.0
 1991 315    92  18.50  19.00  10.10  3.556  3.556  3.136  0.420  0.000  192.8   87.9  104.9    0.0
 1991 316    93  27.30  19.00   6.40  5.070  5.070  4.494  0.576  0.000  197.9   92.4  105.5    0.0
 1991 317    94  18.50  21.00   8.40  3.594  3.594  3.196  0.398  0.000  201.5   95.6  105.9    0.0
 1991 318    95   8.50  19.90  12.10  1.681  1.681  1.501  0.179  0.000  203.1   97.1  106.0    0.0
 1991 319    96  11.90  22.20  14.00  2.461  2.461  2.210  0.251  0.000  205.6   99.3  106.3    0.0
 1991 320    97  19.50  23.20  12.10  4.017  4.017  3.630  0.387  0.000  209.6  102.9  106.7    0.0
 1991 321    98  21.50  23.00  11.30  4.385  4.385  3.985  0.400  0.000  214.0  106.9  107.1    0.0
 1991 322    99  23.70  27.00  13.30  5.157  5.157  4.708  0.449  0.000  219.2  111.6  107.5    0.0
 1991 323   100  29.90  21.30  13.80  6.087  5.918  5.590  0.328  0.000  225.1  117.2  107.9    0.0
 1991 324   101  24.60  24.40  13.00  5.169  5.169  4.765  0.404  0.000  230.2  122.0  108.3    0.0
 1991 325   102  29.40  28.60  12.50  6.464  6.464  6.013  0.451  0.000  236.7  128.0  108.7    0.0
 1991 326   103  28.60  33.30  13.80  6.693  6.693  6.262  0.431  0.000  243.4  134.3  109.1    0.0
 1991 327   104  24.90  35.20  18.50  6.203  6.124  5.749  0.375  0.000  249.5  140.0  109.5    0.0
 1991 328   105   8.80  19.10  13.80  1.736  1.736  1.636  0.101  0.000  251.3  141.7  109.6    0.0
 1991 329   106   8.80  18.80  14.20  1.735  1.735  1.634  0.101  0.000  253.0  143.3  109.7    0.0
 1991 330   107  14.10  20.20  12.60  2.793  2.793  2.628  0.165  0.000  255.8  145.9  109.9    0.0
 1991 331   108  22.40  24.20  10.70  4.595  4.595  4.321  0.274  0.000  260.4  150.2  110.2    0.0
 1991 332   109  22.30  29.00  14.90  5.011  5.011  4.709  0.303  0.000  265.4  154.9  110.5    0.0
 1991 333   110  16.00  25.60  19.00  3.568  3.568  3.353  0.215  0.000  269.0  158.3  110.7    0.0
 1991 334   111  30.00  28.20  17.50  6.814  6.814  6.403  0.411  0.000  275.8  164.7  111.1    0.0
 1991 335   112  24.30  27.80  14.60  5.373  5.373  5.049  0.325  0.000  281.2  169.7  111.4    0.0
 1991 336   113  29.40  30.10  14.90  6.691  6.691  6.283  0.408  0.000  287.8  176.0  111.8    0.0
 1991 337   114  15.40  27.50  18.00  3.484  3.484  3.270  0.214  0.000  291.3  179.3  112.0    0.0
 1991 338   115  29.90  31.50  16.10  6.975  6.975  6.543  0.432  0.000  298.3  185.8  112.5    0.0
 1991 339   116  14.60  27.30  18.30  3.303  3.303  3.098  0.206  0.000  301.6  188.9  112.7    0.0
 1991 340   117  29.40  31.80  18.90  7.023  7.023  6.582  0.441  0.000  308.6  195.5  113.1    0.0
 1991 341   118  16.80  27.80  19.00  3.843  3.843  3.601  0.243  0.000  312.5  199.1  113.3    0.0
 1991 342   119  28.30  29.80  17.70  6.559  6.559  6.125  0.434  0.000  319.0  205.2  113.8    0.0
 1991 343   120   9.00  22.80  18.90  1.943  1.943  1.808  0.135  0.000  321.0  207.1  113.9    0.0
 1991 344   121  24.70  27.00  18.80  5.597  5.597  5.195  0.402  0.000  326.6  212.3  114.3    0.0
 1991 345   122  19.50  27.60  17.30  4.400  4.400  4.074  0.326  0.000  331.0  216.3  114.6    0.0
 1991 346   123   9.40  23.80  16.60  2.018  2.018  1.864  0.154  0.000  333.0  218.2  114.8    0.0
 1991 347   124  29.90  28.40  15.10  6.700  6.700  6.173  0.526  0.000  339.7  224.4  115.3    0.0
 1991 348   125   9.40  21.90  16.70  1.975  1.975  1.816  0.159  0.000  341.7  226.2  115.5    0.0
 1991 349   126   9.10  23.50  16.70  1.950  1.950  1.789  0.161  0.000  343.6  228.0  115.6    0.0
 1991 350   127  20.20  26.90  17.10  4.521  4.521  4.140  0.381  0.000  348.1  232.1  116.0    0.0
 1991 351   128  27.60  27.80  17.90  6.281  6.281  5.741  0.540  0.000  354.4  237.8  116.6    0.0
 1991 352   129  26.20  31.10  17.80  6.182  6.182  5.641  0.541  0.000  360.6  243.5  117.1    0.0
 1991 353   130  21.60  31.20  17.50  5.092  5.092  4.639  0.453  0.000  365.7  248.1  117.6    0.0
 1991 354   131  28.80  31.00  18.00  6.802  6.802  6.180  0.622  0.000  372.5  254.3  118.2    0.0
 1991 355   132  23.90  32.40  19.90  5.812  5.812  5.264  0.548  0.000  378.3  259.6  118.7    0.0
 1991 356   133  11.20  27.10  20.30  2.579  2.579  2.329  0.250  0.000  380.9  261.9  119.0    0.0
 1991 357   134  23.80  30.00  19.50  5.628  5.628  5.065  0.562  0.000  386.5  267.0  119.5    0.0
 1991 358   135  27.30  30.80  20.60  6.566  6.566  5.891  0.676  0.000  393.1  272.9  120.2    0.0
 1991 359   136  21.00  25.60  17.40  4.654  4.654  4.161  0.493  0.000  397.7  277.0  120.7    0.0
 1991 360   137  23.90  22.70  13.40  4.954  4.954  4.413  0.541  0.000  402.7  281.4  121.3    0.0
 1991 361   138  29.90  25.20  12.40  6.343  6.343  5.629  0.715  0.000  409.0  287.1  122.0    0.0
 1991 362   139  28.80  26.60  14.90  6.342  6.342  5.605  0.737  0.000  415.4  292.7  122.7    0.0
 1991 363   140  30.80  29.30  14.60  6.986  6.986  6.149  0.837  0.000  422.4  298.8  123.5    0.0
 1991 364   141  23.60  30.40  17.40  5.537  5.537  4.853  0.684  0.000  427.9  303.7  124.2    0.0
 1991 365   142  19.50  33.00  21.10  4.835  4.835  4.219  0.616  0.000  432.7  307.9  124.8    0.0
 1992 001   143  10.80  28.00  20.30  2.524  2.524  2.192  0.332  0.000  435.3  310.1  125.2    0.0
 1992 002   144  19.00  28.60  19.10  4.433  4.433  3.831  0.602  0.000  439.7  313.9  125.8    0.0
 1992 003   145  28.00  23.20  14.20  5.905  5.905  5.077  0.828  0.000  445.6  319.0  126.6    0.0
 1992 004   146  31.30  26.80  14.90  6.937  6.937  5.932  1.005  0.000  452.5  324.9  127.6    0.0
 1992 005   147  30.40  28.90  13.10  6.813  6.813  5.793  1.021  0.000  459.3  330.7  128.6    0.0
 1992 006   148  20.50  27.20  15.70  4.600  4.600  3.887  0.713  0.000  463.9  334.6  129.3    0.0
 1992 007   149  25.30  29.60  15.90  5.848  5.848  4.911  0.937  0.000  469.8  339.5  130.3    0.0
 1992 008   150  27.90  31.00  20.10  6.761  6.670  5.639  1.031  0.000  476.5  345.1  131.3    0.0
 1992 009   151  23.60  31.00  20.00  5.720  5.720  4.737  0.983  0.000  482.2  349.9  132.3    0.0
 1992 010   152  21.00  30.00  20.90  5.072  5.072  4.169  0.903  0.000  487.3  354.1  133.2    0.0
 1992 011   153  31.30  27.00  14.90  6.993  6.993  5.702  1.290  0.000  494.2  359.8  134.5    0.0
 1992 012   154  26.60  28.30  13.80  5.988  5.988  4.842  1.146  0.000  500.2  364.6  135.6    0.0
 1992 013   155  31.20  28.00  15.60  7.105  6.903  5.693  1.210  0.000  507.1  370.3  136.8    0.0
 1992 014   156  22.70  28.00  15.50  5.171  5.098  4.105  0.994  0.000  512.2  374.4  137.8    0.0
 1992 015   157  29.40  20.20  10.40  5.838  5.838  4.588  1.250  0.000  518.1  379.0  139.1    0.0
 1992 016   158  29.40  23.40   8.90  6.016  5.916  4.677  1.239  0.000  524.0  383.7  140.3    0.0
 1992 017   159  30.40  27.50  12.20  6.733  6.733  5.177  1.557  0.000  530.7  388.8  141.9    0.0
 1992 018   160  29.50  30.30  13.40  6.823  6.823  5.186  1.637  0.000  537.5  394.0  143.5    0.0
 1992 019   161  22.50  31.20  16.00  5.368  5.368  4.031  1.336  0.000  542.9  398.1  144.9    0.0
 1992 020   162  29.40  33.30  18.00  7.291  6.570  5.406  1.164  0.000  549.5  403.5  146.0    0.0
 1992 021   163  25.10  30.40  19.40  6.103  5.418  4.450  0.968  0.000  554.9  407.9  147.0    0.0
 1992 022   164  26.60  30.00  17.80  6.374  5.442  4.595  0.847  0.000  560.3  412.5  147.8    0.0
 1992 023   165  26.70  28.00  15.80  6.171  5.143  4.381  0.762  0.000  565.5  416.9  148.6    0.0
 1992 024   166  18.90  27.80  16.90  4.403  3.773  3.075  0.698  0.000  569.3  420.0  149.3    0.0
 1992 025   167  15.20  28.30  20.60  3.668  3.165  2.517  0.649  0.000  572.4  422.5  149.9    0.0
 1992 026   168  23.20  29.20  20.50  5.650  5.650  3.877  1.773  0.000  578.1  426.4  151.7    0.0
 1992 027   169  21.30  28.50  19.40  5.106  5.106  3.503  1.603  0.000  583.2  429.9  153.3    0.0
 1992 028   170  17.60  30.00  20.90  4.336  4.336  2.975  1.361  0.000  587.5  432.8  154.7    0.0

*DSSAT Cropping System Model Ver. 4.0.2.000               Aug 15, 2016; 15:45:51

*RUN   3        : UYMZ                    
 MODEL          : MZCER040 - Maize           
 EXPERIMENT     : UYMZ0207 MZ    late to create DSS                             
 TREATMENT  1   : UYMZ                    

@YEAR DOY   DAS   SRAA   TMXA   TMNA   EOAA   ETAA   EPAA   ESAA   EFAD   ETAC   EPAC   ESAC   EFAC
 1992 223     0   9.40  15.40   7.80  1.919  1.919  0.000  1.919  0.000    1.9    0.0    1.9    0.0
 1992 224     1  15.10  14.90   3.90  2.943  2.842  0.000  2.842  0.000    4.8    0.0    4.8    0.0
 1992 225     2  14.50  15.90   6.10  2.932  2.932  0.000  2.932  0.000    7.7    0.0    7.7    0.0
 1992 226     3  15.60  18.00   2.80  3.150  1.303  0.000  1.303  0.000    9.0    0.0    9.0    0.0
 1992 227     4  14.70  18.40   3.00  2.992  0.145  0.000  0.145  0.000    9.1    0.0    9.1    0.0
 1992 228     5   9.50  19.20   5.70  2.007  0.139  0.000  0.139  0.000    9.3    0.0    9.3    0.0
 1992 229     6  15.30  22.20   8.70  3.458  0.134  0.000  0.134  0.000    9.4    0.0    9.4    0.0
 1992 230     7  12.30  23.20   9.70  2.841  0.130  0.000  0.130  0.000    9.5    0.0    9.5    0.0
 1992 231     8  14.00  20.80   9.20  3.120  0.125  0.000  0.125  0.000    9.7    0.0    9.7    0.0
 1992 232     9  13.40  19.60   7.90  2.904  0.121  0.000  0.121  0.000    9.8    0.0    9.8    0.0
 1992 233    10  13.30  19.40   6.20  2.830  0.118  0.000  0.118  0.000    9.9    0.0    9.9    0.0
 1992 234    11  16.90  23.10   9.50  3.891  0.114  0.000  0.114  0.000   10.0    0.0   10.0    0.0
 1992 235    12   7.80  20.10  13.90  1.795  0.111  0.000  0.111  0.000   10.1    0.0   10.1    0.0
 1992 236    13  17.00  19.30   9.60  3.727  1.608  0.000  1.608  0.000   11.7    0.0   11.7    0.0
 1992 237    14  17.80  21.00   7.10  3.904  2.449  0.000  2.449  0.000   14.2    0.0   14.2    0.0
 1992 238    15  18.00  21.20   5.80  3.912  1.943  0.000  1.943  0.000   16.1    0.0   16.1    0.0
 1992 239    16  17.90  20.30   6.20  3.857  1.285  0.000  1.285  0.000   17.4    0.0   17.4    0.0
 1992 240    17  17.60  25.40   6.30  4.061  0.616  0.000  0.616  0.000   18.0    0.0   18.0    0.0
 1992 241    18  11.50  18.80  11.40  2.545  0.096  0.000  0.096  0.000   18.1    0.0   18.1    0.0
 1992 242    19  14.20  24.40  11.00  3.366  0.094  0.000  0.094  0.000   18.2    0.0   18.2    0.0
 1992 243    20   5.50  20.90  15.20  1.293  0.092  0.000  0.092  0.000   18.3    0.0   18.3    0.0
 1992 244    21   7.20  13.80   9.60  1.461  0.090  0.000  0.090  0.000   18.4    0.0   18.4    0.0
 1992 245    22   7.50  14.00   7.20  1.491  1.490  0.001  1.489  0.000   19.9    0.0   19.9    0.0
 1992 246    23   5.70  14.80   8.60  1.162  1.162  0.001  1.161  0.000   21.1    0.0   21.1    0.0
 1992 247    24  14.90  17.40   7.30  3.114  1.599  0.005  1.594  0.000   22.7    0.0   22.6    0.0
 1992 248    25  18.80  18.80   6.80  3.988  1.182  0.010  1.172  0.000   23.8    0.0   23.8    0.0
 1992 249    26  18.30  21.20   6.10  3.986  0.983  0.011  0.972  0.000   24.8    0.0   24.8    0.0
 1992 250    27  18.30  18.80   8.70  3.950  0.115  0.012  0.104  0.000   24.9    0.0   24.9    0.0
 1992 251    28  17.80  20.60   9.70  3.971  0.092  0.013  0.079  0.000   25.0    0.1   25.0    0.0
 1992 252    29   5.90  20.10  13.60  1.353  0.084  0.007  0.078  0.000   25.1    0.1   25.1    0.0
 1992 253    30  11.20  20.00  13.40  2.560  0.090  0.014  0.076  0.000   25.2    0.1   25.1    0.0
 1992 254    31  12.60  21.60  13.10  2.932  0.090  0.015  0.075  0.000   25.3    0.1   25.2    0.0
 1992 255    32   8.60  21.20  14.90  2.021  0.090  0.017  0.073  0.000   25.4    0.1   25.3    0.0
 1992 256    33  16.90  19.30  12.30  3.787  2.939  0.019  2.920  0.000   28.3    0.1   28.2    0.0
 1992 257    34  10.20  16.70   8.80  2.137  1.163  0.021  1.143  0.000   29.5    0.1   29.3    0.0
 1992 258    35  17.10  20.10   6.20  3.665  0.979  0.024  0.956  0.000   30.5    0.2   30.3    0.0
 1992 259    36  19.70  21.30   9.00  4.400  0.690  0.027  0.663  0.000   31.2    0.2   31.0    0.0
 1992 260    37  12.60  22.60  12.60  2.952  0.098  0.031  0.067  0.000   31.3    0.2   31.0    0.0
 1992 261    38  14.90  26.70  15.20  3.745  0.102  0.036  0.066  0.000   31.4    0.3   31.1    0.0
 1992 262    39  19.80  16.60   9.30  4.154  0.106  0.041  0.065  0.000   31.5    0.3   31.2    0.0
 1992 263    40  21.60  19.30   5.20  4.529  1.428  0.048  1.380  0.000   32.9    0.4   32.5    0.0
 1992 264    41  21.40  25.60   5.90  4.913  1.137  0.057  1.080  0.000   34.0    0.4   33.6    0.0
 1992 265    42  21.20  30.00  10.20  5.320  0.982  0.063  0.918  0.000   35.0    0.5   34.5    0.0
 1992 266    43   6.50  12.70   8.80  1.281  0.915  0.045  0.871  0.000   35.9    0.5   35.4    0.0
 1992 267    44  16.00  18.60   6.50  3.357  3.357  0.131  3.225  0.000   39.3    0.6   38.6    0.0
 1992 268    45   6.60  13.20  10.60  1.331  1.331  0.063  1.268  0.000   40.6    0.7   39.9    0.0
 1992 269    46  21.20  12.50   4.50  3.975  3.975  0.214  3.760  0.000   44.6    0.9   43.7    0.0
 1992 270    47  20.60  14.20   0.80  3.815  3.269  0.210  3.059  0.000   47.9    1.1   46.7    0.0
 1992 271    48  21.70  20.00   4.50  4.554  2.970  0.195  2.775  0.000   50.8    1.3   49.5    0.0
 1992 272    49  23.00  21.40   5.30  4.951  1.677  0.255  1.422  0.000   52.5    1.6   50.9    0.0
 1992 273    50  23.30  23.20   6.10  5.166  1.430  0.329  1.100  0.000   53.9    1.9   52.0    0.0
 1992 274    51  22.50  26.20  10.30  5.359  1.357  0.427  0.930  0.000   55.3    2.3   52.9    0.0
 1992 275    52  12.50  26.40  11.00  2.991  1.130  0.309  0.821  0.000   56.4    2.7   53.8    0.0
 1992 276    53  11.80  21.80  13.00  2.701  1.943  0.343  1.600  0.000   58.4    3.0   55.4    0.0
 1992 277    54  17.90  20.60  11.10  3.957  1.367  0.587  0.779  0.000   59.7    3.6   56.1    0.0
 1992 278    55  18.00  25.50  11.70  4.243  1.423  0.711  0.712  0.000   61.2    4.3   56.9    0.0
 1992 279    56   7.10  18.20  11.80  1.519  0.955  0.296  0.659  0.000   62.1    4.6   57.5    0.0
 1992 280    57  24.40  15.90   7.40  4.841  4.266  1.024  3.242  0.000   66.4    5.6   60.8    0.0
 1992 281    58  21.30  15.60   4.20  4.070  3.648  0.905  2.743  0.000   70.0    6.5   63.5    0.0
 1992 282    59  24.30  19.00   3.40  4.843  2.499  1.079  1.420  0.000   72.5    7.6   64.9    0.0
 1992 283    60  24.30  21.00   6.60  5.132  2.232  1.133  1.099  0.000   74.8    8.7   66.0    0.0
 1992 284    61  25.10  25.30   7.30  5.628  2.278  1.348  0.930  0.000   77.0   10.1   67.0    0.0
 1992 285    62  16.70  27.20   9.20  3.877  1.871  1.050  0.821  0.000   78.9   11.1   67.8    0.0
 1992 286    63  22.70  24.00  12.40  5.174  2.325  1.582  0.743  0.000   81.2   12.7   68.5    0.0
 1992 287    64  25.10  25.60   8.60  5.624  2.585  1.901  0.684  0.000   83.8   14.6   69.2    0.0
 1992 288    65  24.70  29.50  11.40  5.905  2.852  2.215  0.637  0.000   86.7   16.8   69.8    0.0
 1992 289    66   7.60  31.50  15.50  1.908  1.378  0.779  0.598  0.000   88.0   17.6   70.4    0.0
 1992 290    67   9.30  20.50  15.70  2.042  2.042  0.910  1.132  0.000   90.1   18.5   71.6    0.0
 1992 291    68  23.40  21.20  12.00  5.001  5.001  2.373  2.628  0.000   95.1   20.9   74.2    0.0
 1992 292    69  25.90  21.20   7.50  5.302  5.135  2.644  2.491  0.000  100.2   23.5   76.7    0.0
 1992 293    70   9.10  19.80  11.20  1.884  1.884  0.978  0.906  0.000  102.1   24.5   77.6    0.0
 1992 294    71  24.10  18.60  10.30  4.853  4.853  2.632  2.221  0.000  107.0   27.1   79.8    0.0
 1992 295    72  26.10  21.30   5.50  5.205  5.205  2.921  2.284  0.000  112.2   30.1   82.1    0.0
 1992 296    73  24.90  24.50   7.60  5.264  4.973  3.040  1.933  0.000  117.1   33.1   84.0    0.0
 1992 297    74  25.00  27.30  12.00  5.656  5.656  3.390  2.266  0.000  122.8   36.5   86.3    0.0
 1992 298    75  24.60  30.90  14.60  5.894  5.427  3.708  1.719  0.000  128.2   40.2   88.0    0.0
 1992 299    76   9.50  26.40  17.60  2.201  2.201  1.461  0.740  0.000  130.4   41.7   88.8    0.0
 1992 300    77  26.70  27.40  17.30  6.216  5.341  4.267  1.075  0.000  135.8   45.9   89.8    0.0
 1992 301    78  27.40  30.00  15.80  6.469  5.330  4.415  0.915  0.000  141.1   50.3   90.7    0.0
 1992 302    79  10.50  15.30   6.40  1.889  1.889  1.394  0.495  0.000  143.0   51.7   91.2    0.0
 1992 303    80  27.70  21.90   3.90  5.343  4.608  3.232  1.376  0.000  147.6   55.0   92.6    0.0
 1992 304    81  26.80  21.80   6.40  5.288  3.823  2.944  0.880  0.000  151.4   57.9   93.5    0.0
 1992 305    82  26.90  23.80   6.80  5.468  3.489  2.703  0.786  0.000  154.9   60.6   94.3    0.0
 1992 306    83  27.10  27.10   9.00  5.851  3.253  2.536  0.717  0.000  158.2   63.2   95.0    0.0
 1992 307    84  27.30  30.20  13.00  6.311  3.062  2.399  0.663  0.000  161.2   65.6   95.7    0.0
 1992 308    85  21.90  19.80   9.40  4.319  3.417  2.274  1.143  0.000  164.6   67.8   96.8    0.0
 1992 309    86  27.20  14.10   6.50  4.813  4.813  3.544  1.269  0.000  169.4   71.4   98.1    0.0
 1992 310    87  24.50  16.40   2.70  4.318  4.318  3.195  1.123  0.000  173.8   74.6   99.2    0.0
 1992 311    88  27.00  19.20   4.80  5.086  4.771  3.267  1.503  0.000  178.5   77.8  100.7    0.0
 1992 312    89  27.40  21.50   7.30  5.450  4.104  2.756  1.349  0.000  182.6   80.6  102.0    0.0
 1992 313    90  28.00  25.20   8.30  5.893  4.309  2.583  1.727  0.000  186.9   83.2  103.8    0.0
 1992 314    91  28.20  29.80  10.00  6.365  4.239  2.379  1.860  0.000  191.2   85.6  105.6    0.0
 1992 315    92   8.60  22.00  16.00  1.854  1.854  1.313  0.542  0.000  193.0   86.9  106.2    0.0
 1992 316    93  23.60  28.40  16.10  5.483  2.696  2.020  0.676  0.000  195.7   88.9  106.9    0.0
 1992 317    94  28.00  29.50  15.30  6.546  3.683  1.869  1.814  0.000  199.4   90.8  108.7    0.0
 1992 318    95  28.50  27.90  12.90  6.424  3.352  1.744  1.608  0.000  202.8   92.5  110.3    0.0
 1992 319    96  19.40  31.40  14.40  4.608  2.291  1.633  0.658  0.000  205.1   94.1  110.9    0.0
 1992 320    97  23.00  25.50  17.30  5.220  1.522  1.504  0.018  0.000  206.6   95.6  110.9    0.0
 1992 321    98  28.80  20.40  11.50  5.853  5.853  4.167  1.686  0.000  212.4   99.8  112.6    0.0
 1992 322    99  28.20  21.50   7.70  5.612  5.612  4.075  1.536  0.000  218.0  103.9  114.2    0.0
 1992 323   100  28.80  23.90   7.20  5.879  5.879  4.336  1.543  0.000  223.9  108.2  115.7    0.0
 1992 324   101  29.50  28.10  11.20  6.533  3.603  2.196  1.407  0.000  227.5  110.4  117.1    0.0
 1992 325   102  22.20  30.00  13.80  5.129  2.868  1.660  1.207  0.000  230.4  112.1  118.3    0.0
 1992 326   103   8.70  21.20  13.60  1.805  1.805  1.377  0.428  0.000  232.2  113.4  118.8    0.0
 1992 327   104  25.70  19.30  10.00  5.037  2.399  1.237  1.162  0.000  234.6  114.7  119.9    0.0
 1992 328   105  22.10  20.60   6.40  4.273  2.266  1.243  1.024  0.000  236.9  115.9  120.9    0.0
 1992 329   106  24.00  26.00  11.10  5.187  2.676  1.388  1.288  0.000  239.5  117.3  122.2    0.0
 1992 330   107  21.90  23.90  15.40  4.782  2.270  1.776  0.494  0.000  241.8  119.1  122.7    0.0
 1992 331   108  19.00  26.00  14.30  4.220  2.146  2.120  0.026  0.000  244.0  121.2  122.8    0.0
 1992 332   109  30.10  27.20  12.90  6.704  2.280  2.258  0.022  0.000  246.2  123.5  122.8    0.0
 1992 333   110  21.00  27.70  13.50  4.731  2.419  2.400  0.018  0.000  248.7  125.9  122.8    0.0
 1992 334   111  19.80  29.80  16.90  4.688  2.232  2.217  0.015  0.000  250.9  128.1  122.8    0.0
 1992 335   112  21.90  28.00  18.70  5.150  1.860  1.847  0.013  0.000  252.8  129.9  122.8    0.0
 1992 336   113  29.50  23.90  14.00  6.374  6.374  4.718  1.656  0.000  259.1  134.6  124.5    0.0
 1992 337   114  30.20  24.80   8.90  6.319  6.291  4.693  1.598  0.000  265.4  139.3  126.1    0.0
 1992 338   115  26.20  27.40   9.70  5.695  5.685  4.272  1.413  0.000  271.1  143.6  127.5    0.0
 1992 339   116  30.30  29.10  13.50  6.920  6.681  5.145  1.535  0.000  277.8  148.8  129.0    0.0
 1992 340   117  18.70  28.20  13.80  4.232  3.430  2.434  0.996  0.000  281.2  151.2  130.0    0.0
 1992 341   118  25.20  29.60  18.90  6.019  3.299  1.900  1.399  0.000  284.5  153.1  131.4    0.0
 1992 342   119  23.30  26.40  15.40  5.230  5.230  3.985  1.245  0.000  289.7  157.1  132.7    0.0
 1992 343   120  25.40  27.90  14.80  5.778  5.760  4.365  1.395  0.000  295.5  161.4  134.1    0.0
 1992 344   121  21.00  26.70  16.50  4.776  4.776  3.606  1.170  0.000  300.3  165.0  135.2    0.0
 1992 345   122  22.70  27.30  18.10  5.264  5.044  3.946  1.098  0.000  305.3  169.0  136.3    0.0
 1992 346   123  23.20  26.50  15.70  5.235  5.156  3.848  1.308  0.000  310.5  172.8  137.6    0.0
 1992 347   124  29.50  27.30  13.40  6.601  4.840  3.176  1.664  0.000  315.3  176.0  139.3    0.0
 1992 348   125  30.90  30.20  14.90  7.239  4.814  3.297  1.517  0.000  320.1  179.3  140.8    0.0
 1992 349   126  28.90  28.40  15.70  6.680  4.231  3.090  1.141  0.000  324.4  182.4  142.0    0.0
 1992 350   127  30.30  28.00  10.00  6.672  3.729  2.774  0.955  0.000  328.1  185.2  142.9    0.0
 1992 351   128  24.80  29.80  12.50  5.695  3.346  2.508  0.838  0.000  331.4  187.7  143.8    0.0
 1992 352   129  19.40  27.60  17.70  4.525  2.977  2.222  0.755  0.000  334.4  189.9  144.5    0.0
 1992 353   130  29.70  30.40  14.50  6.985  2.035  1.934  0.101  0.000  336.4  191.8  144.6    0.0
 1992 354   131  18.00  30.80  14.60  4.262  1.803  1.776  0.027  0.000  338.3  193.6  144.6    0.0
 1992 355   132  31.80  33.80  18.10  7.990  1.609  1.586  0.023  0.000  339.9  195.2  144.7    0.0
 1992 356   133  25.50  32.40  15.70  6.215  1.465  1.445  0.019  0.000  341.3  196.6  144.7    0.0
 1992 357   134  11.20  29.40  18.60  2.703  1.322  1.306  0.016  0.000  342.6  198.0  144.7    0.0
 1992 358   135  11.20  27.70  20.80  2.697  2.061  1.158  0.903  0.000  344.7  199.1  145.6    0.0
 1992 359   136  27.80  28.90  17.70  6.634  3.234  0.985  2.249  0.000  347.9  200.1  147.8    0.0
 1992 360   137  22.90  27.40  15.10  5.277  5.264  3.402  1.863  0.000  353.2  203.5  149.7    0.0
 1992 361   138  31.40  27.40  13.20  7.131  6.851  4.578  2.273  0.000  360.1  208.1  152.0    0.0
 1992 362   139  31.00  28.00  12.60  7.059  7.028  4.509  2.519  0.000  367.1  212.6  154.5    0.0
 1992 363   140  30.00  32.00  13.10  7.184  6.026  4.382  1.644  0.000  373.1  217.0  156.1    0.0
 1992 364   141   9.10  25.60  19.70  2.131  2.042  1.268  0.774  0.000  375.2  218.2  156.9    0.0
 1992 365   142   9.10  23.30  19.60  2.075  1.982  1.221  0.761  0.000  377.1  219.5  157.7    0.0
 1992 366   143   9.10  20.20  19.20  1.993  1.931  1.191  0.741  0.000  379.1  220.6  158.4    0.0
 1993 001   144   9.10  21.20  19.60  2.026  2.026  1.264  0.762  0.000  381.1  221.9  159.2    0.0
 1993 002   145   9.10  21.80  19.40  2.039  2.039  1.262  0.777  0.000  383.1  223.2  160.0    0.0
 1993 003   146   9.10  21.90  19.70  2.048  2.048  1.258  0.790  0.000  385.2  224.4  160.7    0.0
 1993 004   147  14.90  28.90  19.80  3.639  3.639  2.219  1.421  0.000  388.8  226.7  162.2    0.0
 1993 005   148  23.60  30.80  21.50  5.962  5.962  3.607  2.355  0.000  394.8  230.3  164.5    0.0
 1993 006   149  29.90  32.00  19.70  7.559  7.240  4.539  2.702  0.000  402.0  234.8  167.2    0.0
 1993 007   150  12.50  27.20  20.30  3.013  3.013  1.795  1.218  0.000  405.0  236.6  168.4    0.0
 1993 008   151  20.20  26.60  20.10  4.833  4.833  2.854  1.980  0.000  409.9  239.4  170.4    0.0
 1993 009   152  30.70  26.90  16.00  7.150  7.150  4.178  2.972  0.000  417.0  243.6  173.4    0.0
 1993 010   153  30.90  31.10  16.00  7.556  6.699  4.367  2.332  0.000  423.7  248.0  175.7    0.0
 1993 011   154  31.30  32.20  17.60  7.845  6.925  4.481  2.444  0.000  430.6  252.5  178.2    0.0
 1993 012   155  30.90  32.70  19.60  7.908  5.842  4.457  1.385  0.000  436.5  256.9  179.6    0.0
 1993 013   156  22.70  33.00  20.70  5.881  4.348  3.265  1.083  0.000  440.8  260.2  180.6    0.0
 1993 014   157  17.40  30.10  22.30  4.427  3.338  2.418  0.920  0.000  444.2  262.6  181.6    0.0
 1993 015   158  26.90  30.80  22.50  6.914  6.914  3.713  3.202  0.000  451.1  266.3  184.8    0.0
 1993 016   159  17.50  28.50  22.00  4.379  4.379  2.309  2.070  0.000  455.5  268.6  186.8    0.0
 1993 017   160  25.50  23.30  16.60  5.776  4.952  2.988  1.964  0.000  460.4  271.6  188.8    0.0
 1993 018   161  25.10  24.80  11.70  5.572  5.301  2.824  2.476  0.000  465.7  274.4  191.3    0.0
 1993 019   162  26.40  26.50  15.60  6.182  4.458  3.069  1.390  0.000  470.2  277.5  192.7    0.0
 1993 020   163  29.90  30.10  16.60  7.364  4.662  3.577  1.085  0.000  474.8  281.1  193.7    0.0
 1993 021   164  30.10  31.80  16.50  7.561  4.513  3.591  0.921  0.000  479.4  284.7  194.7    0.0
 1993 022   165  30.00  33.20  19.80  7.846  4.455  3.641  0.815  0.000  483.8  288.3  195.5    0.0
 1993 023   166  25.50  34.40  21.60  6.850  3.840  3.101  0.739  0.000  487.6  291.4  196.2    0.0
 1993 024   167  28.20  34.80  22.50  7.667  4.064  3.384  0.680  0.000  491.7  294.8  196.9    0.0
 1993 025   168  15.70  27.60  21.00  3.912  3.912  1.726  2.185  0.000  495.6  296.5  199.1    0.0
 1993 026   169  23.80  31.60  19.00  6.106  6.106  2.695  3.411  0.000  501.7  299.2  202.5    0.0
