*WATER BALANCE OUTPUT FILE

*DSSAT Cropping System Model Ver. 4.0.2.000               Aug 15, 2016; 15:45:51

*RUN   1        : UYMZ                    
 MODEL          : MZCER040 - Maize           
 EXPERIMENT     : UYMZ0207 MZ    late to create DSS                             
 TREATMENT  1   : UYMZ                    


     WATER BALANCE PARAMETERS
     ========================                  --mm--

     Soil H20 (start) on Year/day 1990/223     490.84
     Soil H20 (final) on Year/day 1991/023     470.16
     Effective Irrigation                        0.00
     Precipitation                             749.80
     Drainage                                  145.98
     Runoff                                      5.80
     Soil Evaporation                          175.74
     Transpiration                             442.96
     Potential ET                              730.19

     Final Balance                            -0.0002


*DSSAT Cropping System Model Ver. 4.0.2.000               Aug 15, 2016; 15:45:51

*RUN   2        : UYMZ                    
 MODEL          : MZCER040 - Maize           
 EXPERIMENT     : UYMZ0207 MZ    late to create DSS                             
 TREATMENT  1   : UYMZ                    


     WATER BALANCE PARAMETERS
     ========================                  --mm--

     Soil H20 (start) on Year/day 1991/223     490.84
     Soil H20 (final) on Year/day 1992/028     432.77
     Effective Irrigation                        0.00
     Precipitation                             653.90
     Drainage                                  118.87
     Runoff                                      5.58
     Soil Evaporation                          154.68
     Transpiration                             432.84
     Potential ET                              717.67

     Final Balance                             0.0001


*DSSAT Cropping System Model Ver. 4.0.2.000               Aug 15, 2016; 15:45:51

*RUN   3        : UYMZ                    
 MODEL          : MZCER040 - Maize           
 EXPERIMENT     : UYMZ0207 MZ    late to create DSS                             
 TREATMENT  1   : UYMZ                    


     WATER BALANCE PARAMETERS
     ========================                  --mm--

     Soil H20 (start) on Year/day 1992/223     490.84
     Soil H20 (final) on Year/day 1993/026     520.98
     Effective Irrigation                        0.00
     Precipitation                             549.30
     Drainage                                    0.00
     Runoff                                     17.43
     Soil Evaporation                          202.50
     Transpiration                             299.23
     Potential ET                              776.94

     Final Balance                             0.0003

