*SOIL NITROGEN DAILY OUTPUT FILE

*DSSAT Cropping System Model Ver. 4.0.2.000               Aug 23, 2016; 17:50:38

*RUN   1        : UYSB                    
 MODEL          : CRGRO040 - Soybean         
 EXPERIMENT     : UYSB0265 SB    late to create DSS                             
 TREATMENT  1   : UYSB                    

@YEAR DOY   DAS  NAPC  NI#M    NLCC   NIAD    NOAD   NITD   NHTD  NI1D  NI2D  NI3D  NI4D  NI5D  NI6D  NI7D  NI8D  NI9D  NI10  NH1D  NH2D  NH3D  NH4D  NH5D  NH6D  NH7D  NH8D  NH9D  NH10    NMNC    NITC    NDNC    NIMC    AMLC
 1999 232     0     0     0     0.0   54.9   16645   32.6   22.3   6.6   5.4   5.2   4.7   2.6   0.0   0.1   0.1   0.0   0.0   0.0   1.2   1.5   1.4   1.4  1.50  1.46  1.45  0.00  0.00    0.68    2.30    0.00    0.00    0.00
 1999 233     1     0     0     0.0   55.6   16645   33.9   21.7   6.6   5.7   5.3   4.8   2.7   0.0   0.1   0.1   0.0   0.0   0.1   1.0   1.4   1.4   1.4  1.51  1.43  1.41  0.00  0.00    1.37    3.63    0.00    0.00    0.00
 1999 234     2     0     0     0.0   56.3   16644   35.2   21.1   6.8   6.0   5.5   4.9   2.8   0.1   0.2   0.2   0.0   0.0   0.1   0.9   1.4   1.3   1.3  1.51  1.39  1.36  0.00  0.00    2.08    4.96    0.00    0.00    0.00
 1999 235     3     0     0     0.0   57.0   16643   36.4   20.5   6.9   6.2   5.6   5.0   2.8   0.1   0.2   0.2   0.0   0.0   0.1   0.8   1.4   1.2   1.3  1.51  1.36  1.32  0.00  0.00    2.74    6.15    0.00    0.00    0.00
 1999 236     4     0     0     0.0   57.6   16643   37.5   20.1   7.0   6.4   5.8   5.1   2.9   0.1   0.2   0.3   0.0   0.0   0.1   0.7   1.3   1.2   1.2  1.52  1.33  1.28  0.00  0.00    3.37    7.21    0.00    0.00    0.00
 1999 237     5     0     0     0.0   58.2   16642   38.5   19.7   7.1   6.5   5.9   5.2   3.0   0.1   0.3   0.3   0.0   0.0   0.1   0.7   1.3   1.2   1.2  1.52  1.29  1.24  0.00  0.00    3.96    8.20    0.00    0.00    0.00
 1999 238     6     0     0     0.0   58.7   16642   39.4   19.4   7.2   6.6   6.0   5.3   3.0   0.1   0.3   0.3   0.0   0.0   0.1   0.7   1.3   1.1   1.2  1.52  1.27  1.20  0.00  0.00    4.51    9.09    0.00    0.00    0.00
 1999 239     7     0     0     0.0   59.2   16641   40.2   19.1   7.3   6.7   6.1   5.3   3.1   0.2   0.4   0.4   0.0   0.0   0.1   0.6   1.3   1.1   1.1  1.52  1.24  1.16  0.00  0.00    5.01    9.91    0.00    0.00    0.00
 1999 240     8     0     0     0.0   59.7   16641   41.0   18.8   7.4   6.8   6.2   5.4   3.1   0.2   0.4   0.4   0.0   0.0   0.1   0.6   1.3   1.1   1.1  1.53  1.21  1.13  0.00  0.00    5.51   10.70    0.00    0.00    0.00
 1999 241     9     0     0     0.0   60.2   16640   41.7   18.5   7.5   6.9   6.3   5.4   3.2   0.2   0.4   0.5   0.0   0.0   0.1   0.6   1.3   1.0   1.1  1.53  1.19  1.10  0.00  0.00    6.00   11.47    0.00    0.00    0.00
 1999 242    10     0     0     0.0   60.7   16640   42.5   18.2   7.6   7.0   6.4   5.5   3.2   0.2   0.5   0.5   0.0   0.0   0.1   0.6   1.3   1.0   1.0  1.53  1.16  1.07  0.00  0.00    6.48   12.21    0.00    0.00    0.00
 1999 243    11     0     0     0.0   61.2   16639   43.3   18.0   7.7   7.1   6.5   5.6   3.3   0.2   0.5   0.5   0.0   0.0   0.1   0.6   1.2   1.0   1.0  1.53  1.14  1.03  0.00  0.00    7.01   12.99    0.00    0.00    0.00
 1999 244    12     0     0     0.0   61.8   16638   44.1   17.7   7.8   7.2   6.6   5.6   3.3   0.2   0.5   0.6   0.0   0.0   0.1   0.6   1.2   0.9   1.0  1.54  1.11  1.00  0.00  0.00    7.58   13.80    0.00    0.00    0.00
 1999 245    13     0     0     0.0   62.4   16638   44.9   17.5   7.9   7.3   6.8   5.7   3.4   0.3   0.6   0.6   0.0   0.0   0.1   0.5   1.2   0.9   1.0  1.54  1.09  0.98  0.00  0.00    8.14   14.61    0.00    0.00    0.00
 1999 246    14     0     0     0.0   63.0   16637   45.7   17.3   7.2   7.8   6.9   5.7   3.4   0.3   0.6   0.6   0.0   0.0   0.1   0.5   1.2   0.9   0.9  1.54  1.07  0.95  0.00  0.00    8.75   15.44    0.00    0.00    0.00
 1999 247    15     0     0     0.0   63.6   16637   46.5   17.1   6.6   8.3   7.0   5.8   3.5   0.3   0.6   0.7   0.0   0.0   0.2   0.5   1.2   0.9   0.9  1.54  1.05  0.92  0.00  0.00    9.34   16.20    0.00    0.00    0.00
 1999 248    16     0     0     0.0   64.0   16636   47.2   16.7   6.1   8.6   7.1   5.9   3.5   0.3   0.7   0.7   0.0   0.0   0.1   0.5   1.2   0.8   0.9  1.55  1.02  0.89  0.00  0.00    9.76   16.98    0.00    0.00    0.00
 1999 249    17     0     0     0.0   64.4   16636   47.9   16.4   4.6   9.5   7.2   5.9   3.6   0.3   0.7   0.7   0.0   0.0   0.1   0.5   1.1   0.8   0.9  1.55  1.00  0.87  0.00  0.00   10.17   17.68    0.00    0.00    0.00
 1999 250    18     0     0     0.0   64.8   16635   48.6   16.2   3.2   8.8   8.4   6.0   3.6   0.3   0.7   0.8   0.0   0.0   0.1   0.5   1.1   0.8   0.9  1.55  0.98  0.84  0.00  0.00   10.61   18.38    0.00    0.00    0.00
 1999 251    19     0     0     0.0   65.3   16635   49.2   16.1   3.2   8.6   8.6   6.0   3.6   0.4   0.8   0.8   0.0   0.0   0.2   0.6   1.1   0.8   0.8  1.55  0.97  0.82  0.00  0.00   11.10   18.94    0.00    0.00    0.00
 1999 252    20     0     0     0.0   65.8   16634   49.9   15.9   3.3   8.6   8.8   6.1   3.7   0.4   0.8   0.8   0.0   0.0   0.1   0.5   1.1   0.7   0.8  1.56  0.95  0.80  0.00  0.00   11.61   19.68    0.00    0.00    0.00
 1999 253    21     0     0     0.0   66.3   16634   50.6   15.7   3.4   8.6   8.9   6.1   3.7   0.4   0.8   0.8   0.0   0.0   0.1   0.5   1.1   0.7   0.8  1.56  0.93  0.77  0.00  0.00   12.13   20.39    0.00    0.00    0.00
 1999 254    22     0     0     0.0   66.7   16633   51.2   15.5   3.5   8.7   8.9   6.2   3.7   0.4   0.9   0.9   0.0   0.0   0.1   0.5   1.1   0.7   0.8  1.56  0.91  0.75  0.00  0.00   12.63   21.06    0.00    0.00    0.00
 1999 255    23     0     0     0.0   67.2   16633   51.8   15.4   3.6   8.7   9.0   6.3   3.8   0.4   0.9   0.9   0.0   0.0   0.1   0.5   1.1   0.7   0.8  1.56  0.89  0.73  0.00  0.00   13.10   21.69    0.00    0.00    0.00
 1999 256    24     0     0     0.0   67.6   16632   52.4   15.2   3.2   9.1   9.1   6.3   3.8   0.4   0.9   0.9   0.0   0.0   0.1   0.5   1.1   0.7   0.8  1.57  0.88  0.71  0.00  0.00   13.58   22.31    0.00    0.00    0.00
 1999 257    25     0     0     0.0   68.1   16632   53.0   15.1   3.2   9.1   9.2   6.4   3.8   0.5   0.9   0.9   0.0   0.0   0.1   0.5   1.1   0.6   0.7  1.57  0.86  0.69  0.00  0.00   14.08   22.95    0.00    0.00    0.00
 1999 258    26     0     0     0.0   68.6   16631   53.7   14.9   3.3   9.1   9.3   6.4   3.9   0.5   1.0   1.0   0.0   0.0   0.1   0.5   1.1   0.6   0.7  1.57  0.85  0.67  0.00  0.00   14.58   23.58    0.00    0.00    0.00
 1999 259    27     0     0     0.0   69.1   16631   54.3   14.8   3.4   9.2   9.4   6.5   3.9   0.5   1.0   1.0   0.0   0.0   0.1   0.5   1.1   0.6   0.7  1.57  0.83  0.66  0.00  0.00   15.09   24.22    0.00    0.00    0.00
 1999 260    28     0     0     0.0   69.6   16630   54.9   14.7   3.5   9.3   9.5   6.5   3.9   0.5   1.0   1.0   0.0   0.0   0.1   0.5   1.0   0.6   0.7  1.57  0.82  0.64  0.00  0.00   15.63   24.89    0.00    0.00    0.00
 1999 261    29     0     0     0.0   70.1   16630   55.6   14.5   3.6   9.4   9.5   6.6   4.0   0.5   1.0   1.0   0.0   0.0   0.1   0.5   1.0   0.6   0.7  1.58  0.80  0.62  0.00  0.00   16.19   25.57    0.00    0.00    0.00
 1999 262    30     0     0     0.0   70.6   16629   56.2   14.4   3.8   9.5   9.6   6.6   4.0   0.6   1.1   1.0   0.0   0.0   0.1   0.5   1.0   0.6   0.7  1.58  0.79  0.60  0.00  0.00   16.76   26.27    0.00    0.00    0.00
 1999 263    31     0     0     0.0   71.1   16629   56.9   14.3   3.9   9.6   9.7   6.7   4.0   0.6   1.1   1.1   0.0   0.0   0.1   0.5   1.0   0.6   0.7  1.58  0.78  0.59  0.00  0.00   17.34   26.97    0.00    0.00    0.00
 1999 264    32     0     0     0.0   71.7   16628   57.5   14.1   4.0   9.6   9.8   6.7   4.1   0.6   1.1   1.1   0.0   0.0   0.1   0.5   1.0   0.5   0.7  1.58  0.76  0.57  0.00  0.00   17.94   27.70    0.00    0.00    0.00
 1999 265    33     0     0     0.0   72.2   16628   58.2   14.0   4.2   9.7   9.9   6.8   4.1   0.6   1.1   1.1   0.0   0.0   0.1   0.4   1.0   0.5   0.6  1.58  0.75  0.56  0.00  0.00   18.54   28.41    0.00    0.00    0.00
 1999 266    34     0     0     0.0   72.7   16627   58.8   13.9   4.3   9.8  10.0   6.8   4.1   0.6   1.2   1.1   0.0   0.0   0.1   0.4   1.0   0.5   0.6  1.58  0.74  0.54  0.00  0.00   19.12   29.09    0.00    0.00    0.00
 1999 267    35     0     0     0.0   73.2   16626   59.4   13.8   4.5   9.9  10.0   6.9   4.2   0.6   1.2   1.1   0.0   0.0   0.1   0.4   1.0   0.5   0.6  1.58  0.72  0.53  0.00  0.00   19.66   29.73    0.00    0.00    0.00
 1999 268    36     0     0     0.0   73.6   16626   59.9   13.7   4.6   9.9  10.1   6.9   4.2   0.7   1.2   1.2   0.0   0.0   0.1   0.4   1.0   0.5   0.6  1.58  0.71  0.52  0.00  0.00   20.20   30.36    0.00    0.00    0.00
 1999 269    37     0     0     0.0   74.1   16625   60.5   13.6   4.8  10.0  10.2   7.0   4.2   0.7   1.2   1.2   0.0   0.0   0.1   0.4   1.0   0.5   0.6  1.58  0.70  0.50  0.00  0.00   20.72   30.96    0.00    0.00    0.00
 1999 270    38     0     0     0.0   74.6   16625   61.0   13.5   4.9  10.0  10.3   7.0   4.3   0.7   1.2   1.2   0.0   0.0   0.1   0.4   1.0   0.5   0.6  1.59  0.69  0.49  0.00  0.00   21.21   31.53    0.00    0.00    0.00
 1999 271    39     0     0     0.0   74.9   16624   61.5   13.4   5.0  10.0  10.3   7.0   4.3   0.7   1.3   1.2   0.0   0.0   0.1   0.4   1.0   0.5   0.6  1.59  0.68  0.48  0.00  0.00   21.70   32.09    0.00    0.00    0.00
 1999 272    40     0     0     0.0   75.3   16624   62.0   13.3   5.2  10.1  10.4   7.1   4.3   0.7   1.3   1.2   0.0   0.0   0.1   0.4   1.0   0.5   0.6  1.59  0.67  0.47  0.00  0.00   22.18   32.65    0.00    0.00    0.00
 1999 273    41     0     0     0.0   75.7   16623   62.4   13.3   5.3  10.1  10.5   7.1   4.3   0.7   1.3   1.2   0.0   0.0   0.1   0.4   1.0   0.5   0.6  1.59  0.66  0.46  0.00  0.00   22.64   33.18    0.00    0.00    0.00
 1999 274    42     0     0     0.0   76.1   16623   62.9   13.2   3.8  11.0  10.5   7.1   4.4   0.8   1.3   1.3   0.0   0.0   0.1   0.4   1.0   0.5   0.6  1.59  0.65  0.44  0.00  0.00   23.12   33.71    0.00    0.00    0.00
 1999 275    43     0     0     0.0   76.5   16622   63.3   13.2   3.7  10.9  10.7   7.2   4.4   0.8   1.3   1.3   0.0   0.0   0.2   0.4   1.0   0.5   0.6  1.59  0.64  0.43  0.00  0.00   23.61   34.20    0.00    0.00    0.00
 1999 276    44     0     0     0.0   76.9   16622   63.8   13.1   3.8  10.9  10.8   7.2   4.4   0.8   1.4   1.3   0.0   0.0   0.1   0.4   1.0   0.5   0.6  1.59  0.63  0.42  0.00  0.00   24.08   34.72    0.00    0.00    0.00
 1999 277    45     0     0     0.0   77.3   16622   64.2   13.1   3.9  10.8  10.9   7.2   4.4   0.8   1.4   1.3   0.0   0.0   0.1   0.4   1.0   0.5   0.6  1.59  0.62  0.42  0.00  0.00   24.52   35.21    0.00    0.00    0.00
 1999 278    46     0     0     0.0   77.6   16621   64.6   13.0   3.9  10.9  11.0   7.3   4.4   0.8   1.4   1.3   0.0   0.0   0.1   0.4   1.0   0.5   0.6  1.59  0.62  0.41  0.00  0.00   24.93   35.67    0.00    0.00    0.00
 1999 279    47     0     0     0.0   77.9   16621   65.0   13.0   4.0  10.9  11.0   7.3   4.5   0.8   1.4   1.3   0.0   0.0   0.1   0.4   1.0   0.5   0.6  1.59  0.61  0.40  0.00  0.00   25.31   36.09    0.00    0.00    0.00
 1999 280    48     0     0     0.0   78.2   16620   65.3   12.9   3.3  11.3  11.1   7.3   4.5   0.9   1.4   1.3   0.0   0.0   0.1   0.4   1.0   0.5   0.6  1.59  0.60  0.39  0.00  0.00   25.72   36.54    0.00    0.00    0.00
 1999 281    49     0     0     0.0   78.6   16620   65.7   12.9   3.3  11.2  11.2   7.3   4.5   0.9   1.4   1.3   0.0   0.0   0.1   0.4   1.0   0.5   0.6  1.59  0.59  0.38  0.00  0.00   26.14   36.99    0.00    0.00    0.00
 1999 282    50     0     0     0.0   78.9   16619   66.1   12.8   3.3  11.1  11.3   7.4   4.5   0.9   1.5   1.4   0.0   0.0   0.1   0.5   1.0   0.5   0.6  1.59  0.59  0.37  0.00  0.00   26.59   37.46    0.00    0.00    0.00
 1999 283    51     0     0     0.0   79.2   16619   66.4   12.8   3.4  11.1  11.4   7.4   4.5   0.9   1.5   1.4   0.0   0.0   0.1   0.5   1.0   0.5   0.6  1.59  0.58  0.37  0.00  0.00   27.06   37.95    0.00    0.00    0.00
 1999 284    52     0     0     0.0   79.5   16618   66.8   12.8   3.5  11.1  11.5   7.4   4.5   0.9   1.5   1.4   0.0   0.0   0.1   0.5   1.0   0.5   0.5  1.59  0.57  0.36  0.00  0.00   27.56   38.47    0.00    0.00    0.00
 1999 285    53     0     0     0.0   79.8   16618   67.1   12.7   1.6   8.9  13.2   7.9   4.6   0.9   1.5   1.4   0.0   0.0   0.1   0.5   1.0   0.5   0.5  1.59  0.56  0.35  0.00  0.00   28.07   39.00    0.00    0.00    0.00
 1999 286    54     0     0     0.0   80.2   16617   67.3   13.0   0.9   6.7  11.8   9.1   5.9   1.0   1.5   1.4   0.0   0.0   0.2   0.6   1.0   0.5   0.5  1.59  0.56  0.34  0.00  0.00   28.62   39.29    0.00    0.00    0.00
 1999 287    55     0     0     0.0   80.6   16617   67.4   13.2   1.1   6.6  11.6   8.8   6.0   1.2   1.5   1.4   0.0   0.0   0.1   0.6   1.1   0.5   0.6  1.58  0.55  0.34  0.00  0.00   29.17   39.57    0.00    0.00    0.00
 1999 288    56     0     0     0.2   80.9   16616   67.4   13.5   1.2   6.5  11.4   8.6   6.0   1.3   1.5   1.4   0.0   0.0   0.1   0.7   1.2   0.5   0.6  1.60  0.54  0.33  0.00  0.00   29.73   39.80    0.00    0.00    0.00
 1999 289    57     0     0     0.3   81.2   16616   67.5   13.7   1.4   6.5  11.3   8.5   6.0   1.4   1.6   1.4   0.0   0.0   0.1   0.7   1.3   0.6   0.6  1.61  0.54  0.32  0.00  0.00   30.29   40.16    0.00    0.00    0.00
 1999 290    58     0     0     0.3   81.4   16615   67.6   13.8   1.7   6.5  11.3   8.5   6.0   1.4   1.6   1.5   0.0   0.0   0.1   0.6   1.3   0.6   0.6  1.61  0.53  0.32  0.00  0.00   30.84   40.57    0.00    0.00    0.00
 1999 291    59     0     0     0.3   81.5   16615   67.8   13.7   2.0   6.5  11.3   8.4   6.0   1.4   1.6   1.5   0.0   0.0   0.1   0.6   1.3   0.6   0.6  1.60  0.53  0.31  0.00  0.00   31.42   41.14    0.01    0.00    0.00
 1999 292    60     0     0     0.3   81.7   16614   68.0   13.7   2.3   6.6  11.2   8.4   6.0   1.5   1.6   1.5   0.0   0.0   0.1   0.6   1.2   0.6   0.7  1.60  0.52  0.30  0.00  0.00   32.05   41.75    0.02    0.00    0.00
 1999 293    61     0     0     0.3   81.9   16613   68.3   13.5   2.5   6.6  11.2   8.4   6.0   1.5   1.6   1.5   0.0   0.0   0.1   0.5   1.2   0.6   0.7  1.59  0.51  0.30  0.00  0.00   32.73   42.47    0.02    0.00    0.00
 1999 294    62     0     0     0.3   82.0   16613   68.6   13.4   2.8   6.7  11.2   8.4   6.0   1.5   1.6   1.5   0.0   0.0   0.1   0.5   1.2   0.6   0.7  1.59  0.51  0.29  0.00  0.00   33.45   43.20    0.03    0.00    0.00
 1999 295    63     0     0     0.3   82.1   16612   68.8   13.3   3.1   6.7  11.2   8.4   6.0   1.5   1.6   1.5   0.0   0.0   0.1   0.5   1.1   0.6   0.7  1.58  0.50  0.29  0.00  0.00   34.19   43.96    0.03    0.00    0.00
 1999 296    64     0     0     0.3   82.2   16611   69.0   13.2   3.3   6.8  11.2   8.4   6.0   1.5   1.6   1.5   0.0   0.0   0.1   0.5   1.1   0.6   0.7  1.58  0.50  0.28  0.00  0.00   34.91   44.69    0.03    0.00    0.00
 1999 297    65     0     0     0.3   82.3   16610   69.2   13.1   3.6   6.8  11.1   8.4   6.0   1.5   1.6   1.5   0.0   0.0   0.1   0.5   1.1   0.6   0.7  1.57  0.49  0.28  0.00  0.00   35.62   45.44    0.03    0.00    0.00
 1999 298    66     0     0     0.3   82.3   16610   69.4   13.0   3.8   6.8  11.1   8.4   6.0   1.5   1.7   1.5   0.0   0.0   0.1   0.5   1.1   0.6   0.7  1.56  0.49  0.27  0.00  0.00   36.31   46.16    0.03    0.00    0.00
 1999 299    67     0     0     0.3   82.2   16609   69.4   12.8   4.0   6.9  11.0   8.4   6.0   1.5   1.7   1.5   0.0   0.0   0.1   0.5   1.1   0.6   0.7  1.56  0.48  0.27  0.00  0.00   36.97   46.84    0.03    0.00    0.00
 1999 300    68     0     0     0.3   81.7   16608   69.0   12.7   4.2   6.8  10.9   8.3   5.9   1.5   1.7   1.5   0.0   0.0   0.1   0.5   1.0   0.6   0.7  1.54  0.48  0.26  0.00  0.00   37.61   47.50    0.03    0.00    0.00
 1999 301    69     0     0     0.3   80.9   16608   68.5   12.5   4.3   6.8  10.7   8.2   5.9   1.5   1.7   1.5   0.0   0.0   0.1   0.5   1.0   0.6   0.6  1.52  0.48  0.26  0.00  0.00   38.26   48.16    0.03    0.00    0.00
 1999 302    70     0     0     0.3   80.2   16607   67.9   12.3   4.5   6.7  10.5   8.2   5.8   1.5   1.7   1.5   0.0   0.0   0.1   0.5   1.0   0.5   0.6  1.50  0.47  0.25  0.00  0.00   38.94   48.85    0.03    0.00    0.00
 1999 303    71     0     0     0.3   79.1   16606   67.1   12.0   4.6   6.7  10.2   8.0   5.8   1.5   1.7   1.5   0.0   0.0   0.1   0.5   0.9   0.5   0.6  1.48  0.47  0.25  0.00  0.00   39.65   49.56    0.03    0.00    0.00
 1999 304    72     0     0     0.3   78.4   16606   66.5   11.8   4.8   6.6  10.0   8.0   5.7   1.5   1.7   1.5   0.0   0.0   0.1   0.5   0.9   0.5   0.6  1.46  0.47  0.25  0.00  0.00   40.36   50.26    0.03    0.00    0.00
 1999 305    73     0     0     0.3   77.0   16605   65.5   11.6   4.9   6.6   9.7   7.8   5.6   1.5   1.6   1.5   0.0   0.0   0.1   0.4   0.9   0.5   0.6  1.43  0.46  0.24  0.00  0.00   41.07   50.95    0.03    0.00    0.00
 1999 306    74     0     0     0.3   76.3   16604   64.9   11.4   5.0   6.5   9.5   7.7   5.6   1.5   1.6   1.5   0.0   0.0   0.1   0.4   0.9   0.5   0.6  1.41  0.46  0.24  0.00  0.00   41.76   51.61    0.03    0.00    0.00
 1999 307    75     0     0     0.3   74.2   16604   63.1   11.1   5.1   6.4   9.1   7.5   5.4   1.5   1.6   1.5   0.0   0.0   0.1   0.4   0.8   0.5   0.5  1.37  0.46  0.23  0.00  0.00   42.44   52.25    0.03    0.00    0.00
 1999 308    76     0     0     0.3   72.0   16603   61.2   10.8   5.1   6.2   8.6   7.3   5.2   1.4   1.6   1.5   0.0   0.0   0.1   0.4   0.8   0.5   0.5  1.33  0.45  0.23  0.00  0.00   43.08   52.85    0.03    0.00    0.00
 1999 309    77     0     0     0.3   71.6   16602   60.9   10.7   5.3   6.2   8.5   7.3   5.2   1.4   1.6   1.5   0.0   0.0   0.1   0.4   0.8   0.5   0.5  1.32  0.45  0.23  0.00  0.00   43.70   53.40    0.03    0.00    0.00
 1999 310    78     0     0     0.3   69.1   16602   58.7   10.4   5.3   6.0   8.0   7.0   5.0   1.4   1.6   1.5   0.0   0.0   0.1   0.4   0.7   0.5   0.5  1.27  0.45  0.22  0.00  0.00   44.29   53.94    0.03    0.00    0.00
 1999 311    79     0     0     0.3   65.9   16601   55.9   10.0   5.2   5.7   7.4   6.7   4.8   1.3   1.5   1.5   0.0   0.0   0.1   0.4   0.7   0.5   0.5  1.20  0.44  0.22  0.00  0.00   44.88   54.48    0.03    0.00    0.00
 1999 312    80     0     0     0.3   64.0   16601   54.2    9.8   5.2   5.6   7.0   6.5   4.6   1.3   1.5   1.4   0.0   0.0   0.1   0.4   0.7   0.5   0.5  1.17  0.44  0.22  0.00  0.00   45.45   54.98    0.03    0.00    0.00
 1999 313    81     0     0     0.3   61.8   16600   52.2    9.6   5.2   5.4   6.6   6.3   4.4   1.2   1.4   1.4   0.0   0.0   0.1   0.4   0.6   0.5   0.5  1.12  0.44  0.22  0.00  0.00   46.00   55.46    0.03    0.00    0.00
 1999 314    82     0     0     0.3   59.6   16600   50.3    9.3   5.2   5.2   6.2   6.1   4.2   1.2   1.4   1.4   0.0   0.0   0.1   0.4   0.6   0.5   0.5  1.07  0.44  0.21  0.00  0.00   46.54   55.93    0.03    0.00    0.00
 1999 315    83     0     0     0.3   57.1   16599   48.0    9.1   5.1   5.0   5.8   5.8   4.0   1.1   1.3   1.4   0.0   0.0   0.1   0.4   0.6   0.5   0.5  1.02  0.43  0.21  0.00  0.00   47.06   56.39    0.03    0.00    0.00
 1999 316    84     0     0     0.3   53.2   16598   44.6    8.6   5.0   4.7   5.3   5.4   3.7   1.1   1.3   1.3   0.0   0.0   0.1   0.4   0.5   0.5   0.5  0.94  0.43  0.21  0.00  0.00   47.56   56.82    0.03    0.00    0.00
 1999 317    85     0     0     0.3   48.8   16598   40.6    8.2   4.9   4.3   4.6   4.9   3.3   0.9   1.2   1.3   0.0   0.0   0.1   0.4   0.5   0.5   0.5  0.84  0.43  0.20  0.00  0.00   48.07   57.27    0.03    0.00    0.00
 1999 318    86     0     0     0.3   44.4   16597   36.7    7.7   4.8   3.9   4.1   4.5   2.9   0.8   1.1   1.2   0.0   0.0   0.1   0.4   0.5   0.5   0.5  0.74  0.43  0.20  0.00  0.00   48.61   57.74    0.03    0.00    0.00
 1999 319    87     0     0     0.3   40.5   16597   33.2    7.4   4.7   3.6   3.6   4.0   2.6   0.7   1.0   1.1   0.0   0.0   0.1   0.3   0.5   0.5   0.5  0.65  0.42  0.20  0.00  0.00   49.17   58.24    0.03    0.00    0.00
 1999 320    88     0     0     0.3   37.1   16596   30.1    7.0   4.6   3.4   3.2   3.6   2.3   0.6   0.9   1.1   0.0   0.0   0.1   0.3   0.5   0.5   0.5  0.58  0.42  0.20  0.00  0.00   49.75   58.76    0.03    0.00    0.00
 1999 321    89     0     0     0.3   34.2   16596   27.5    6.7   4.6   3.1   2.9   3.3   2.0   0.6   0.8   1.0   0.0   0.0   0.1   0.3   0.5   0.5   0.5  0.51  0.42  0.20  0.00  0.00   50.33   59.29    0.03    0.00    0.00
 1999 322    90     0     0     0.3   31.9   16595   25.2    6.7   4.6   3.0   2.6   3.0   1.8   0.5   0.7   1.0   0.0   0.0   0.1   0.3   0.5   0.5   0.5  0.52  0.42  0.19  0.00  0.00   50.89   59.80    0.03    0.00    0.00
 1999 323    91     0     0     0.3   30.1   16595   23.5    6.6   4.6   2.8   2.4   2.7   1.6   0.5   0.7   0.9   0.0   0.0   0.1   0.3   0.5   0.5   0.5  0.51  0.42  0.19  0.00  0.00   51.44   60.31    0.03    0.00    0.00
 1999 324    92     0     0     0.3   28.6   16594   22.0    6.6   4.7   2.7   2.2   2.4   1.4   0.5   0.6   0.8   0.0   0.0   0.1   0.3   0.5   0.5   0.5  0.51  0.41  0.19  0.00  0.00   51.97   60.81    0.03    0.00    0.00
 1999 325    93     0     0     0.3   27.2   16594   20.7    6.5   4.7   2.5   2.0   2.2   1.3   0.5   0.5   0.8   0.0   0.0   0.1   0.3   0.5   0.5   0.5  0.51  0.41  0.19  0.00  0.00   52.49   61.30    0.03    0.00    0.00
 1999 326    94     0     0     0.3   26.2   16593   19.7    6.5   4.8   2.5   1.9   2.1   1.2   0.5   0.5   0.7   0.0   0.0   0.1   0.2   0.5   0.5   0.5  0.51  0.41  0.19  0.00  0.00   52.98   61.77    0.03    0.00    0.00
 1999 327    95     0     0     0.3   25.4   16593   19.0    6.4   4.9   2.4   1.8   1.9   1.1   0.5   0.5   0.7   0.0   0.0   0.1   0.2   0.5   0.5   0.5  0.51  0.41  0.18  0.00  0.00   53.45   62.23    0.03    0.00    0.00
 1999 328    96     0     0     0.3   24.5   16592   18.1    6.4   5.0   2.3   1.7   1.8   1.0   0.5   0.5   0.7   0.0   0.0   0.1   0.2   0.5   0.5   0.5  0.51  0.40  0.18  0.00  0.00   53.90   62.67    0.03    0.00    0.00
 1999 329    97     0     0     0.3   23.8   16592   17.5    6.3   3.5   3.1   1.7   1.7   0.9   0.5   0.5   0.6   0.0   0.0   0.1   0.2   0.5   0.4   0.5  0.51  0.40  0.18  0.00  0.00   54.33   63.10    0.03    0.00    0.00
 1999 330    98     0     0     0.3   20.5   16591   14.1    6.4   0.3   1.9   1.6   1.6   0.9   0.5   0.5   0.6   0.0   0.0   0.1   0.3   0.5   0.4   0.5  0.51  0.40  0.18  0.00  0.00   54.84   63.52    0.03    0.00    0.00
 1999 331    99     0     0     0.3   19.1   16591   12.7    6.4   0.4   1.0   1.6   1.5   0.8   0.5   0.5   0.6   0.0   0.0   0.1   0.3   0.5   0.4   0.5  0.51  0.39  0.18  0.00  0.00   55.34   63.98    0.03    0.00    0.00
 1999 332   100     0     0     0.3   18.5   16590   12.1    6.4   0.6   0.7   1.5   1.4   0.7   0.5   0.5   0.5   0.0   0.0   0.1   0.3   0.5   0.4   0.5  0.52  0.39  0.17  0.00  0.00   55.83   64.45    0.03    0.00    0.00
 1999 333   101     0     0     0.3   17.9   16590   11.6    6.3   0.7   0.6   1.5   1.3   0.7   0.5   0.5   0.5   0.0   0.0   0.1   0.3   0.5   0.4   0.5  0.51  0.39  0.17  0.00  0.00   56.30   64.94    0.03    0.00    0.00
 1999 334   102     0     0     0.3   17.8   16589   11.5    6.3   0.8   0.7   1.5   1.2   0.7   0.5   0.5   0.5   0.0   0.0   0.1   0.3   0.5   0.4   0.4  0.52  0.38  0.17  0.00  0.00   56.75   65.43    0.03    0.00    0.00
 1999 335   103     0     0     0.3   17.7   16589   11.6    6.1   0.9   0.7   1.5   1.2   0.6   0.5   0.5   0.5   0.0   0.0   0.1   0.3   0.5   0.4   0.4  0.51  0.38  0.17  0.00  0.00   57.18   65.93    0.03    0.00    0.00
 1999 336   104     0     0     0.3   17.8   16589   11.7    6.1   0.9   0.8   1.5   1.2   0.6   0.5   0.5   0.5   0.0   0.0   0.1   0.2   0.5   0.4   0.4  0.52  0.38  0.17  0.00  0.00   57.62   66.43    0.03    0.00    0.00
 1999 337   105     0     0     0.3   17.4   16588   11.3    6.1   0.2   0.9   1.5   1.1   0.6   0.5   0.5   0.5   0.0   0.0   0.2   0.2   0.5   0.4   0.4  0.51  0.37  0.16  0.00  0.00   58.10   66.85    0.03    0.00    0.00
 1999 338   106     0     0     0.3   16.9   16588   10.9    6.0   0.6   0.6   1.5   1.1   0.6   0.5   0.5   0.5   0.0   0.0   0.0   0.3   0.5   0.4   0.4  0.52  0.37  0.16  0.00  0.00   58.60   67.43    0.03    0.00    0.00
 1999 339   107     0     0     0.3   16.8   16587   10.8    5.9   0.6   0.5   1.5   1.1   0.6   0.5   0.5   0.5   0.0   0.0   0.1   0.3   0.5   0.4   0.4  0.51  0.37  0.16  0.00  0.00   59.06   67.86    0.03    0.00    0.00
 1999 340   108     0     0     0.3   16.7   16587   10.8    5.9   0.4   0.6   1.5   1.0   0.6   0.5   0.5   0.5   0.0   0.0   0.1   0.3   0.5   0.4   0.4  0.52  0.36  0.16  0.00  0.00   59.49   68.28    0.03    0.00    0.00
 1999 341   109     0     0     0.3   16.6   16586   10.7    5.8   0.5   0.6   1.5   1.0   0.5   0.5   0.5   0.5   0.0   0.0   0.1   0.3   0.5   0.4   0.4  0.51  0.36  0.16  0.00  0.00   59.86   68.69    0.03    0.00    0.00
 1999 342   110     0     0     0.3   16.6   16586   10.8    5.8   0.6   0.6   1.5   1.0   0.5   0.5   0.5   0.5   0.0   0.0   0.1   0.3   0.5   0.4   0.4  0.51  0.36  0.15  0.00  0.00   60.21   69.06    0.03    0.00    0.00
 1999 343   111     0     0     0.3   16.6   16586   10.8    5.7   0.7   0.6   1.5   1.0   0.5   0.5   0.5   0.5   0.0   0.0   0.1   0.3   0.5   0.3   0.4  0.51  0.35  0.15  0.00  0.00   60.54   69.43    0.03    0.00    0.00
 1999 344   112     0     0     0.3   16.7   16585   11.0    5.7   0.8   0.6   1.5   1.0   0.5   0.5   0.5   0.5   0.0   0.0   0.0   0.2   0.4   0.3   0.4  0.51  0.35  0.15  0.00  0.00   60.84   69.78    0.03    0.00    0.00
 1999 345   113     0     0     0.3   16.5   16585   11.0    5.6   0.8   0.7   1.6   0.9   0.5   0.5   0.5   0.5   0.0   0.0   0.0   0.2   0.4   0.3   0.4  0.51  0.35  0.15  0.00  0.00   61.14   70.13    0.03    0.00    0.00
 1999 346   114     0     0     0.3   16.7   16585   11.2    5.5   0.9   0.7   1.6   1.0   0.5   0.5   0.5   0.5   0.0   0.0   0.0   0.2   0.4   0.3   0.4  0.51  0.34  0.15  0.00  0.00   61.44   70.49    0.03    0.00    0.00
 1999 347   115     0     0     0.3   16.6   16585   11.1    5.5   0.2   0.8   1.6   1.0   0.5   0.5   0.5   0.5   0.0   0.0   0.2   0.2   0.4   0.3   0.4  0.51  0.34  0.14  0.00  0.00   61.83   70.85    0.03    0.00    0.00
 1999 348   116     0     0     0.3   16.8   16584   11.3    5.4   0.5   0.8   1.7   1.0   0.5   0.5   0.5   0.5   0.0   0.0   0.1   0.2   0.4   0.3   0.4  0.51  0.33  0.14  0.00  0.00   62.23   71.32    0.03    0.00    0.00
 1999 349   117     0     0     0.3   16.9   16584   11.5    5.3   0.6   0.8   1.7   1.0   0.5   0.5   0.5   0.5   0.0   0.0   0.1   0.2   0.4   0.3   0.3  0.51  0.33  0.14  0.00  0.00   62.59   71.72    0.03    0.00    0.00
 1999 350   118     0     0     0.3   16.9   16584   11.6    5.3   0.7   0.9   1.8   1.0   0.6   0.5   0.5   0.5   0.0   0.0   0.1   0.2   0.4   0.3   0.3  0.51  0.33  0.14  0.00  0.00   62.92   72.10    0.03    0.00    0.00
 1999 351   119     0     0     0.3   17.1   16583   11.9    5.2   0.8   0.9   1.8   1.0   0.6   0.5   0.5   0.5   0.0   0.0   0.0   0.2   0.4   0.3   0.3  0.51  0.32  0.14  0.00  0.00   63.23   72.46    0.03    0.00    0.00
 1999 352   120     0     0     0.3   17.3   16583   12.1    5.1   0.9   0.9   1.8   1.0   0.6   0.5   0.5   0.5   0.0   0.0   0.0   0.2   0.4   0.3   0.3  0.50  0.32  0.14  0.00  0.00   63.54   72.82    0.03    0.00    0.00
 1999 353   121     0     0     0.3   17.4   16583   12.3    5.1   0.9   1.0   1.9   1.0   0.6   0.5   0.5   0.5   0.0   0.0   0.0   0.2   0.4   0.3   0.3  0.51  0.31  0.13  0.00  0.00   63.85   73.19    0.03    0.00    0.00
 1999 354   122     0     0     0.3   17.6   16582   12.6    5.0   1.0   1.1   2.0   1.0   0.6   0.5   0.5   0.5   0.0   0.0   0.0   0.2   0.4   0.3   0.3  0.51  0.31  0.13  0.00  0.00   64.15   73.55    0.03    0.00    0.00
 1999 355   123     0     0     0.3   17.8   16582   12.9    4.9   1.0   1.1   2.0   1.1   0.6   0.5   0.5   0.5   0.0   0.0   0.0   0.1   0.3   0.3   0.3  0.50  0.30  0.13  0.00  0.00   64.45   73.90    0.03    0.00    0.00
 1999 356   124     0     0     0.3   18.0   16582   13.1    4.9   1.1   1.2   2.1   1.1   0.6   0.5   0.5   0.5   0.0   0.0   0.0   0.1   0.3   0.3   0.3  0.51  0.30  0.13  0.00  0.00   64.74   74.24    0.03    0.00    0.00
 1999 357   125     0     0     0.3   18.2   16582   13.3    4.8   1.1   1.2   2.1   1.1   0.6   0.5   0.5   0.5   0.0   0.0   0.0   0.1   0.3   0.3   0.3  0.51  0.30  0.13  0.00  0.00   65.02   74.56    0.03    0.00    0.00
 1999 358   126     0     0     0.3   18.3   16581   13.5    4.8   1.1   1.3   2.1   1.1   0.7   0.5   0.5   0.5   0.0   0.0   0.0   0.1   0.3   0.3   0.3  0.51  0.29  0.13  0.00  0.00   65.29   74.86    0.03    0.00    0.00
 1999 359   127     0     0     0.3   18.5   16581   13.7    4.7   1.2   1.3   2.2   1.1   0.7   0.5   0.5   0.5   0.0   0.0   0.0   0.1   0.3   0.2   0.3  0.51  0.29  0.12  0.00  0.00   65.56   75.17    0.03    0.00    0.00
 1999 360   128     0     0     0.3   18.7   16581   14.1    4.7   1.2   1.4   2.2   1.2   0.7   0.5   0.5   0.5   0.0   0.0   0.0   0.1   0.3   0.2   0.3  0.51  0.28  0.12  0.00  0.00   65.83   75.48    0.03    0.00    0.00
 1999 361   129     0     0     0.3   19.0   16581   14.4    4.6   1.3   1.4   2.3   1.2   0.7   0.5   0.5   0.5   0.0   0.0   0.0   0.1   0.3   0.2   0.3  0.51  0.28  0.12  0.00  0.00   66.11   75.81    0.03    0.00    0.00
 1999 362   130     0     0     0.3   19.3   16580   14.7    4.6   1.3   1.5   2.3   1.2   0.7   0.5   0.5   0.5   0.0   0.0   0.0   0.1   0.3   0.2   0.3  0.52  0.28  0.12  0.00  0.00   66.40   76.15    0.03    0.00    0.00
 1999 363   131     0     0     0.3   19.5   16580   15.0    4.5   1.4   1.6   2.4   1.2   0.8   0.5   0.5   0.5   0.0   0.0   0.0   0.1   0.3   0.2   0.3  0.51  0.27  0.12  0.00  0.00   66.69   76.49    0.03    0.00    0.00
 1999 364   132     0     0     0.3   19.8   16580   15.3    4.5   1.5   1.6   2.4   1.2   0.8   0.5   0.5   0.5   0.0   0.0   0.1   0.1   0.3   0.2   0.3  0.52  0.27  0.12  0.00  0.00   66.99   76.78    0.03    0.00    0.00
 1999 365   133     0     0     0.3   20.0   16579   15.5    4.4   1.6   1.6   2.5   1.3   0.8   0.5   0.6   0.5   0.0   0.0   0.0   0.1   0.3   0.2   0.2  0.51  0.27  0.11  0.00  0.00   67.25   77.11    0.03    0.00    0.00
 2000 001   134     0     0     0.3   20.2   16579   15.8    4.5   1.7   1.7   2.5   1.3   0.8   0.6   0.6   0.5   0.0   0.0   0.0   0.1   0.3   0.2   0.2  0.52  0.26  0.11  0.00  0.00   67.49   77.34    0.03    0.00    0.00
 2000 002   135     0     0     0.3   20.4   16579   16.0    4.4   1.7   1.7   2.5   1.3   0.8   0.6   0.6   0.5   0.0   0.0   0.0   0.1   0.3   0.2   0.2  0.52  0.26  0.11  0.00  0.00   67.71   77.59    0.03    0.00    0.00
 2000 003   136     0     0     0.3   20.7   16579   16.3    4.4   1.7   1.8   2.6   1.3   0.8   0.6   0.6   0.5   0.0   0.0   0.0   0.1   0.3   0.2   0.2  0.52  0.26  0.11  0.00  0.00   67.93   77.83    0.03    0.00    0.00
 2000 004   137     0     0     0.3   20.9   16579   16.5    4.4   1.8   1.8   2.6   1.3   0.9   0.6   0.6   0.5   0.0   0.0   0.0   0.1   0.3   0.2   0.2  0.52  0.25  0.11  0.00  0.00   68.17   78.08    0.03    0.00    0.00
 2000 005   138     0     0     0.3   21.1   16578   16.8    4.4   1.8   1.8   2.7   1.4   0.9   0.6   0.6   0.5   0.0   0.0   0.0   0.1   0.3   0.2   0.2  0.52  0.25  0.11  0.00  0.00   68.41   78.35    0.03    0.00    0.00
 2000 006   139     0     0     0.3   21.4   16578   17.1    4.3   1.9   1.9   2.7   1.4   0.9   0.6   0.6   0.5   0.0   0.0   0.0   0.1   0.3   0.2   0.2  0.52  0.25  0.11  0.00  0.00   68.65   78.62    0.03    0.00    0.00
 2000 007   140     0     0     0.3   21.6   16578   17.3    4.3   1.9   1.9   2.7   1.4   0.9   0.6   0.6   0.5   0.0   0.0   0.0   0.1   0.3   0.2   0.2  0.52  0.24  0.10  0.00  0.00   68.89   78.89    0.03    0.00    0.00
 2000 008   141     0     0     0.3   21.9   16578   17.6    4.3   2.0   2.0   2.8   1.4   0.9   0.6   0.6   0.5   0.0   0.0   0.0   0.1   0.3   0.2   0.2  0.52  0.24  0.10  0.00  0.00   69.15   79.17    0.03    0.00    0.00
 2000 009   142     0     0     0.3   22.1   16577   17.9    4.2   2.0   2.0   2.8   1.4   0.9   0.6   0.6   0.5   0.0   0.0   0.0   0.1   0.3   0.2   0.2  0.53  0.24  0.10  0.00  0.00   69.41   79.47    0.03    0.00    0.00
 2000 010   143     0     0     0.3   22.4   16577   18.2    4.2   2.1   2.1   2.9   1.5   1.0   0.6   0.6   0.6   0.0   0.0   0.0   0.1   0.3   0.2   0.2  0.53  0.23  0.10  0.00  0.00   69.68   79.77    0.03    0.00    0.00
 2000 011   144     0     0     0.3   22.7   16577   18.5    4.2   2.2   2.1   2.9   1.5   1.0   0.6   0.6   0.6   0.0   0.0   0.0   0.1   0.2   0.2   0.2  0.53  0.23  0.10  0.00  0.00   69.96   80.09    0.03    0.00    0.00
 2000 012   145     0     0     0.3   23.0   16577   18.8    4.2   2.2   2.2   3.0   1.5   1.0   0.6   0.6   0.6   0.0   0.0   0.0   0.1   0.2   0.2   0.2  0.53  0.23  0.10  0.00  0.00   70.23   80.38    0.03    0.00    0.00
 2000 013   146     0     0     0.3   23.2   16576   19.1    4.1   2.3   2.2   3.0   1.5   1.0   0.6   0.7   0.6   0.0   0.0   0.0   0.1   0.2   0.2   0.2  0.53  0.22  0.10  0.00  0.00   70.49   80.68    0.03    0.00    0.00
 2000 014   147     0     0     0.3   23.6   16576   19.4    4.2   1.2   2.9   3.1   1.5   1.0   0.6   0.7   0.6   0.0   0.0   0.2   0.1   0.2   0.2   0.2  0.53  0.22  0.10  0.00  0.00   70.85   80.96    0.03    0.00    0.00
 2000 015   148     0     0     0.3   24.2   16576   19.9    4.4   1.6   2.9   3.1   1.6   1.0   0.7   0.7   0.6   0.0   0.0   0.1   0.3   0.2   0.2   0.2  0.53  0.22  0.10  0.00  0.00   71.50   81.43    0.03    0.00    0.00
 2000 016   149     0     0     0.3   23.3   16575   18.8    4.5   1.3   1.9   3.2   1.6   1.1   0.7   0.7   0.6   0.0   0.0   0.2   0.4   0.2   0.2   0.2  0.53  0.21  0.09  0.00  0.00   72.09   81.87    0.03    0.00    0.00
 2000 017   150     0     0     0.3   23.0   16575   18.4    4.6   1.4   1.3   3.2   1.6   1.1   0.7   0.7   0.6   0.0   0.0   0.1   0.5   0.3   0.2   0.2  0.53  0.21  0.09  0.00  0.00   72.71   82.45    0.03    0.00    0.00
 2000 018   151     0     0     0.3   23.6   16574   18.9    4.6   1.6   1.5   3.3   1.6   1.1   0.7   0.7   0.6   0.0   0.0   0.2   0.5   0.3   0.2   0.2  0.53  0.21  0.09  0.00  0.00   73.29   82.96    0.03    0.00    0.00
 2000 019   152     0     0     0.3   23.6   16574   19.0    4.6   1.8   1.3   3.3   1.6   1.1   0.7   0.7   0.6   0.0   0.0   0.1   0.5   0.3   0.2   0.2  0.53  0.21  0.09  0.00  0.00   73.81   83.50    0.03    0.00    0.00
 2000 020   153     0     0     0.3   23.8   16573   19.2    4.6   1.9   1.3   3.4   1.6   1.1   0.7   0.7   0.6   0.0   0.0   0.1   0.5   0.3   0.2   0.2  0.53  0.20  0.09  0.00  0.00   74.31   83.99    0.03    0.00    0.00
 2000 021   154     0     0     0.3   24.3   16573   19.8    4.5   2.1   1.5   3.4   1.7   1.1   0.7   0.7   0.6   0.0   0.0   0.1   0.5   0.3   0.2   0.2  0.53  0.20  0.09  0.00  0.00   74.80   84.53    0.03    0.00    0.00
 2000 022   155     0     0     0.3   24.8   16573   20.3    4.5   2.3   1.7   3.5   1.7   1.1   0.7   0.7   0.6   0.0   0.0   0.1   0.4   0.3   0.2   0.2  0.53  0.20  0.09  0.00  0.00   75.27   85.02    0.03    0.00    0.00
 2000 023   156     0     0     0.3   25.2   16572   20.8    4.5   2.5   1.9   3.5   1.7   1.2   0.7   0.7   0.6   0.0   0.0   0.1   0.4   0.3   0.2   0.2  0.53  0.20  0.09  0.00  0.00   75.72   85.52    0.03    0.00    0.00
 2000 024   157     0     0     0.3   25.7   16572   21.2    4.5   2.6   2.1   3.6   1.7   1.2   0.7   0.7   0.6   0.0   0.0   0.1   0.4   0.3   0.2   0.2  0.53  0.20  0.09  0.00  0.00   76.16   85.96    0.03    0.00    0.00

*DSSAT Cropping System Model Ver. 4.0.2.000               Aug 23, 2016; 17:50:38

*RUN   2        : UYSB                    
 MODEL          : CRGRO040 - Soybean         
 EXPERIMENT     : UYSB0265 SB    late to create DSS                             
 TREATMENT  1   : UYSB                    

@YEAR DOY   DAS  NAPC  NI#M    NLCC   NIAD    NOAD   NITD   NHTD  NI1D  NI2D  NI3D  NI4D  NI5D  NI6D  NI7D  NI8D  NI9D  NI10  NH1D  NH2D  NH3D  NH4D  NH5D  NH6D  NH7D  NH8D  NH9D  NH10    NMNC    NITC    NDNC    NIMC    AMLC
 2000 232     0     0     0     0.0   54.8   16645   32.2   22.7   6.2   5.3   5.1   4.7   2.6   0.0   0.1   0.1   0.0   0.0   0.4   1.3   1.5   1.4   1.4  1.50  1.46  1.45  0.00  0.00    0.59    1.89    0.00    0.00    0.00
 2000 233     1     0     0     0.0   55.4   16645   33.5   21.9   6.6   5.6   5.3   4.8   2.7   0.0   0.1   0.1   0.0   0.0   0.2   1.1   1.4   1.4   1.4  1.51  1.43  1.41  0.00  0.00    1.20    3.26    0.00    0.00    0.00
 2000 234     2     0     0     0.0   56.0   16644   34.7   21.3   6.5   5.9   5.4   4.9   2.7   0.1   0.1   0.2   0.0   0.0   0.1   1.0   1.4   1.3   1.3  1.51  1.40  1.36  0.00  0.00    1.81    4.45    0.00    0.00    0.00
 2000 235     3     0     0     0.0   56.7   16644   35.9   20.8   6.5   6.2   5.6   5.0   2.8   0.1   0.2   0.2   0.0   0.0   0.1   0.9   1.4   1.3   1.3  1.51  1.36  1.32  0.00  0.00    2.43    5.59    0.00    0.00    0.00
 2000 236     4     0     0     0.0   57.3   16643   37.0   20.3   6.3   6.5   5.7   5.1   2.9   0.1   0.2   0.3   0.0   0.0   0.1   0.8   1.4   1.2   1.3  1.52  1.33  1.28  0.00  0.00    3.07    6.72    0.00    0.00    0.00
 2000 237     5     0     0     0.0   57.9   16642   38.1   19.9   3.7   7.7   6.1   5.2   2.9   0.1   0.3   0.3   0.0   0.0   0.1   0.7   1.3   1.2   1.2  1.52  1.30  1.24  0.00  0.00    3.72    7.81    0.00    0.00    0.00
 2000 238     6     0     0     0.0   58.6   16642   38.9   19.6   3.8   7.5   6.4   5.2   3.0   0.1   0.3   0.3   0.0   0.0   0.1   0.8   1.3   1.1   1.2  1.52  1.27  1.20  0.00  0.00    4.33    8.66    0.00    0.00    0.00
 2000 239     7     0     0     0.0   59.2   16641   39.8   19.4   3.9   7.4   6.6   5.3   3.1   0.2   0.4   0.4   0.0   0.0   0.1   0.9   1.3   1.1   1.1  1.52  1.24  1.17  0.00  0.00    4.93    9.49    0.00    0.00    0.00
 2000 240     8     0     0     0.0   59.7   16641   40.7   19.0   4.0   7.4   6.8   5.4   3.1   0.2   0.4   0.4   0.0   0.0   0.1   0.8   1.3   1.1   1.1  1.53  1.21  1.13  0.00  0.00    5.50   10.43    0.00    0.00    0.00
 2000 241     9     0     0     0.0   60.3   16640   41.6   18.7   4.1   7.5   6.9   5.5   3.2   0.2   0.4   0.5   0.0   0.0   0.1   0.8   1.3   1.0   1.1  1.53  1.19  1.10  0.00  0.00    6.03   11.29    0.00    0.00    0.00
 2000 242    10     0     0     0.0   60.7   16640   42.3   18.4   4.2   7.6   7.1   5.5   3.2   0.2   0.5   0.5   0.0   0.0   0.1   0.7   1.3   1.0   1.0  1.53  1.16  1.07  0.00  0.00    6.52   12.07    0.00    0.00    0.00
 2000 243    11     0     0     0.0   61.2   16639   43.1   18.1   4.3   7.7   7.2   5.6   3.3   0.2   0.5   0.5   0.0   0.0   0.1   0.7   1.3   1.0   1.0  1.53  1.14  1.04  0.00  0.00    6.99   12.81    0.00    0.00    0.00
 2000 244    12     0     0     0.0   61.7   16639   43.8   17.9   4.3   7.8   7.3   5.7   3.3   0.2   0.5   0.6   0.0   0.0   0.1   0.7   1.2   1.0   1.0  1.54  1.11  1.01  0.00  0.00    7.47   13.55    0.00    0.00    0.00
 2000 245    13     0     0     0.0   62.2   16638   44.5   17.6   4.4   7.8   7.4   5.7   3.4   0.3   0.6   0.6   0.0   0.0   0.1   0.6   1.2   0.9   1.0  1.54  1.09  0.98  0.00  0.00    7.95   14.27    0.00    0.00    0.00
 2000 246    14     0     0     0.0   62.6   16638   45.2   17.4   4.5   7.9   7.5   5.8   3.4   0.3   0.6   0.6   0.0   0.0   0.1   0.6   1.2   0.9   1.0  1.54  1.07  0.95  0.00  0.00    8.41   14.96    0.00    0.00    0.00
 2000 247    15     0     0     0.0   63.0   16637   45.9   17.1   4.5   8.0   7.6   5.8   3.4   0.3   0.6   0.7   0.0   0.0   0.1   0.6   1.2   0.9   0.9  1.54  1.05  0.92  0.00  0.00    8.80   15.64    0.00    0.00    0.00
 2000 248    16     0     0     0.0   63.4   16637   46.6   16.8   4.6   8.1   7.6   5.9   3.5   0.3   0.7   0.7   0.0   0.0   0.1   0.5   1.2   0.9   0.9  1.55  1.03  0.90  0.00  0.00    9.18   16.31    0.00    0.00    0.00
 2000 249    17     0     0     0.0   63.7   16636   47.2   16.6   4.7   8.1   7.7   5.9   3.5   0.3   0.7   0.7   0.0   0.0   0.1   0.5   1.1   0.8   0.9  1.55  1.01  0.87  0.00  0.00    9.57   16.95    0.00    0.00    0.00
 2000 250    18     0     0     0.0   64.1   16636   47.8   16.3   4.7   8.2   7.8   6.0   3.6   0.3   0.7   0.7   0.0   0.0   0.1   0.5   1.1   0.8   0.9  1.55  0.99  0.85  0.00  0.00    9.97   17.60    0.00    0.00    0.00
 2000 251    19     0     0     0.0   64.5   16636   48.5   16.1   4.8   8.3   7.9   6.0   3.6   0.4   0.8   0.8   0.0   0.0   0.1   0.5   1.1   0.8   0.8  1.55  0.97  0.82  0.00  0.00   10.39   18.26    0.00    0.00    0.00
 2000 252    20     0     0     0.0   65.0   16635   49.1   15.8   4.9   8.4   8.0   6.1   3.6   0.4   0.8   0.8   0.0   0.0   0.1   0.5   1.1   0.7   0.8  1.55  0.95  0.80  0.00  0.00   10.85   18.96    0.00    0.00    0.00
 2000 253    21     0     0     0.0   65.4   16635   49.8   15.6   4.5   8.7   8.1   6.1   3.7   0.4   0.8   0.8   0.0   0.0   0.1   0.4   1.1   0.7   0.8  1.56  0.93  0.78  0.00  0.00   11.35   19.69    0.00    0.00    0.00
 2000 254    22     0     0     0.0   65.9   16634   50.5   15.4   1.5   6.0   9.2   7.8   3.7   0.4   0.8   0.9   0.0   0.0   0.2   0.4   1.0   0.7   0.8  1.56  0.92  0.76  0.00  0.00   11.88   20.38    0.00    0.00    0.00
 2000 255    23     0     0     0.0   66.5   16634   51.0   15.6   1.7   5.9   9.0   7.7   4.2   0.4   0.9   0.9   0.0   0.0   0.1   0.5   1.1   0.7   0.8  1.56  0.90  0.73  0.00  0.00   12.49   20.85    0.00    0.00    0.00
 2000 256    24     0     0     0.0   67.2   16633   51.5   15.7   1.9   5.8   8.9   7.7   4.3   0.4   0.9   0.9   0.0   0.0   0.1   0.6   1.2   0.7   0.8  1.56  0.88  0.71  0.00  0.00   13.15   21.38    0.00    0.00    0.00
 2000 257    25     0     0     0.0   67.8   16632   52.1   15.7   1.3   5.0   8.6   8.0   5.0   0.5   0.9   0.9   0.0   0.0   0.1   0.6   1.3   0.7   0.7  1.57  0.86  0.69  0.00  0.00   13.76   21.99    0.00    0.00    0.00
 2000 258    26     0     0     0.0   68.3   16632   52.3   16.0   0.9   4.3   8.2   7.8   5.5   0.9   1.0   1.0   0.0   0.0   0.2   0.7   1.4   0.7   0.8  1.57  0.85  0.68  0.00  0.00   14.28   22.25    0.00    0.00    0.00
 2000 259    27     0     0     0.3   68.3   16631   52.0   16.3   1.0   4.3   7.9   7.5   5.5   1.0   1.0   1.0   0.0   0.0   0.2   0.7   1.4   0.8   0.8  1.58  0.85  0.67  0.00  0.00   14.73   22.38    0.11    0.00    0.00
 2000 260    28     0     0     0.5   68.5   16631   52.0   16.5   1.1   4.2   7.8   7.4   5.4   1.1   1.0   1.0   0.0   0.0   0.2   0.8   1.5   0.8   0.8  1.60  0.85  0.67  0.00  0.00   15.15   22.57    0.17    0.00    0.00
 2000 261    29     0     0     0.6   68.7   16630   52.1   16.6   1.3   4.3   7.7   7.3   5.4   1.2   1.0   1.0   0.0   0.0   0.1   0.7   1.5   0.8   0.8  1.61  0.86  0.66  0.00  0.00   15.55   22.85    0.20    0.00    0.00
 2000 262    30     0     0     0.6   69.1   16630   52.3   16.8   1.0   3.8   7.6   7.5   5.6   1.3   1.0   1.0   0.0   0.0   0.1   0.7   1.6   0.8   0.8  1.62  0.86  0.66  0.00  0.00   15.97   23.13    0.23    0.00    0.00
 2000 263    31     0     0     1.1   68.9   16630   51.8   17.1   0.5   2.6   6.2   6.6   5.9   2.1   1.3   1.1   0.0   0.0   0.2   0.7   1.6   0.8   0.8  1.64  0.86  0.66  0.00  0.00   16.42   23.27    0.39    0.00    0.00
 2000 264    32     0     0     1.3   68.9   16629   51.5   17.4   0.5   2.4   6.0   6.4   5.9   2.2   1.4   1.1   0.0   0.0   0.1   0.8   1.7   0.8   0.9  1.65  0.87  0.66  0.00  0.00   16.91   23.44    0.62    0.00    0.00
 2000 265    33     0     0     1.8   68.7   16629   50.9   17.7   0.6   2.4   5.8   6.2   5.8   2.3   1.4   1.1   0.0   0.0   0.1   0.9   1.8   0.9   0.9  1.67  0.88  0.66  0.00  0.00   17.44   23.61    0.86    0.00    0.00
 2000 266    34     0     0     2.1   68.7   16628   50.7   18.0   0.7   2.4   5.7   6.0   5.7   2.4   1.5   1.1   0.0   0.0   0.1   0.9   1.8   0.9   0.9  1.68  0.88  0.66  0.00  0.00   17.99   23.83    0.99    0.00    0.00
 2000 267    35     0     0     2.1   69.1   16627   50.9   18.2   0.9   2.6   5.7   6.0   5.7   2.4   1.5   1.2   0.0   0.0   0.1   0.8   1.9   0.9   0.9  1.70  0.88  0.65  0.00  0.00   18.54   24.23    1.07    0.00    0.00
 2000 268    36     0     0     2.3   69.4   16627   51.1   18.3   1.1   2.7   5.7   5.9   5.6   2.4   1.5   1.2   0.0   0.0   0.1   0.8   1.9   0.9   0.9  1.71  0.89  0.65  0.00  0.00   19.11   24.64    1.11    0.00    0.00
 2000 269    37     0     0     2.4   69.8   16626   51.5   18.3   1.2   2.8   5.8   5.9   5.6   2.4   1.5   1.2   0.0   0.0   0.1   0.7   1.9   1.0   1.0  1.72  0.89  0.65  0.00  0.00   19.63   25.21    1.14    0.00    0.00
 2000 270    38     0     0     2.4   70.2   16626   51.9   18.2   1.4   2.9   5.9   5.9   5.6   2.4   1.5   1.2   0.0   0.0   0.1   0.7   1.8   1.0   1.0  1.74  0.89  0.64  0.00  0.00   20.12   25.72    1.15    0.00    0.00
 2000 271    39     0     0     2.4   70.6   16625   52.4   18.2   1.5   3.0   6.0   5.9   5.6   2.4   1.5   1.2   0.0   0.0   0.1   0.7   1.8   1.0   1.0  1.75  0.89  0.64  0.00  0.00   20.60   26.21    1.16    0.00    0.00
 2000 272    40     0     0     2.4   71.0   16625   52.8   18.2   1.6   3.1   6.1   6.0   5.6   2.4   1.5   1.2   0.0   0.0   0.1   0.6   1.7   1.0   1.0  1.76  0.90  0.64  0.00  0.00   21.09   26.71    1.17    0.00    0.00
 2000 273    41     0     0     2.4   71.4   16624   53.3   18.1   1.8   3.2   6.2   6.0   5.6   2.4   1.5   1.2   0.0   0.0   0.1   0.6   1.7   1.0   1.0  1.77  0.90  0.63  0.00  0.00   21.62   27.31    1.18    0.00    0.00
 2000 274    42     0     0     2.4   71.9   16624   53.9   18.0   1.4   3.3   6.5   6.1   5.6   2.4   1.5   1.2   0.0   0.0   0.1   0.6   1.6   0.9   1.0  1.79  0.90  0.63  0.00  0.00   22.21   27.96    1.19    0.00    0.00
 2000 275    43     0     0     2.4   72.4   16623   54.3   18.0   1.5   3.3   6.6   6.1   5.6   2.4   1.6   1.2   0.0   0.0   0.1   0.7   1.5   0.9   1.0  1.80  0.90  0.63  0.00  0.00   22.85   28.54    1.19    0.00    0.00
 2000 276    44     0     0     2.5   72.9   16622   54.9   18.0   0.9   2.7   6.1   6.1   6.0   2.8   1.7   1.2   0.0   0.0   0.1   0.6   1.5   0.9   1.0  1.81  0.90  0.62  0.00  0.00   23.54   29.25    1.20    0.00    0.00
 2000 277    45     0     0     2.5   73.3   16622   54.8   18.5   0.7   2.5   5.8   5.9   5.9   3.0   1.8   1.3   0.0   0.0   0.2   0.7   1.6   1.0   1.1  1.83  0.91  0.62  0.00  0.00   24.21   29.41    1.29    0.00    0.00
 2000 278    46     0     0     3.1   73.1   16621   54.3   18.8   0.9   2.5   5.6   5.7   5.8   3.0   1.9   1.3   0.0   0.0   0.1   0.8   1.7   1.0   1.1  1.85  0.91  0.62  0.00  0.00   24.82   29.67    1.40    0.00    0.00
 2000 279    47     0     0     3.5   73.2   16621   54.1   19.1   1.1   2.4   5.6   5.6   5.6   3.0   1.9   1.4   0.0   0.0   0.1   0.9   1.7   1.0   1.1  1.86  0.92  0.62  0.00  0.00   25.43   29.92    1.46    0.00    0.00
 2000 280    48     0     0     3.7   73.4   16620   54.1   19.2   1.2   2.6   5.5   5.5   5.6   3.0   2.0   1.4   0.0   0.0   0.1   0.8   1.8   1.0   1.1  1.87  0.92  0.61  0.00  0.00   26.00   30.34    1.52    0.00    0.00
 2000 281    49     0     0     3.8   73.7   16619   54.5   19.2   1.4   2.7   5.6   5.5   5.6   3.0   2.0   1.4   0.0   0.0   0.1   0.7   1.7   1.0   1.1  1.88  0.92  0.61  0.00  0.00   26.54   30.92    1.55    0.00    0.00
 2000 282    50     0     0     3.8   74.0   16619   54.9   19.1   1.5   2.8   5.7   5.5   5.6   3.0   2.0   1.4   0.0   0.0   0.1   0.7   1.7   1.1   1.1  1.89  0.92  0.61  0.00  0.00   27.10   31.50    1.57    0.00    0.00
 2000 283    51     0     0     3.8   74.3   16618   55.2   19.0   1.1   2.7   5.8   5.6   5.6   3.0   2.0   1.4   0.0   0.0   0.1   0.6   1.6   1.1   1.2  1.90  0.92  0.60  0.00  0.00   27.66   32.08    1.58    0.00    0.00
 2000 284    52     0     0     4.1   74.4   16618   55.0   19.4   1.1   2.6   5.7   5.5   5.6   3.1   2.0   1.5   0.0   0.0   0.2   0.7   1.7   1.1   1.2  1.91  0.92  0.60  0.00  0.00   28.22   32.26    1.63    0.00    0.00
 2000 285    53     0     0     4.2   74.6   16617   55.0   19.6   1.3   2.6   5.6   5.4   5.5   3.1   2.1   1.5   0.0   0.0   0.1   0.8   1.7   1.1   1.2  1.92  0.92  0.60  0.00  0.00   28.78   32.55    1.66    0.00    0.00
 2000 286    54     0     0     4.2   74.9   16617   55.2   19.7   1.5   2.7   5.6   5.3   5.5   3.1   2.1   1.5   0.0   0.0   0.1   0.7   1.8   1.1   1.2  1.93  0.92  0.59  0.00  0.00   29.35   32.98    1.68    0.00    0.00
 2000 287    55     0     0     4.3   75.1   16616   55.6   19.5   1.7   2.8   5.7   5.3   5.5   3.1   2.1   1.5   0.0   0.0   0.1   0.7   1.7   1.1   1.2  1.94  0.93  0.59  0.00  0.00   29.95   33.63    1.69    0.00    0.00
 2000 288    56     0     0     4.3   75.4   16615   56.0   19.4   1.8   2.9   5.8   5.3   5.5   3.1   2.1   1.5   0.0   0.0   0.1   0.6   1.6   1.1   1.2  1.95  0.93  0.59  0.00  0.00   30.55   34.26    1.70    0.00    0.00
 2000 289    57     0     0     4.3   75.9   16615   56.5   19.4   2.0   3.0   5.9   5.3   5.5   3.1   2.1   1.5   0.0   0.0   0.1   0.6   1.6   1.1   1.2  1.96  0.93  0.58  0.00  0.00   31.16   34.87    1.71    0.00    0.00
 2000 290    58     0     0     4.3   76.3   16614   57.0   19.2   1.9   3.3   6.0   5.4   5.5   3.1   2.1   1.5   0.0   0.0   0.1   0.6   1.5   1.1   1.2  1.97  0.93  0.58  0.00  0.00   31.77   35.57    1.71    0.00    0.00
 2000 291    59     0     0     4.3   76.6   16614   57.4   19.2   2.0   3.2   6.1   5.5   5.5   3.1   2.1   1.5   0.0   0.0   0.1   0.7   1.5   1.1   1.2  1.98  0.93  0.58  0.00  0.00   32.39   36.15    1.72    0.00    0.00
 2000 292    60     0     0     4.3   77.0   16613   57.9   19.1   2.1   3.3   6.2   5.5   5.6   3.1   2.1   1.6   0.0   0.0   0.1   0.6   1.4   1.0   1.2  1.99  0.93  0.57  0.00  0.00   32.98   36.82    1.72    0.00    0.00
 2000 293    61     0     0     4.3   77.3   16612   58.3   19.0   1.6   3.4   6.4   5.7   5.6   3.1   2.1   1.6   0.0   0.0   0.1   0.6   1.4   1.0   1.2  2.00  0.93  0.57  0.00  0.00   33.57   37.47    1.73    0.00    0.00
 2000 294    62     0     0     4.4   77.5   16612   58.2   19.2   1.7   3.3   6.3   5.6   5.6   3.2   2.2   1.6   0.0   0.0   0.1   0.7   1.5   1.0   1.2  2.00  0.93  0.57  0.00  0.00   34.17   37.73    1.74    0.00    0.00
 2000 295    63     0     0     4.4   77.7   16611   58.2   19.5   1.8   3.3   6.2   5.6   5.6   3.2   2.2   1.6   0.0   0.0   0.1   0.7   1.5   1.0   1.2  2.01  0.93  0.56  0.00  0.00   34.79   38.02    1.74    0.00    0.00
 2000 296    64     0     0     4.5   77.6   16611   58.1   19.5   0.9   2.6   5.4   5.4   5.7   3.6   2.4   1.7   0.0   0.0   0.1   0.7   1.6   1.0   1.2  2.01  0.93  0.56  0.00  0.00   35.44   38.50    1.75    0.00    0.00
 2000 297    65     0     0     4.6   77.6   16610   57.7   19.9   0.9   2.5   5.3   5.3   5.7   3.6   2.5   1.7   0.0   0.0   0.2   0.8   1.6   1.1   1.3  2.03  0.93  0.56  0.00  0.00   36.06   38.66    1.87    0.00    0.00
 2000 298    66     0     0     5.3   77.0   16609   56.9   20.1   1.1   2.5   5.1   5.1   5.5   3.6   2.5   1.8   0.0   0.0   0.1   0.8   1.7   1.1   1.3  2.04  0.93  0.55  0.00  0.00   36.68   38.94    2.07    0.00    0.00
 2000 299    67     0     0     6.9   75.5   16609   55.3   20.2   0.5   1.8   4.0   4.4   5.2   3.9   2.9   2.1   0.0   0.0   0.1   0.7   1.8   1.1   1.3  2.05  0.94  0.55  0.00  0.00   37.31   39.39    2.19    0.00    0.00
 2000 300    68     0     0     7.8   74.2   16608   53.8   20.4   0.4   1.5   3.6   4.1   4.9   4.0   3.1   2.3   0.0   0.0   0.1   0.8   1.8   1.1   1.3  2.05  0.94  0.55  0.00  0.00   37.90   39.59    2.41    0.00    0.00
 2000 301    69     0     0     8.9   72.8   16608   52.3   20.5   0.5   1.4   3.4   3.9   4.7   3.8   3.0   2.3   0.0   0.0   0.1   0.8   1.8   1.1   1.3  2.05  0.94  0.55  0.00  0.00   38.48   39.79    2.63    0.00    0.00
 2000 302    70     0     0     9.4   71.3   16607   50.9   20.4   0.6   1.3   3.2   3.8   4.6   3.8   3.0   2.3   0.0   0.0   0.1   0.8   1.8   1.1   1.3  2.04  0.94  0.55  0.00  0.00   39.09   40.07    2.75    0.00    0.00
 2000 303    71     0     0     9.7   70.3   16606   50.2   20.1   0.8   1.4   3.1   3.7   4.5   3.7   3.0   2.3   0.0   0.0   0.1   0.7   1.7   1.1   1.3  2.04  0.93  0.55  0.00  0.00   39.71   40.54    2.81    0.00    0.00
 2000 304    72     0     0     9.9   69.6   16606   49.9   19.7   0.9   1.4   3.1   3.7   4.4   3.6   3.0   2.3   0.0   0.0   0.1   0.6   1.6   1.1   1.3  2.03  0.93  0.54  0.00  0.00   40.33   41.19    2.83    0.00    0.00
 2000 305    73     0     0     9.9   68.3   16605   49.2   19.1   1.1   1.5   3.0   3.6   4.3   3.6   2.9   2.3   0.0   0.0   0.1   0.5   1.4   1.1   1.3  2.00  0.92  0.54  0.00  0.00   40.97   41.84    2.84    0.00    0.00
 2000 306    74     0     0     9.9   66.9   16604   48.5   18.4   0.9   1.6   2.9   3.5   4.2   3.5   2.9   2.2   0.0   0.0   0.1   0.5   1.3   1.0   1.2  1.97  0.90  0.53  0.00  0.00   41.62   42.56    2.85    0.00    0.00
 2000 307    75     0     0     9.9   66.5   16604   48.2   18.3   0.9   1.6   3.0   3.6   4.2   3.5   2.9   2.2   0.0   0.0   0.2   0.6   1.2   1.0   1.2  1.96  0.90  0.52  0.00  0.00   42.27   43.04    2.85    0.00    0.00
 2000 308    76     0     0     9.9   65.3   16603   47.6   17.7   1.1   1.5   2.8   3.5   4.1   3.4   2.8   2.2   0.0   0.0   0.1   0.7   1.1   0.9   1.1  1.93  0.89  0.52  0.00  0.00   42.93   43.75    2.86    0.00    0.00
 2000 309    77     0     0     9.9   63.5   16602   46.7   16.8   1.2   1.5   2.7   3.5   4.1   3.3   2.8   2.2   0.0   0.0   0.1   0.5   1.0   0.8   1.1  1.87  0.87  0.51  0.00  0.00   43.61   44.60    2.86    0.00    0.00
 2000 310    78     0     0     9.9   62.2   16602   46.0   16.2   1.3   1.5   2.5   3.4   4.0   3.3   2.8   2.2   0.0   0.0   0.1   0.5   0.9   0.8   1.0  1.83  0.86  0.51  0.00  0.00   44.26   45.35    2.86    0.00    0.00
 2000 311    79     0     0     9.9   60.1   16601   44.7   15.4   1.4   1.5   2.3   3.3   3.9   3.2   2.7   2.2   0.0   0.0   0.1   0.5   0.8   0.7   0.9  1.76  0.82  0.51  0.00  0.00   44.90   46.08    2.86    0.00    0.00
 2000 312    80     0     0     9.9   57.6   16600   43.0   14.6   1.5   1.4   2.1   3.2   3.8   3.1   2.6   2.1   0.0   0.0   0.1   0.5   0.7   0.7   0.9  1.68  0.77  0.50  0.00  0.00   45.55   46.78    2.86    0.00    0.00
 2000 313    81     0     0     9.9   56.2   16600   42.1   14.0   1.6   1.4   1.9   3.1   3.7   3.0   2.6   2.1   0.0   0.0   0.1   0.5   0.7   0.6   0.8  1.63  0.74  0.49  0.00  0.00   46.21   47.47    2.86    0.00    0.00
 2000 314    82     0     0     9.9   54.0   16599   40.7   13.3   1.6   1.4   1.7   3.0   3.5   2.9   2.5   2.1   0.0   0.0   0.1   0.5   0.6   0.6   0.7  1.56  0.71  0.48  0.00  0.00   46.86   48.15    2.86    0.00    0.00
 2000 315    83     0     0     9.9   53.0   16599   40.0   12.9   1.7   1.4   1.7   2.9   3.5   2.8   2.5   2.1   0.0   0.0   0.1   0.5   0.6   0.6   0.7  1.51  0.68  0.47  0.00  0.00   47.51   48.78    2.86    0.00    0.00
 2000 316    84     0     0     9.9   49.9   16598   37.8   12.1   1.0   1.5   1.6   2.7   3.3   2.7   2.4   2.1   0.0   0.0   0.1   0.5   0.6   0.5   0.6  1.42  0.63  0.46  0.00  0.00   48.14   49.40    2.86    0.00    0.00
 2000 317    85     0     0     9.9   46.7   16597   35.1   11.5   0.9   1.4   1.2   2.5   3.0   2.5   2.3   2.0   0.0   0.0   0.1   0.6   0.6   0.5   0.6  1.32  0.59  0.45  0.00  0.00   48.80   49.87    2.86    0.00    0.00
 2000 318    86     0     0     9.9   43.3   16597   32.5   10.8   0.9   1.1   0.9   2.3   2.8   2.4   2.2   2.0   0.0   0.0   0.1   0.5   0.6   0.5   0.5  1.23  0.55  0.44  0.00  0.00   49.47   50.49    2.86    0.00    0.00
 2000 319    87     0     0     9.9   40.5   16596   30.1   10.3   0.9   0.9   0.6   2.1   2.6   2.2   2.1   1.9   0.0   0.0   0.1   0.5   0.6   0.5   0.5  1.14  0.51  0.43  0.00  0.00   50.13   51.04    2.86    0.00    0.00
 2000 320    88     0     0     9.9   38.3   16595   28.4   10.0   1.0   0.8   0.5   2.0   2.4   2.1   2.0   1.9   0.0   0.0   0.1   0.5   0.6   0.5   0.5  1.07  0.50  0.42  0.00  0.00   50.76   51.57    2.86    0.00    0.00
 2000 321    89     0     0     9.9   36.3   16595   26.7    9.6   1.0   0.7   0.4   1.8   2.3   1.9   1.9   1.9   0.0   0.0   0.1   0.5   0.6   0.5   0.5  1.00  0.49  0.41  0.00  0.00   51.36   52.07    2.86    0.00    0.00
 2000 322    90     0     0     9.9   32.8   16594   23.7    9.1   1.0   0.5   0.5   1.5   1.9   1.7   1.7   1.8   0.0   0.0   0.1   0.5   0.6   0.5   0.5  0.87  0.49  0.40  0.00  0.00   51.94   52.55    2.86    0.00    0.00
 2000 323    91     0     0     9.9   29.3   16594   20.8    8.5   0.9   0.4   0.5   1.3   1.6   1.4   1.5   1.7   0.0   0.0   0.1   0.5   0.6   0.5   0.5  0.74  0.48  0.39  0.00  0.00   52.51   53.02    2.86    0.00    0.00
 2000 324    92     0     0     9.9   26.0   16593   18.0    8.0   0.9   0.5   0.3   1.0   1.3   1.2   1.4   1.5   0.0   0.0   0.1   0.5   0.6   0.5   0.5  0.63  0.48  0.38  0.00  0.00   53.10   53.50    2.86    0.00    0.00
 2000 325    93     0     0     9.9   23.4   16592   15.8    7.6   0.8   0.5   0.4   0.9   1.1   1.0   1.2   1.4   0.0   0.0   0.1   0.5   0.6   0.5   0.5  0.53  0.48  0.37  0.00  0.00   53.74   54.04    2.86    0.00    0.00
 2000 326    94     0     0     9.9   21.6   16592   14.1    7.5   0.8   0.6   0.4   0.7   0.9   0.8   1.0   1.3   0.0   0.0   0.1   0.4   0.5   0.5   0.5  0.51  0.47  0.36  0.00  0.00   54.40   54.59    2.86    0.00    0.00
 2000 327    95     0     0     9.9   19.9   16591   12.5    7.4   0.8   0.6   0.5   0.6   0.8   0.7   0.9   1.2   0.0   0.0   0.1   0.4   0.5   0.5   0.5  0.52  0.47  0.36  0.00  0.00   55.04   55.15    2.86    0.00    0.00
 2000 328    96     0     0     9.9   18.2   16590   10.9    7.3   0.5   0.7   0.4   0.5   0.7   0.6   0.8   1.1   0.0   0.0   0.1   0.4   0.5   0.5   0.5  0.52  0.46  0.35  0.00  0.00   55.68   55.71    2.86    0.00    0.00
 2000 329    97     0     0     9.9   16.7   16590    9.2    7.5   0.4   0.3   0.5   0.5   0.6   0.5   0.7   1.1   0.0   0.0   0.1   0.5   0.5   0.5   0.5  0.52  0.46  0.34  0.00  0.00   56.40   56.15    2.86    0.00    0.00
 2000 330    98     0     0     9.9   16.5   16589    9.1    7.4   0.5   0.4   0.6   0.5   0.5   0.5   0.6   1.0   0.0   0.0   0.1   0.5   0.5   0.5   0.5  0.52  0.46  0.33  0.00  0.00   57.08   56.74    2.86    0.00    0.00
 2000 331    99     0     0     9.9   16.1   16588    8.7    7.4   0.4   0.6   0.4   0.5   0.5   0.5   0.5   0.9   0.0   0.0   0.1   0.5   0.5   0.5   0.5  0.52  0.46  0.33  0.00  0.00   57.76   57.31    2.86    0.00    0.00
 2000 332   100     0     0     9.9   15.9   16588    8.5    7.3   0.6   0.4   0.5   0.5   0.5   0.5   0.5   0.8   0.0   0.0   0.1   0.5   0.5   0.5   0.5  0.52  0.45  0.32  0.00  0.00   58.42   57.90    2.86    0.00    0.00
 2000 333   101     0     0     9.9   15.9   16587    8.6    7.3   0.6   0.5   0.5   0.5   0.4   0.5   0.5   0.7   0.0   0.0   0.1   0.5   0.5   0.5   0.5  0.52  0.45  0.31  0.00  0.00   59.06   58.45    2.86    0.00    0.00
 2000 334   102     0     0     9.9   15.0   16587    7.8    7.3   0.6   0.4   0.4   0.4   0.5   0.5   0.4   0.7   0.0   0.0   0.1   0.5   0.5   0.5   0.5  0.51  0.45  0.31  0.00  0.00   59.64   58.95    2.86    0.00    0.00
 2000 335   103     0     0     9.9   15.3   16586    8.0    7.2   0.6   0.5   0.4   0.5   0.5   0.5   0.5   0.6   0.0   0.0   0.1   0.4   0.5   0.5   0.5  0.51  0.44  0.30  0.00  0.00   60.21   59.44    2.86    0.00    0.00
 2000 336   104     0     0     9.9   15.5   16585    8.4    7.2   0.7   0.6   0.5   0.5   0.5   0.5   0.5   0.6   0.0   0.0   0.1   0.4   0.5   0.5   0.5  0.51  0.44  0.30  0.00  0.00   60.75   59.92    2.86    0.00    0.00
 2000 337   105     0     0     9.9   15.2   16585    8.1    7.1   0.8   0.5   0.5   0.4   0.5   0.5   0.5   0.5   0.0   0.0   0.1   0.4   0.5   0.5   0.5  0.51  0.44  0.29  0.00  0.00   61.25   60.38    2.86    0.00    0.00
 2000 338   106     0     0     9.9   15.2   16585    8.2    7.0   0.7   0.6   0.5   0.5   0.5   0.5   0.5   0.5   0.0   0.0   0.1   0.4   0.5   0.5   0.5  0.51  0.44  0.29  0.00  0.00   61.73   60.83    2.86    0.00    0.00
 2000 339   107     0     0     9.9   14.6   16584    7.6    7.0   0.3   0.5   0.5   0.5   0.5   0.4   0.5   0.5   0.0   0.0   0.1   0.4   0.5   0.5   0.5  0.51  0.43  0.28  0.00  0.00   62.27   61.29    2.86    0.00    0.00
 2000 340   108     0     0     9.9   14.5   16583    7.5    7.0   0.5   0.6   0.5   0.5   0.4   0.4   0.5   0.5   0.0   0.0   0.1   0.4   0.5   0.5   0.5  0.51  0.43  0.28  0.00  0.00   62.81   61.78    2.86    0.00    0.00
 2000 341   109     0     0     9.9   14.5   16583    7.5    7.0   0.6   0.4   0.5   0.5   0.5   0.4   0.4   0.5   0.0   0.0   0.1   0.4   0.5   0.5   0.5  0.51  0.43  0.27  0.00  0.00   63.34   62.27    2.86    0.00    0.00
 2000 342   110     0     0     9.9   14.7   16582    7.8    6.9   0.7   0.5   0.5   0.5   0.5   0.4   0.5   0.5   0.0   0.0   0.1   0.4   0.5   0.5   0.5  0.51  0.43  0.27  0.00  0.00   63.85   62.77    2.86    0.00    0.00
 2000 343   111     0     0     9.9   14.8   16582    8.0    6.8   0.8   0.5   0.5   0.5   0.5   0.4   0.5   0.5   0.0   0.0   0.1   0.3   0.5   0.5   0.5  0.51  0.42  0.26  0.00  0.00   64.35   63.26    2.86    0.00    0.00
 2000 344   112     0     0     9.9   14.8   16582    8.1    6.8   0.9   0.6   0.5   0.5   0.5   0.4   0.5   0.5   0.0   0.0   0.1   0.3   0.5   0.5   0.5  0.51  0.42  0.26  0.00  0.00   64.85   63.76    2.86    0.00    0.00
 2000 345   113     0     0     9.9   14.9   16581    8.3    6.7   1.0   0.6   0.6   0.5   0.5   0.5   0.5   0.5   0.0   0.0   0.0   0.3   0.5   0.5   0.5  0.51  0.42  0.25  0.00  0.00   65.34   64.28    2.86    0.00    0.00
 2000 346   114     0     0     9.9   15.2   16581    8.6    6.6   1.1   0.6   0.6   0.5   0.5   0.5   0.5   0.5   0.0   0.0   0.0   0.2   0.5   0.5   0.5  0.51  0.42  0.25  0.00  0.00   65.82   64.80    2.86    0.00    0.00
 2000 347   115     0     0     9.9   15.0   16580    8.6    6.5   1.1   0.7   0.6   0.5   0.5   0.5   0.5   0.5   0.0   0.0   0.0   0.2   0.5   0.4   0.5  0.51  0.41  0.24  0.00  0.00   66.29   65.30    2.86    0.00    0.00
 2000 348   116     0     0     9.9   15.2   16580    8.8    6.4   0.3   0.7   0.9   0.5   0.5   0.5   0.5   0.5   0.0   0.0   0.0   0.2   0.5   0.4   0.5  0.51  0.41  0.24  0.00  0.00   66.74   65.78    2.86    0.00    0.00
 2000 349   117     0     0     9.9   14.2   16579    7.4    6.8   0.3   0.3   0.3   0.5   0.5   0.5   0.5   0.5   0.0   0.0   0.2   0.4   0.6   0.4   0.5  0.51  0.40  0.24  0.00  0.00   67.52   66.15    2.86    0.00    0.00
 2000 350   118     0     0     9.9   14.5   16578    7.9    6.7   0.7   0.5   0.4   0.5   0.5   0.5   0.5   0.5   0.0   0.0   0.0   0.4   0.6   0.4   0.4  0.52  0.40  0.23  0.00  0.00   68.29   66.90    2.86    0.00    0.00
 2000 351   119     0     0     9.9   14.8   16577    7.9    6.8   0.3   0.5   0.5   0.5   0.5   0.5   0.5   0.5   0.0   0.0   0.2   0.5   0.6   0.4   0.4  0.51  0.40  0.23  0.00  0.00   69.07   67.31    2.86    0.00    0.00
 2000 352   120     0     0     9.9   15.1   16577    8.4    6.7   0.6   0.7   0.6   0.5   0.5   0.5   0.5   0.5   0.0   0.0   0.1   0.5   0.6   0.4   0.4  0.52  0.39  0.22  0.00  0.00   69.81   68.03    2.86    0.00    0.00
 2000 353   121     0     0     9.9   14.1   16576    7.5    6.6   0.4   0.4   0.3   0.5   0.5   0.5   0.5   0.5   0.0   0.0   0.1   0.5   0.6   0.4   0.4  0.51  0.39  0.22  0.00  0.00   70.52   68.58    2.86    0.00    0.00
 2000 354   122     0     0     9.9   14.7   16575    8.1    6.6   0.6   0.6   0.4   0.5   0.5   0.5   0.5   0.5   0.0   0.0   0.1   0.5   0.6   0.4   0.4  0.52  0.39  0.22  0.00  0.00   71.16   69.17    2.86    0.00    0.00
 2000 355   123     0     0     9.9   14.2   16575    7.7    6.5   0.6   0.4   0.5   0.5   0.5   0.5   0.5   0.5   0.0   0.0   0.1   0.4   0.5   0.4   0.4  0.51  0.38  0.21  0.00  0.00   71.76   69.68    2.86    0.00    0.00
 2000 356   124     0     0     9.9   14.6   16574    8.1    6.5   0.6   0.5   0.5   0.5   0.5   0.5   0.5   0.5   0.0   0.0   0.1   0.4   0.5   0.4   0.4  0.52  0.38  0.21  0.00  0.00   72.32   70.20    2.86    0.00    0.00
 2000 357   125     0     0     9.9   13.7   16574    7.3    6.4   0.4   0.4   0.3   0.5   0.5   0.5   0.5   0.5   0.0   0.0   0.1   0.4   0.5   0.4   0.4  0.51  0.38  0.21  0.00  0.00   72.89   70.70    2.86    0.00    0.00
 2000 358   126     0     0     9.9   14.2   16573    7.8    6.3   0.6   0.5   0.4   0.5   0.5   0.5   0.5   0.5   0.0   0.0   0.1   0.4   0.5   0.4   0.4  0.52  0.37  0.20  0.00  0.00   73.44   71.24    2.86    0.00    0.00
 2000 359   127     0     0     9.9   14.0   16573    7.7    6.3   0.3   0.5   0.4   0.5   0.5   0.5   0.5   0.5   0.0   0.0   0.1   0.4   0.5   0.4   0.4  0.51  0.37  0.20  0.00  0.00   73.97   71.70    2.86    0.00    0.00
 2000 360   128     0     0     9.9   14.3   16572    8.1    6.3   0.5   0.6   0.5   0.5   0.5   0.5   0.5   0.5   0.0   0.0   0.1   0.3   0.5   0.4   0.4  0.52  0.37  0.20  0.00  0.00   74.46   72.18    2.86    0.00    0.00
 2000 361   129     0     0     9.9   14.3   16572    8.2    6.2   0.3   0.6   0.7   0.5   0.5   0.5   0.5   0.5   0.0   0.0   0.1   0.3   0.5   0.4   0.4  0.51  0.36  0.20  0.00  0.00   74.92   72.63    2.86    0.00    0.00
 2000 362   130     0     0     9.9   13.9   16571    7.4    6.4   0.3   0.2   0.4   0.5   0.5   0.5   0.5   0.5   0.0   0.0   0.1   0.5   0.6   0.4   0.4  0.52  0.36  0.19  0.00  0.00   75.60   73.02    2.86    0.00    0.00
 2000 363   131     0     0     9.9   14.2   16571    7.5    6.7   0.3   0.2   0.4   0.5   0.5   0.5   0.5   0.5   0.0   0.0   0.3   0.6   0.6   0.4   0.4  0.51  0.36  0.19  0.00  0.00   76.32   73.29    2.86    0.00    0.00
 2000 364   132     0     0     9.9   14.5   16570    8.1    6.3   0.8   0.4   0.5   0.5   0.5   0.5   0.5   0.5   0.0   0.0   0.0   0.5   0.6   0.4   0.4  0.52  0.36  0.19  0.00  0.00   77.08   74.11    2.86    0.00    0.00
 2000 365   133     0     0     9.9   14.3   16569    7.9    6.4   0.2   0.6   0.6   0.5   0.5   0.5   0.5   0.5   0.0   0.0   0.2   0.5   0.6   0.4   0.4  0.51  0.35  0.18  0.00  0.00   77.82   74.61    2.86    0.00    0.00
 2000 366   134     0     0     9.9   13.9   16569    7.5    6.4   0.5   0.4   0.3   0.5   0.5   0.5   0.5   0.5   0.0   0.0   0.1   0.5   0.6   0.4   0.4  0.52  0.35  0.18  0.00  0.00   78.54   75.23    2.86    0.00    0.00
 2001 001   135     0     0     9.9   14.0   16568    7.7    6.3   0.4   0.5   0.4   0.4   0.5   0.5   0.5   0.5   0.0   0.0   0.1   0.5   0.6   0.4   0.4  0.51  0.35  0.18  0.00  0.00   79.23   75.75    2.86    0.00    0.00
 2001 002   136     0     0     9.9   14.2   16567    7.8    6.3   0.6   0.4   0.5   0.5   0.5   0.5   0.5   0.5   0.0   0.0   0.1   0.5   0.6   0.4   0.4  0.52  0.34  0.18  0.00  0.00   79.88   76.31    2.86    0.00    0.00
 2001 003   137     0     0     9.9   14.6   16567    8.4    6.2   0.7   0.6   0.5   0.5   0.5   0.5   0.5   0.5   0.0   0.0   0.1   0.4   0.5   0.4   0.4  0.51  0.34  0.18  0.00  0.00   80.51   76.86    2.86    0.00    0.00
 2001 004   138     0     0     9.9   13.9   16566    7.8    6.2   0.7   0.5   0.3   0.5   0.5   0.5   0.5   0.5   0.0   0.0   0.1   0.4   0.5   0.4   0.4  0.52  0.34  0.17  0.00  0.00   81.12   77.45    2.86    0.00    0.00
 2001 005   139     0     0     9.9   13.8   16566    7.7    6.1   0.3   0.4   0.4   0.5   0.5   0.5   0.5   0.5   0.0   0.0   0.1   0.4   0.5   0.4   0.4  0.51  0.34  0.17  0.00  0.00   81.78   78.03    2.86    0.00    0.00
 2001 006   140     0     0     9.9   14.3   16565    8.2    6.0   0.6   0.6   0.5   0.5   0.5   0.5   0.5   0.5   0.0   0.0   0.0   0.3   0.5   0.4   0.4  0.52  0.34  0.17  0.00  0.00   82.42   78.70    2.86    0.00    0.00
 2001 007   141     0     0     9.9   14.1   16564    8.1    6.0   0.1   0.5   0.8   0.5   0.5   0.5   0.5   0.5   0.0   0.0   0.1   0.3   0.5   0.4   0.4  0.51  0.33  0.17  0.00  0.00   83.04   79.26    2.86    0.00    0.00
 2001 008   142     0     0     9.9   13.8   16564    7.4    6.4   0.4   0.5   0.2   0.5   0.5   0.5   0.5   0.5   0.0   0.0   0.1   0.5   0.7   0.4   0.4  0.52  0.33  0.16  0.00  0.00   83.87   79.65    2.86    0.00    0.00
 2001 009   143     0     0     9.9   14.3   16563    7.9    6.4   0.4   0.5   0.4   0.5   0.5   0.5   0.5   0.5   0.0   0.0   0.1   0.6   0.6   0.4   0.4  0.51  0.33  0.16  0.00  0.00   84.70   80.14    2.86    0.00    0.00
 2001 010   144     0     0     9.9   14.2   16562    7.6    6.6   0.5   0.5   0.4   0.2   0.6   0.5   0.5   0.5   0.0   0.0   0.1   0.6   0.6   0.5   0.4  0.52  0.33  0.16  0.00  0.00   85.53   80.50    2.86    0.00    0.00
 2001 011   145     0     0     9.9   14.1   16561    7.3    6.8   0.5   0.5   0.4   0.3   0.4   0.5   0.5   0.5   0.0   0.0   0.2   0.6   0.6   0.5   0.4  0.51  0.32  0.16  0.00  0.00   86.32   80.70    2.86    0.00    0.00
 2001 012   146     0     0     9.9   14.0   16561    7.4    6.6   0.8   0.4   0.4   0.3   0.5   0.5   0.5   0.5   0.0   0.0   0.1   0.5   0.6   0.5   0.4  0.52  0.32  0.16  0.00  0.00   87.08   81.25    2.86    0.00    0.00
 2001 013   147     0     0     9.9   14.1   16560    7.6    6.5   0.4   0.6   0.5   0.3   0.5   0.5   0.5   0.5   0.0   0.0   0.1   0.5   0.6   0.5   0.4  0.51  0.32  0.16  0.00  0.00   87.81   81.71    2.86    0.00    0.00
 2001 014   148     0     0     9.9   13.7   16559    7.2    6.5   0.4   0.4   0.4   0.3   0.5   0.5   0.5   0.5   0.0   0.0   0.1   0.5   0.6   0.5   0.4  0.52  0.32  0.15  0.00  0.00   88.53   82.26    2.86    0.00    0.00
 2001 015   149     0     0     9.9   13.7   16559    6.9    6.8   0.6   0.4   0.4   0.3   0.3   0.5   0.5   0.5   0.0   0.0   0.1   0.6   0.6   0.5   0.4  0.51  0.32  0.15  0.00  0.00   89.25   82.52    2.86    0.00    0.00
 2001 016   150     0     0     9.9   13.9   16558    7.1    6.8   0.4   0.4   0.4   0.4   0.3   0.5   0.5   0.5   0.0   0.0   0.1   0.6   0.6   0.5   0.4  0.52  0.32  0.15  0.00  0.00   90.02   82.83    2.86    0.00    0.00
 2001 017   151     0     0     9.9   14.0   16557    7.5    6.5   0.6   0.6   0.5   0.4   0.3   0.5   0.5   0.5   0.0   0.0   0.1   0.5   0.6   0.5   0.4  0.51  0.31  0.15  0.00  0.00   90.81   83.51    2.86    0.00    0.00
 2001 018   152     0     0     9.9   14.1   16557    7.5    6.6   0.4   0.4   0.5   0.4   0.4   0.5   0.5   0.5   0.0   0.0   0.1   0.5   0.6   0.5   0.5  0.52  0.31  0.15  0.00  0.00   91.62   84.12    2.86    0.00    0.00
 2001 019   153     0     0     9.9   14.1   16556    7.6    6.5   0.6   0.6   0.3   0.5   0.4   0.5   0.5   0.5   0.0   0.0   0.1   0.5   0.6   0.5   0.5  0.51  0.31  0.15  0.00  0.00   92.42   84.72    2.86    0.00    0.00
 2001 020   154     0     0     9.9   14.2   16555    7.6    6.6   0.4   0.4   0.4   0.5   0.4   0.5   0.5   0.5   0.0   0.0   0.1   0.5   0.6   0.5   0.5  0.52  0.31  0.15  0.00  0.00   93.20   85.31    2.86    0.00    0.00
 2001 021   155     0     0     9.9   14.1   16555    7.5    6.6   0.6   0.5   0.5   0.3   0.5   0.5   0.5   0.5   0.0   0.0   0.1   0.5   0.6   0.5   0.5  0.51  0.31  0.14  0.00  0.00   93.96   85.89    2.86    0.00    0.00
 2001 022   156     0     0     9.9   14.3   16554    7.7    6.6   0.6   0.4   0.5   0.3   0.5   0.5   0.5   0.5   0.0   0.0   0.1   0.5   0.6   0.5   0.5  0.52  0.31  0.14  0.00  0.00   94.68   86.46    2.86    0.00    0.00
 2001 023   157     0     0     9.9   14.3   16553    7.7    6.6   0.7   0.5   0.3   0.4   0.5   0.5   0.5   0.5   0.0   0.0   0.1   0.5   0.6   0.5   0.5  0.51  0.30  0.14  0.00  0.00   95.40   87.01    2.86    0.00    0.00
 2001 024   158     0     0     9.9   13.9   16553    7.3    6.6   0.7   0.4   0.4   0.4   0.4   0.5   0.5   0.5   0.0   0.0   0.1   0.4   0.6   0.5   0.5  0.52  0.30  0.14  0.00  0.00   96.11   87.59    2.86    0.00    0.00
 2001 025   159     0     0     9.9   14.3   16552    7.8    6.5   0.8   0.6   0.5   0.5   0.4   0.5   0.5   0.5   0.0   0.0   0.1   0.4   0.6   0.5   0.5  0.51  0.30  0.14  0.00  0.00   96.81   88.19    2.86    0.00    0.00
 2001 026   160     0     0     9.9   14.6   16551    8.1    6.5   0.9   0.5   0.5   0.5   0.4   0.5   0.5   0.5   0.0   0.0   0.1   0.4   0.5   0.5   0.5  0.52  0.30  0.14  0.00  0.00   97.51   88.80    2.86    0.00    0.00
 2001 027   161     0     0     9.9   13.8   16551    7.4    6.4   0.1   0.6   0.4   0.4   0.5   0.5   0.5   0.5   0.0   0.0   0.1   0.3   0.5   0.5   0.5  0.51  0.30  0.14  0.00  0.00   98.25   89.43    2.86    0.00    0.00
 2001 028   162     0     0     9.9   14.1   16550    7.7    6.4   0.4   0.4   0.5   0.5   0.5   0.5   0.5   0.5   0.0   0.0   0.1   0.4   0.5   0.5   0.5  0.52  0.30  0.14  0.00  0.00   99.04   90.10    2.86    0.00    0.00
 2001 029   163     0     0     9.9   14.6   16549    8.2    6.5   0.5   0.5   0.5   0.5   0.5   0.5   0.5   0.5   0.0   0.0   0.1   0.4   0.5   0.5   0.5  0.51  0.30  0.14  0.00  0.00   99.80   90.68    2.86    0.00    0.00
 2001 030   164     0     0     9.9   14.3   16548    7.8    6.5   0.7   0.4   0.4   0.5   0.4   0.5   0.5   0.5   0.0   0.0   0.1   0.4   0.5   0.5   0.5  0.52  0.30  0.13  0.00  0.00  100.51   91.29    2.86    0.00    0.00
 2001 031   165     0     0     9.9   14.2   16548    7.8    6.5   0.7   0.5   0.4   0.4   0.5   0.5   0.5   0.5   0.0   0.0   0.1   0.4   0.5   0.5   0.5  0.51  0.29  0.13  0.00  0.00  101.17   91.85    2.86    0.00    0.00
 2001 032   166     0     0     9.9   14.4   16547    8.0    6.5   0.8   0.4   0.5   0.5   0.5   0.5   0.5   0.5   0.0   0.0   0.1   0.4   0.5   0.5   0.5  0.52  0.29  0.13  0.00  0.00  101.79   92.39    2.86    0.00    0.00
 2001 033   167     0     0     9.9   14.9   16547    8.5    6.4   0.9   0.5   0.6   0.5   0.5   0.5   0.5   0.5   0.0   0.0   0.1   0.4   0.5   0.5   0.5  0.51  0.29  0.13  0.00  0.00  102.41   92.94    2.86    0.00    0.00
 2001 034   168     0     0     9.9   15.4   16546    9.0    6.4   1.0   0.7   0.6   0.6   0.6   0.5   0.5   0.5   0.0   0.0   0.1   0.4   0.5   0.5   0.5  0.52  0.29  0.13  0.00  0.00  103.05   93.54    2.86    0.00    0.00
 2001 035   169     0     0     9.9   15.9   16546    9.4    6.4   1.1   0.8   0.7   0.6   0.6   0.5   0.5   0.5   0.0   0.0   0.1   0.4   0.6   0.5   0.5  0.53  0.29  0.13  0.00  0.00  103.69   94.11    2.86    0.00    0.00
 2001 036   170     0     0     9.9   16.5   16545   10.0    6.5   1.3   0.9   0.8   0.7   0.6   0.5   0.5   0.5   0.0   0.0   0.1   0.3   0.6   0.5   0.5  0.54  0.29  0.13  0.00  0.00  104.32   94.70    2.86    0.00    0.00
 2001 037   171     0     0     9.9   17.2   16544   10.6    6.6   1.4   1.1   0.8   0.7   0.7   0.5   0.6   0.5   0.0   0.0   0.1   0.3   0.6   0.5   0.5  0.54  0.29  0.13  0.00  0.00  104.94   95.26    2.86    0.00    0.00
 2001 038   172     0     0     9.9   17.8   16544   11.2    6.6   1.5   1.2   0.9   0.8   0.7   0.5   0.6   0.5   0.0   0.0   0.1   0.3   0.6   0.5   0.5  0.55  0.29  0.13  0.00  0.00  105.56   95.84    2.86    0.00    0.00
 2001 039   173     0     0     9.9   18.4   16543   11.7    6.6   0.7   1.4   1.2   0.8   0.7   0.5   0.6   0.5   0.0   0.0   0.1   0.3   0.6   0.5   0.5  0.56  0.29  0.13  0.00  0.00  106.19   96.41    2.86    0.00    0.00

*DSSAT Cropping System Model Ver. 4.0.2.000               Aug 23, 2016; 17:50:38

*RUN   3        : UYSB                    
 MODEL          : CRGRO040 - Soybean         
 EXPERIMENT     : UYSB0265 SB    late to create DSS                             
 TREATMENT  1   : UYSB                    

@YEAR DOY   DAS  NAPC  NI#M    NLCC   NIAD    NOAD   NITD   NHTD  NI1D  NI2D  NI3D  NI4D  NI5D  NI6D  NI7D  NI8D  NI9D  NI10  NH1D  NH2D  NH3D  NH4D  NH5D  NH6D  NH7D  NH8D  NH9D  NH10    NMNC    NITC    NDNC    NIMC    AMLC
 2001 232     0     0     0     0.0   54.7   16646   31.9   22.9   5.9   5.2   5.1   4.7   2.6   0.0   0.1   0.1   0.0   0.0   0.6   1.3   1.5   1.4   1.5  1.50  1.47  1.45  0.00  0.00    0.50    1.58    0.00    0.00    0.00
 2001 233     1     0     0     0.0   55.2   16645   33.1   22.1   6.3   5.5   5.2   4.8   2.6   0.0   0.1   0.1   0.0   0.0   0.3   1.2   1.4   1.4   1.4  1.51  1.43  1.41  0.00  0.00    1.00    2.81    0.00    0.00    0.00
 2001 234     2     0     0     0.0   55.7   16645   34.1   21.6   6.5   5.6   5.3   4.9   2.7   0.1   0.1   0.2   0.0   0.0   0.2   1.1   1.4   1.3   1.4  1.51  1.40  1.37  0.00  0.00    1.49    3.87    0.00    0.00    0.00
 2001 235     3     0     0     0.0   56.2   16644   35.1   21.1   6.7   5.8   5.5   4.9   2.8   0.1   0.2   0.2   0.0   0.0   0.1   1.0   1.4   1.3   1.3  1.51  1.37  1.33  0.00  0.00    1.98    4.86    0.00    0.00    0.00
 2001 236     4     0     0     0.0   56.7   16644   36.1   20.6   6.8   6.0   5.6   5.0   2.8   0.1   0.2   0.2   0.0   0.0   0.1   0.9   1.4   1.3   1.3  1.51  1.34  1.29  0.00  0.00    2.48    5.80    0.00    0.00    0.00
 2001 237     5     0     0     0.0   57.2   16643   37.0   20.2   6.9   6.1   5.7   5.1   2.9   0.1   0.3   0.3   0.0   0.0   0.1   0.9   1.4   1.2   1.2  1.52  1.31  1.25  0.00  0.00    2.98    6.71    0.00    0.00    0.00
 2001 238     6     0     0     0.0   57.7   16643   37.9   19.8   6.9   6.3   5.8   5.1   2.9   0.1   0.3   0.3   0.0   0.0   0.1   0.8   1.3   1.2   1.2  1.52  1.28  1.21  0.00  0.00    3.50    7.63    0.00    0.00    0.00
 2001 239     7     0     0     0.0   58.3   16642   38.9   19.4   6.7   6.6   5.9   5.2   3.0   0.1   0.3   0.4   0.0   0.0   0.1   0.7   1.3   1.1   1.2  1.52  1.25  1.18  0.00  0.00    4.08    8.58    0.00    0.00    0.00
 2001 240     8     0     0     0.0   58.9   16641   39.8   19.1   6.7   6.8   6.0   5.3   3.1   0.2   0.4   0.4   0.0   0.0   0.1   0.7   1.3   1.1   1.1  1.52  1.22  1.14  0.00  0.00    4.66    9.53    0.00    0.00    0.00
 2001 241     9     0     0     0.0   59.5   16641   40.7   18.8   6.9   6.9   6.2   5.4   3.1   0.2   0.4   0.4   0.0   0.0   0.1   0.7   1.3   1.1   1.1  1.53  1.20  1.11  0.00  0.00    5.25   10.44    0.00    0.00    0.00
 2001 242    10     0     0     0.0   60.1   16640   41.6   18.4   7.0   7.0   6.3   5.4   3.2   0.2   0.5   0.5   0.0   0.0   0.1   0.6   1.3   1.0   1.1  1.53  1.17  1.07  0.00  0.00    5.84   11.35    0.00    0.00    0.00
 2001 243    11     0     0     0.0   60.7   16640   42.5   18.2   3.9   8.7   6.5   5.5   3.2   0.2   0.5   0.5   0.0   0.0   0.1   0.6   1.3   1.0   1.0  1.53  1.14  1.04  0.00  0.00    6.46   12.27    0.00    0.00    0.00
 2001 244    12     0     0     0.0   61.3   16639   43.3   18.0   1.2   4.4   6.2   6.5   5.1   0.6   0.6   0.6   0.0   0.0   0.1   0.7   1.3   1.0   1.0  1.54  1.12  1.01  0.00  0.00    7.06   13.03    0.00    0.00    0.00
 2001 245    13     0     0     0.1   61.8   16638   43.4   18.4   0.8   3.6   5.8   6.0   5.3   1.1   0.7   0.6   0.0   0.0   0.2   0.8   1.3   1.0   1.0  1.55  1.12  1.00  0.00  0.00    7.66   13.18    0.00    0.00    0.00
 2001 246    14     0     0     0.2   62.3   16638   43.4   18.9   0.8   3.6   5.7   5.9   5.3   1.2   0.7   0.6   0.0   0.0   0.3   0.8   1.4   1.0   1.1  1.57  1.13  1.00  0.00  0.00    8.26   13.33    0.00    0.00    0.00
 2001 247    15     0     0     0.4   62.6   16637   43.3   19.3   0.8   3.5   5.6   5.8   5.2   1.3   0.7   0.6   0.0   0.0   0.3   0.9   1.5   1.1   1.1  1.59  1.13  1.00  0.00  0.00    8.84   13.50    0.00    0.00    0.00
[...]
 2003 318    86     0     0     1.9   56.9   16594   45.7   11.2   1.3   2.1   4.0   5.7   5.6   2.0   1.4   1.3   0.0   0.0   0.1   0.5   0.8   0.6   0.6  1.31  0.51  0.29  0.00  0.00   51.86   56.59    0.38    0.00    0.00
 2003 319    87     0     0     1.9   53.6   16593   42.8   10.8   0.9   1.8   3.4   5.4   5.3   1.9   1.4   1.3   0.0   0.0   0.1   0.5   0.7   0.6   0.6  1.25  0.50  0.28  0.00  0.00   52.57   57.05    0.38    0.00    0.00
 2003 320    88     0     0     1.9   49.1   16593   38.8   10.3   0.7   1.6   2.9   4.9   4.9   1.8   1.3   1.3   0.0   0.0   0.1   0.6   0.7   0.5   0.5  1.13  0.51  0.28  0.00  0.00   53.27   57.27    0.41    0.00    0.00
 2003 321    89     0     0     3.1   46.2   16592   35.8   10.3   0.2   0.8   2.0   3.4   4.2   2.4   1.7   1.4   0.0   0.0   0.2   0.6   0.7   0.6   0.5  1.09  0.51  0.28  0.00  0.00   53.92   57.40    0.44    0.00    0.00
 2003 322    90     0     0     3.7   43.6   16592   33.5   10.2   0.4   0.5   1.5   2.9   3.8   2.4   1.7   1.5   0.0   0.0   0.1   0.6   0.7   0.6   0.5  1.07  0.51  0.28  0.00  0.00   54.57   57.62    0.54    0.00    0.00
 2003 323    91     0     0     4.4   41.3   16591   31.1   10.1   0.4   0.4   1.2   2.6   3.5   2.3   1.7   1.4   0.0   0.0   0.2   0.6   0.7   0.6   0.5  1.05  0.52  0.28  0.00  0.00   55.22   57.71    0.63    0.00    0.00
 2003 324    92     0     0     4.7   36.5   16590   27.0    9.5   0.7   0.4   0.6   2.1   3.0   2.1   1.6   1.4   0.0   0.0   0.1   0.6   0.6   0.5   0.5  0.96  0.51  0.28  0.00  0.00   55.90   57.97    0.69    0.00    0.00
 2003 325    93     0     0     4.9   32.6   16590   23.7    8.9   0.6   0.5   0.3   1.8   2.5   1.8   1.5   1.3   0.0   0.0   0.1   0.5   0.6   0.5   0.5  0.86  0.51  0.29  0.00  0.00   56.54   58.34    0.71    0.00    0.00
 2003 326    94     0     0     4.9   27.6   16589   19.3    8.3   0.6   0.4   0.4   1.2   1.9   1.5   1.3   1.2   0.0   0.0   0.1   0.5   0.6   0.5   0.5  0.70  0.51  0.29  0.00  0.00   57.19   58.71    0.72    0.00    0.00
 2003 327    95     0     0     4.9   22.6   16588   15.2    7.5   0.5   0.6   0.4   0.8   1.3   1.1   1.0   1.1   0.0   0.0   0.1   0.5   0.6   0.5   0.5  0.52  0.51  0.29  0.00  0.00   57.89   59.22    0.72    0.00    0.00
 2003 328    96     0     0     4.9   19.4   16587   11.8    7.6   0.6   0.3   0.5   0.5   0.9   0.8   0.8   1.0   0.0   0.0   0.1   0.6   0.6   0.5   0.5  0.52  0.50  0.29  0.00  0.00   58.68   59.68    0.72    0.00    0.00
 2003 329    97     0     0     4.9   17.5   16587   10.1    7.4   0.4   0.5   0.6   0.4   0.7   0.6   0.7   0.9   0.0   0.0   0.1   0.5   0.6   0.5   0.5  0.52  0.49  0.29  0.00  0.00   59.45   60.31    0.72    0.00    0.00
 2003 330    98     0     0     4.9   15.8   16586    8.4    7.4   0.4   0.6   0.4   0.5   0.5   0.4   0.6   0.8   0.0   0.0   0.1   0.5   0.6   0.5   0.5  0.52  0.49  0.29  0.00  0.00   60.25   60.92    0.72    0.00    0.00
 2003 331    99     0     0     4.9   15.5   16585    7.7    7.8   0.4   0.3   0.4   0.5   0.5   0.4   0.5   0.7   0.0   0.0   0.3   0.6   0.6   0.5   0.5  0.52  0.48  0.29  0.00  0.00   61.07   61.16    0.72    0.00    0.00
 2003 332   100     0     0     4.9   15.6   16584    7.9    7.7   0.8   0.3   0.4   0.5   0.5   0.5   0.5   0.7   0.0   0.0   0.0   0.6   0.6   0.5   0.5  0.52  0.48  0.29  0.00  0.00   61.87   61.62    0.72    0.00    0.00
 2003 333   101     0     0     4.9   14.9   16584    7.4    7.4   0.3   0.5   0.5   0.5   0.3   0.5   0.5   0.6   0.0   0.0   0.1   0.5   0.6   0.5   0.5  0.52  0.47  0.28  0.00  0.00   62.64   62.16    0.72    0.00    0.00
 2003 334   102     0     0     4.9   14.8   16583    7.4    7.3   0.5   0.7   0.5   0.3   0.3   0.5   0.5   0.5   0.0   0.0   0.1   0.5   0.6   0.5   0.5  0.52  0.47  0.28  0.00  0.00   63.45   62.82    0.72    0.00    0.00
 2003 335   103     0     0     4.9   14.3   16582    6.9    7.4   0.3   0.4   0.3   0.3   0.4   0.5   0.5   0.5   0.0   0.0   0.2   0.5   0.6   0.5   0.5  0.52  0.47  0.27  0.00  0.00   64.24   63.34    0.72    0.00    0.00
 2003 336   104     0     0     4.9   14.4   16581    7.1    7.3   0.6   0.6   0.4   0.4   0.4   0.5   0.4   0.4   0.0   0.0   0.1   0.5   0.6   0.5   0.5  0.52  0.47  0.27  0.00  0.00   65.01   64.03    0.72    0.00    0.00
 2003 337   105     0     0     4.9   14.4   16581    7.1    7.3   0.3   0.4   0.5   0.4   0.4   0.5   0.4   0.5   0.0   0.0   0.1   0.5   0.6   0.5   0.5  0.52  0.46  0.26  0.00  0.00   65.76   64.56    0.72    0.00    0.00
 2003 338   106     0     0     4.9   14.9   16580    7.7    7.3   0.4   0.6   0.5   0.5   0.5   0.5   0.4   0.5   0.0   0.0   0.1   0.5   0.6   0.5   0.5  0.52  0.46  0.26  0.00  0.00   66.52   65.16    0.72    0.00    0.00
 2003 339   107     0     0     4.9   14.7   16579    7.2    7.5   0.5   0.3   0.3   0.5   0.5   0.5   0.4   0.5   0.0   0.0   0.2   0.6   0.6   0.5   0.5  0.52  0.46  0.25  0.00  0.00   67.26   65.53    0.72    0.00    0.00
 2003 340   108     0     0     4.9   15.2   16579    7.9    7.2   0.8   0.5   0.4   0.5   0.5   0.5   0.5   0.5   0.0   0.0   0.1   0.5   0.6   0.5   0.5  0.52  0.45  0.25  0.00  0.00   68.03   66.24    0.72    0.00    0.00
 2003 341   109     0     0     4.9   14.5   16578    7.2    7.2   0.4   0.6   0.5   0.3   0.3   0.5   0.5   0.5   0.0   0.0   0.1   0.5   0.6   0.5   0.5  0.52  0.45  0.24  0.00  0.00   68.79   66.79    0.72    0.00    0.00
 2003 342   110     0     0     4.9   13.9   16577    6.7    7.2   0.5   0.4   0.5   0.4   0.4   0.3   0.5   0.5   0.0   0.0   0.1   0.5   0.6   0.5   0.5  0.52  0.45  0.24  0.00  0.00   69.55   67.39    0.72    0.00    0.00
 2003 343   111     0     0     4.9   13.8   16576    6.6    7.3   0.2   0.5   0.3   0.4   0.4   0.3   0.5   0.5   0.0   0.0   0.2   0.5   0.6   0.5   0.5  0.52  0.45  0.24  0.00  0.00   70.29   67.88    0.72    0.00    0.00
 2003 344   112     0     0     4.9   14.0   16576    6.8    7.2   0.5   0.4   0.4   0.4   0.4   0.3   0.5   0.5   0.0   0.0   0.1   0.5   0.6   0.5   0.5  0.52  0.44  0.23  0.00  0.00   71.00   68.49    0.72    0.00    0.00
 2003 345   113     0     0     4.9   14.0   16575    6.8    7.2   0.6   0.5   0.4   0.5   0.5   0.4   0.4   0.4   0.0   0.0   0.1   0.5   0.6   0.5   0.5  0.52  0.44  0.23  0.00  0.00   71.71   69.02    0.72    0.00    0.00
 2003 346   114     0     0     4.9   14.0   16574    6.9    7.2   0.4   0.4   0.5   0.5   0.5   0.4   0.4   0.5   0.0   0.0   0.1   0.5   0.6   0.5   0.5  0.52  0.44  0.23  0.00  0.00   72.43   69.57    0.72    0.00    0.00
 2003 347   115     0     0     4.9   14.2   16574    7.0    7.1   0.5   0.5   0.6   0.3   0.5   0.4   0.4   0.5   0.0   0.0   0.1   0.5   0.6   0.5   0.5  0.52  0.44  0.22  0.00  0.00   73.11   70.11    0.72    0.00    0.00
 2003 348   116     0     0     4.9   13.4   16573    6.3    7.1   0.5   0.4   0.3   0.4   0.4   0.4   0.4   0.5   0.0   0.0   0.1   0.5   0.6   0.5   0.5  0.52  0.44  0.22  0.00  0.00   73.78   70.65    0.72    0.00    0.00
 2003 349   117     0     0     4.9   13.8   16572    6.8    7.1   0.4   0.6   0.4   0.4   0.4   0.4   0.4   0.5   0.0   0.0   0.1   0.5   0.5   0.5   0.5  0.52  0.43  0.22  0.00  0.00   74.44   71.20    0.72    0.00    0.00
 2003 350   118     0     0     4.9   14.0   16572    6.7    7.3   0.4   0.3   0.5   0.5   0.4   0.4   0.5   0.5   0.0   0.0   0.2   0.6   0.6   0.5   0.5  0.52  0.43  0.22  0.00  0.00   75.14   71.54    0.72    0.00    0.00
 2003 351   119     0     0     4.9   14.4   16571    7.3    7.1   0.6   0.4   0.5   0.5   0.4   0.4   0.5   0.5   0.0   0.0   0.1   0.5   0.6   0.5   0.5  0.52  0.43  0.21  0.00  0.00   75.83   72.15    0.72    0.00    0.00
 2003 352   120     0     0     4.9   14.2   16570    7.2    7.1   0.4   0.5   0.3   0.5   0.5   0.4   0.5   0.5   0.0   0.0   0.1   0.5   0.6   0.5   0.5  0.52  0.43  0.21  0.00  0.00   76.50   72.67    0.72    0.00    0.00
 2003 353   121     0     0     4.9   14.1   16570    7.1    7.0   0.5   0.4   0.4   0.4   0.5   0.4   0.5   0.5   0.0   0.0   0.1   0.5   0.5   0.5   0.5  0.52  0.43  0.21  0.00  0.00   77.17   73.21    0.72    0.00    0.00
 2003 354   122     0     0     4.9   14.5   16569    7.5    7.0   0.5   0.5   0.4   0.4   0.5   0.4   0.5   0.5   0.0   0.0   0.1   0.5   0.5   0.5   0.5  0.52  0.43  0.21  0.00  0.00   77.82   73.74    0.72    0.00    0.00
 2003 355   123     0     0     4.9   14.4   16569    7.4    7.0   0.2   0.2   0.5   0.5   0.5   0.4   0.5   0.5   0.0   0.0   0.1   0.5   0.5   0.5   0.5  0.52  0.42  0.20  0.00  0.00   78.47   74.28    0.72    0.00    0.00
 2003 356   124     0     0     4.9   14.0   16568    6.5    7.4   0.4   0.2   0.3   0.4   0.5   0.5   0.4   0.4   0.0   0.0   0.1   0.6   0.6   0.5   0.5  0.52  0.42  0.20  0.00  0.00   79.24   74.50    0.72    0.00    0.00
 2003 357   125     0     0     4.9   14.2   16567    7.0    7.2   0.6   0.4   0.3   0.4   0.5   0.5   0.4   0.5   0.0   0.0   0.1   0.5   0.6   0.5   0.5  0.52  0.42  0.20  0.00  0.00   80.03   74.93    0.72    0.00    0.00
 2003 358   126     0     0     4.9   14.4   16566    7.3    7.1   0.4   0.6   0.3   0.4   0.5   0.5   0.5   0.5   0.0   0.0   0.1   0.5   0.6   0.5   0.5  0.52  0.42  0.20  0.00  0.00   80.80   75.41    0.72    0.00    0.00
 2003 359   127     0     0     4.9   14.5   16566    7.4    7.1   0.6   0.4   0.4   0.5   0.5   0.5   0.5   0.5   0.0   0.0   0.1   0.5   0.6   0.5   0.5  0.52  0.42  0.20  0.00  0.00   81.55   75.87    0.72    0.00    0.00
 2003 360   128     0     0     4.9   14.9   16565    7.8    7.0   0.5   0.5   0.5   0.5   0.5   0.5   0.5   0.5   0.0   0.0   0.1   0.5   0.6   0.5   0.5  0.52  0.42  0.19  0.00  0.00   82.32   76.46    0.72    0.00    0.00
 2003 361   129     0     0     4.9   14.6   16564    7.6    7.0   0.4   0.4   0.6   0.5   0.3   0.5   0.5   0.5   0.0   0.0   0.1   0.5   0.6   0.5   0.5  0.52  0.42  0.19  0.00  0.00   83.08   77.04    0.72    0.00    0.00
 2003 362   130     0     0     4.9   14.3   16564    7.1    7.2   0.4   0.4   0.3   0.4   0.3   0.5   0.5   0.5   0.0   0.0   0.2   0.6   0.6   0.5   0.5  0.52  0.42  0.19  0.00  0.00   83.87   77.41    0.72    0.00    0.00
 2003 363   131     0     0     4.9   14.8   16563    7.6    7.1   0.8   0.5   0.4   0.5   0.4   0.5   0.5   0.5   0.0   0.0   0.1   0.6   0.6   0.5   0.5  0.52  0.41  0.19  0.00  0.00   84.65   77.97    0.72    0.00    0.00
 2003 364   132     0     0     4.9   13.7   16562    6.7    7.0   0.4   0.7   0.5   0.5   0.4   0.3   0.4   0.5   0.0   0.0   0.1   0.5   0.6   0.5   0.5  0.52  0.41  0.19  0.00  0.00   85.44   78.57    0.72    0.00    0.00
 2003 365   133     0     0     4.9   13.8   16561    6.8    7.0   0.5   0.4   0.5   0.5   0.4   0.3   0.4   0.5   0.0   0.0   0.1   0.5   0.6   0.5   0.5  0.52  0.41  0.19  0.00  0.00   86.21   79.15    0.72    0.00    0.00
 2004 001   134     0     0     4.9   13.2   16561    6.2    7.0   0.4   0.5   0.3   0.3   0.4   0.3   0.4   0.5   0.0   0.0   0.1   0.5   0.6   0.5   0.5  0.52  0.41  0.19  0.00  0.00   86.94   79.69    0.72    0.00    0.00
 2004 002   135     0     0     4.9   13.3   16560    6.3    7.0   0.6   0.4   0.4   0.3   0.5   0.3   0.4   0.5   0.0   0.0   0.1   0.5   0.6   0.5   0.5  0.52  0.41  0.18  0.00  0.00   87.67   80.23    0.72    0.00    0.00
 2004 003   136     0     0     4.9   13.7   16559    6.8    7.0   0.6   0.5   0.4   0.4   0.5   0.3   0.4   0.5   0.0   0.0   0.1   0.5   0.6   0.5   0.5  0.52  0.41  0.18  0.00  0.00   88.40   80.80    0.72    0.00    0.00
 2004 004   137     0     0     4.9   13.4   16559    6.5    6.9   0.6   0.4   0.5   0.4   0.3   0.3   0.5   0.5   0.0   0.0   0.1   0.4   0.6   0.5   0.5  0.52  0.41  0.18  0.00  0.00   89.14   81.38    0.72    0.00    0.00
 2004 005   138     0     0     4.9   13.5   16558    6.6    6.9   0.6   0.5   0.3   0.5   0.3   0.3   0.5   0.5   0.0   0.0   0.1   0.4   0.6   0.5   0.5  0.52  0.41  0.18  0.00  0.00   89.87   81.97    0.72    0.00    0.00
 2004 006   139     0     0     4.9   13.7   16557    6.9    6.8   0.7   0.4   0.4   0.5   0.4   0.3   0.5   0.5   0.0   0.0   0.1   0.4   0.5   0.5   0.5  0.52  0.41  0.18  0.00  0.00   90.60   82.58    0.72    0.00    0.00
 2004 007   140     0     0     4.9   14.2   16557    7.5    6.7   0.8   0.6   0.5   0.6   0.4   0.3   0.5   0.5   0.0   0.0   0.1   0.3   0.5   0.5   0.5  0.52  0.41  0.18  0.00  0.00   91.32   83.21    0.72    0.00    0.00
 2004 008   141     0     0     4.9   13.9   16556    7.2    6.7   0.4   0.5   0.6   0.4   0.5   0.3   0.5   0.5   0.0   0.0   0.1   0.3   0.5   0.5   0.5  0.52  0.40  0.18  0.00  0.00   92.08   83.84    0.72    0.00    0.00
 2004 009   142     0     0     4.9   14.0   16555    7.3    6.6   0.6   0.5   0.4   0.5   0.5   0.4   0.5   0.5   0.0   0.0   0.0   0.3   0.5   0.5   0.5  0.52  0.40  0.17  0.00  0.00   92.81   84.53    0.72    0.00    0.00
 2004 010   143     0     0     4.9   14.2   16554    7.6    6.6   0.6   0.6   0.5   0.5   0.5   0.4   0.4   0.5   0.0   0.0   0.1   0.3   0.5   0.5   0.5  0.52  0.40  0.17  0.00  0.00   93.50   85.11    0.72    0.00    0.00
 2004 011   144     0     0     4.9   14.0   16554    7.5    6.6   0.8   0.6   0.6   0.4   0.4   0.4   0.4   0.5   0.0   0.0   0.0   0.3   0.5   0.5   0.5  0.52  0.40  0.17  0.00  0.00   94.16   85.76    0.72    0.00    0.00
 2004 012   145     0     0     4.9   14.2   16553    7.6    6.5   0.8   0.6   0.5   0.5   0.5   0.4   0.5   0.5   0.0   0.0   0.1   0.3   0.5   0.5   0.5  0.52  0.40  0.17  0.00  0.00   94.77   86.28    0.72    0.00    0.00
 2004 013   146     0     0     4.9   14.2   16553    7.8    6.5   1.0   0.6   0.5   0.5   0.5   0.4   0.5   0.5   0.0   0.0   0.0   0.3   0.5   0.5   0.5  0.51  0.40  0.17  0.00  0.00   95.34   86.83    0.72    0.00    0.00
 2004 014   147     0     0     4.9   14.4   16552    8.0    6.5   1.1   0.6   0.6   0.5   0.5   0.4   0.5   0.5   0.0   0.0   0.1   0.2   0.5   0.5   0.5  0.51  0.40  0.17  0.00  0.00   95.88   87.32    0.72    0.00    0.00
 2004 015   148     0     0     4.9   14.5   16552    8.1    6.4   1.2   0.6   0.6   0.5   0.5   0.4   0.5   0.5   0.0   0.0   0.1   0.2   0.5   0.5   0.5  0.51  0.39  0.17  0.00  0.00   96.38   87.82    0.72    0.00    0.00
 2004 016   149     0     0     4.9   14.6   16551    8.2    6.3   1.3   0.6   0.6   0.5   0.5   0.4   0.5   0.5   0.0   0.0   0.1   0.2   0.5   0.5   0.5  0.51  0.39  0.17  0.00  0.00   96.86   88.27    0.72    0.00    0.00
 2004 017   150     0     0     4.9   14.9   16551    8.6    6.3   1.4   0.7   0.6   0.5   0.5   0.4   0.5   0.5   0.0   0.0   0.1   0.2   0.5   0.5   0.5  0.51  0.39  0.17  0.00  0.00   97.31   88.73    0.72    0.00    0.00
 2004 018   151     0     0     4.9   14.7   16550    8.5    6.2   1.5   0.7   0.6   0.5   0.5   0.4   0.5   0.5   0.0   0.0   0.1   0.2   0.5   0.4   0.5  0.51  0.39  0.16  0.00  0.00   97.75   89.17    0.72    0.00    0.00
 2004 019   152     0     0     4.9   14.9   16550    8.7    6.2   1.5   0.7   0.6   0.5   0.5   0.4   0.5   0.5   0.0   0.0   0.1   0.2   0.5   0.4   0.5  0.51  0.38  0.16  0.00  0.00   98.18   89.61    0.72    0.00    0.00
 2004 020   153     0     0     4.9   15.0   16550    8.9    6.2   1.6   0.8   0.6   0.5   0.5   0.4   0.5   0.5   0.0   0.0   0.1   0.2   0.5   0.4   0.5  0.51  0.38  0.16  0.00  0.00   98.60   90.02    0.72    0.00    0.00
 2004 021   154     0     0     4.9   15.2   16549    9.1    6.1   1.7   0.8   0.6   0.5   0.5   0.4   0.5   0.5   0.0   0.0   0.1   0.2   0.5   0.4   0.5  0.51  0.38  0.16  0.00  0.00   99.00   90.43    0.72    0.00    0.00
 2004 022   155     0     0     4.9   15.3   16549    9.2    6.1   1.8   0.8   0.7   0.5   0.5   0.4   0.5   0.5   0.0   0.0   0.1   0.2   0.5   0.4   0.4  0.52  0.38  0.16  0.00  0.00   99.39   90.85    0.72    0.00    0.00
 2004 023   156     0     0     4.9   15.3   16549    9.4    6.0   1.9   0.9   0.7   0.5   0.5   0.4   0.5   0.5   0.0   0.0   0.1   0.2   0.5   0.4   0.4  0.51  0.37  0.16  0.00  0.00   99.77   91.26    0.72    0.00    0.00
 2004 024   157     0     0     4.9   15.5   16548    9.6    5.9   1.9   0.9   0.8   0.5   0.5   0.5   0.5   0.5   0.0   0.0   0.0   0.2   0.5   0.4   0.4  0.52  0.37  0.16  0.00  0.00  100.13   91.68    0.72    0.00    0.00
 2004 025   158     0     0     4.9   15.7   16548    9.9    5.8   2.0   1.0   0.8   0.6   0.5   0.5   0.5   0.5   0.0   0.0   0.0   0.2   0.5   0.4   0.4  0.51  0.36  0.15  0.00  0.00  100.50   92.10    0.72    0.00    0.00
 2004 026   159     0     0     4.9   15.9   16548   10.1    5.7   2.1   1.0   0.9   0.6   0.5   0.5   0.5   0.5   0.0   0.0   0.0   0.2   0.4   0.4   0.4  0.52  0.36  0.15  0.00  0.00  100.86   92.52    0.72    0.00    0.00
 2004 027   160     0     0     4.9   16.1   16547   10.5    5.6   2.2   1.1   0.9   0.6   0.5   0.5   0.5   0.5   0.0   0.0   0.0   0.1   0.4   0.4   0.4  0.51  0.36  0.15  0.00  0.00  101.22   92.93    0.72    0.00    0.00
 2004 028   161     0     0     4.9   16.3   16547   10.7    5.6   2.2   1.1   1.0   0.6   0.5   0.5   0.5   0.5   0.0   0.0   0.0   0.1   0.4   0.4   0.4  0.51  0.35  0.15  0.00  0.00  101.57   93.33    0.72    0.00    0.00
 2004 029   162     0     0     4.9   16.4   16547   11.0    5.5   2.3   1.2   1.0   0.6   0.6   0.5   0.5   0.5   0.0   0.0   0.0   0.1   0.4   0.3   0.4  0.51  0.35  0.15  0.00  0.00  101.90   93.72    0.72    0.00    0.00
 2004 030   163     0     0     4.9   16.8   16546   11.4    5.4   2.4   1.3   1.1   0.7   0.6   0.5   0.5   0.5   0.0   0.0   0.0   0.1   0.4   0.3   0.4  0.51  0.34  0.14  0.00  0.00  102.24   94.11    0.72    0.00    0.00
 2004 031   164     0     0     4.9   17.1   16546   11.8    5.3   0.6   1.6   1.6   0.7   0.6   0.5   0.5   0.5   0.0   0.0   0.0   0.1   0.4   0.3   0.4  0.52  0.34  0.14  0.00  0.00  102.57   94.50    0.72    0.00    0.00
 2004 032   165     0     0     4.9   17.8   16545   12.1    5.8   0.6   1.6   1.7   0.7   0.6   0.5   0.5   0.5   0.0   0.0   0.2   0.3   0.4   0.3   0.4  0.52  0.34  0.14  0.00  0.00  103.30   94.80    0.72    0.00    0.00
 2004 033   166     0     0     4.9   17.4   16545   11.6    5.8   1.0   1.0   1.5   0.8   0.7   0.5   0.5   0.5   0.0   0.0   0.0   0.4   0.5   0.3   0.3  0.52  0.33  0.14  0.00  0.00  104.07   95.54    0.72    0.00    0.00
 2004 034   167     0     0     4.9   17.4   16544   11.4    6.0   0.5   0.9   1.5   0.8   0.7   0.5   0.6   0.5   0.0   0.0   0.2   0.4   0.6   0.3   0.3  0.53  0.33  0.14  0.00  0.00  104.85   96.06    0.72    0.00    0.00
 2004 035   168     0     0     4.9   18.2   16543   11.8    6.4   0.6   0.9   1.6   0.8   0.7   0.5   0.6   0.5   0.0   0.0   0.4   0.6   0.6   0.3   0.3  0.53  0.32  0.14  0.00  0.00  105.62   96.46    0.72    0.00    0.00
 2004 036   169     0     0     4.9   18.9   16543   12.7    6.3   1.2   1.2   1.7   0.9   0.7   0.5   0.6   0.5   0.0   0.0   0.0   0.6   0.7   0.3   0.3  0.54  0.32  0.13  0.00  0.00  106.36   97.35    0.72    0.00    0.00
 2004 037   170     0     0     4.9   19.6   16542   13.2    6.4   1.2   1.4   1.8   0.9   0.8   0.5   0.6   0.5   0.0   0.0   0.2   0.6   0.7   0.3   0.3  0.54  0.32  0.13  0.00  0.00  107.07   97.89    0.72    0.00    0.00
 2004 038   171     0     0     4.9   20.3   16542   13.9    6.4   1.5   1.5   1.9   0.9   0.8   0.5   0.6   0.5   0.0   0.0   0.1   0.6   0.8   0.3   0.3  0.55  0.31  0.13  0.00  0.00  107.74   98.56    0.72    0.00    0.00
 2004 039   172     0     0     4.9   21.0   16541   14.5    6.5   1.6   1.7   2.0   1.0   0.8   0.6   0.6   0.5   0.0   0.0   0.1   0.5   0.8   0.3   0.3  0.55  0.31  0.13  0.00  0.00  108.40   99.16    0.72    0.00    0.00
 2004 040   173     0     0     4.9   21.6   16541   15.1    6.5   1.8   1.9   2.1   1.0   0.8   0.6   0.6   0.6   0.0   0.0   0.1   0.5   0.8   0.3   0.3  0.56  0.31  0.13  0.00  0.00  109.06   99.81    0.72    0.00    0.00
