*PLANT N OUTPUT FILE

*DSSAT Cropping System Model Ver. 4.0.2.000               Jul 20, 2016; 16:10:11

*RUN   1        : UYMZ                    
 MODEL          : MZCER040 - Maize           
 EXPERIMENT     : UYMZ0087 MZ    late to create DSS                             
 TREATMENT  1   : UYMZ                    

@YEAR DOY   DAS   DAP   CNAD   GNAD   VNAD   GN%D   VN%D   NUPC   LNAD   SNAD   LN%D   SN%D   RN%D   SNN0C   SNN1C
 1990 194     3     0    0.0    0.0    0.0   0.00   0.00    0.0    0.0    0.0    0.0   0.00   0.00    0.00    0.00
 1990 195     4     1    0.0    0.0    0.0   0.00   0.00    0.0    0.0    0.0    0.0   0.00   0.00    0.00    0.00
 1990 196     5     2    0.0    0.0    0.0   0.00   0.00    0.0    0.0    0.0    0.0   0.00   0.00    0.00    0.00
 1990 197     6     3    0.0    0.0    0.0   0.00   0.00    0.0    0.0    0.0    0.0   0.00   0.00    0.00    0.00
 1990 198     7     4    0.0    0.0    0.0   0.00   0.00    0.0    0.0    0.0    0.0   0.00   0.00    0.00    0.00
 1990 199     8     5    0.0    0.0    0.0   0.00   0.00    0.0    0.0    0.0    0.0   0.00   0.00    0.00    0.00
 1990 200     9     6    0.0    0.0    0.0   0.00   0.00    0.0    0.0    0.0    0.0   0.00   0.00    0.00    0.00
 1990 201    10     7    0.0    0.0    0.0   0.00   0.00    0.0    0.0    0.0    0.0   0.00   0.00    0.00    0.00
 1990 202    11     8    0.0    0.0    0.0   0.00   0.00    0.0    0.0    0.0    0.0   0.00   0.00    0.00    0.00
 1990 203    12     9    0.0    0.0    0.0   0.00   0.00    0.0    0.0    0.0    0.0   0.00   0.00    0.00    0.00
 1990 204    13    10    0.0    0.0    0.0   0.00   0.00    0.0    0.0    0.0    0.0   0.00   0.00    0.00    0.00
 1990 205    14    11    0.0    0.0    0.0   0.00   0.00    0.0    0.0    0.0    0.0   0.00   0.00    0.00    0.00
 1990 206    15    12    0.0    0.0    0.0   0.00   0.00    0.0    0.0    0.0    0.0   0.00   0.00    0.00    0.00
 1990 207    16    13    0.0    0.0    0.0   0.00   0.00    0.0    0.0    0.0    0.0   0.00   0.00    0.00    0.00
 1990 208    17    14    0.0    0.0    0.0   0.00   0.00    0.0    0.0    0.0    0.0   0.00   0.00    0.00    0.00
 1990 209    18    15    0.0    0.0    0.0   0.00   0.00    0.0    0.0    0.0    0.0   0.00   0.00    0.00    0.00
 1990 210    19    16    0.0    0.0    0.0   0.00   0.00    0.0    0.0    0.0    0.0   0.00   0.00    0.00    0.00
 1990 211    20    17    0.0    0.0    0.0   0.00   0.00    0.0    0.0    0.0    0.0   0.00   0.00    0.00    0.00
 1990 212    21    18    0.0    0.0    0.0   0.00   0.00    0.0    0.0    0.0    0.0   0.00   0.00    0.00    0.00
 1990 213    22    19    0.0    0.0    0.0   0.00   0.00    0.0    0.0    0.0    0.0   0.00   0.00    0.00    0.00
 1990 214    23    20    0.0    0.0    0.0   0.00   0.00    0.0    0.0    0.0    0.0   0.00   0.00    0.00    0.00
 1990 215    24    21    0.0    0.0    0.0   0.00   0.00    0.0    0.0    0.0    0.0   0.00   0.00    0.00    0.00
 1990 216    25    22    0.0    0.0    0.0   0.00   0.00    0.0    0.0    0.0    0.0   0.00   0.00    0.00    0.00
 1990 217    26    23    0.0    0.0    0.0   0.00   0.00    0.0    0.0    0.0    0.0   0.00   0.00    0.00    0.00
 1990 218    27    24    0.0    0.0    0.0   0.00   0.00    0.0    0.0    0.0    0.0   0.00   0.00    0.00    0.00
 1990 219    28    25    1.2    0.0    1.2   0.00   4.40    0.0    0.6    0.6    4.4   4.40   0.00    0.00    0.00
 1990 220    29    26    1.3    0.0    1.3   0.00   4.52    0.2    0.6    0.6    4.5   4.52   1.09    0.00    0.00
 1990 221    30    27    1.3    0.0    1.3   0.00   4.50    0.2    0.6    0.6    4.5   4.50   1.13    0.00    0.00
 1990 222    31    28    1.3    0.0    1.3   0.00   4.48    0.2    0.6    0.6    4.5   4.48   1.15    0.00    0.00
 1990 223    32    29    1.2    0.0    1.2   0.00   4.45    0.2    0.6    0.6    4.4   4.45   1.16    0.00    0.00
 1990 224    33    30    1.2    0.0    1.2   0.00   4.41    0.2    0.6    0.6    4.4   4.41   1.18    0.00    0.00
 1990 225    34    31    1.2    0.0    1.2   0.00   4.41    0.2    0.6    0.6    4.4   4.41   1.13    0.00    0.00
 1990 226    35    32    1.2    0.0    1.2   0.00   4.41    0.2    0.6    0.6    4.4   4.41   1.09    0.00    0.00
 1990 227    36    33    1.2    0.0    1.2   0.00   4.33    0.2    0.6    0.6    4.3   4.33   1.21    0.00    0.00
 1990 228    37    34    1.2    0.0    1.2   0.00   4.32    0.3    0.6    0.6    4.3   4.32   1.25    0.00    0.01
 1990 229    38    35    1.2    0.0    1.2   0.00   4.13    0.3    0.6    0.6    4.1   4.13   1.26    0.00    0.01
 1990 230    39    36    1.2    0.0    1.2   0.00   3.80    0.4    0.7    0.5    3.8   3.80   1.23    0.00    0.01
 1990 231    40    37    1.4    0.0    1.4   0.00   3.67    0.6    0.9    0.5    3.7   3.67   1.18    0.00    0.01
 1990 232    41    38    1.6    0.0    1.6   0.00   3.65    1.0    1.1    0.5    3.6   3.65   1.25    0.00    0.01
 1990 233    42    39    1.9    0.0    1.9   0.00   3.78    1.3    1.4    0.5    3.8   3.78   1.24    0.00    0.02
 1990 234    43    40    2.1    0.0    2.1   0.00   3.83    1.6    1.6    0.5    3.8   3.83   1.22    0.00    0.02
 1990 235    44    41    2.3    0.0    2.3   0.00   4.03    2.0    1.7    0.6    4.0   4.03   1.36    0.00    0.02
 1990 236    45    42    2.4    0.0    2.4   0.00   3.98    2.1    1.9    0.6    4.0   3.98   1.21    0.00    0.03
 1990 237    46    43    2.5    0.0    2.5   0.00   3.58    2.3    2.0    0.5    3.6   3.58   1.16    0.00    0.03
 1990 238    47    44    2.9    0.0    2.9   0.00   3.48    2.9    2.4    0.5    3.5   3.48   1.20    0.00    0.04
 1990 239    48    45    3.5    0.0    3.5   0.00   3.92    3.4    2.9    0.5    3.9   3.92   1.14    0.00    0.04
 1990 240    49    46    3.7    0.0    3.7   0.00   4.14    4.1    3.1    0.6    4.1   4.14   1.55    0.00    0.05
 1990 241    50    47    3.7    0.0    3.7   0.00   4.05    4.1    3.1    0.6    4.0   4.05   1.44    0.00    0.05
 1990 242    51    48    3.7    0.0    3.7   0.00   3.74    4.1    3.2    0.5    3.7   3.74   1.37    0.00    0.05
 1990 243    52    49    4.1    0.0    4.1   0.00   4.08    4.1    3.5    0.6    4.1   4.08   1.09    0.00    0.06
 1990 244    53    50    4.1    0.0    4.1   0.00   4.12    4.3    3.5    0.6    4.1   4.12   1.16    0.00    0.06
 1990 245    54    51    4.1    0.0    4.1   0.00   4.11    4.3    3.5    0.6    4.1   4.11   1.17    0.00    0.07
 1990 246    55    52    4.1    0.0    4.1   0.00   3.94    4.3    3.6    0.6    3.9   3.94   1.17    0.00    0.07
 1990 247    56    53    4.3    0.0    4.3   0.00   3.90    4.3    3.7    0.5    3.9   3.90   1.07    0.00    0.08
 1990 248    57    54    4.5    0.0    4.5   0.00   4.02    4.5    3.9    0.6    4.0   4.02   1.07    0.00    0.08
 1990 249    58    55    4.6    0.0    4.6   0.00   3.98    4.6    4.0    0.6    4.0   3.98   1.07    0.00    0.09
 1990 250    59    56    4.6    0.0    4.6   0.00   3.95    4.7    4.1    0.6    4.0   3.95   1.07    0.00    0.10
 1990 251    60    57    4.8    0.0    4.8   0.00   3.96    4.8    4.2    0.6    4.0   3.96   1.07    0.00    0.10
 1990 252    61    58    4.8    0.0    4.8   0.00   3.53    4.9    4.3    0.5    3.5   3.53   1.09    0.00    0.11
 1990 253    62    59    5.5    0.0    5.5   0.00   3.51    5.6    5.0    0.5    3.5   3.51   1.09    0.00    0.11
 1990 254    63    60    6.2    0.0    6.2   0.00   3.62    6.3    5.7    0.5    3.6   3.62   1.09    0.00    0.12
 1990 255    64    61    6.8    0.0    6.8   0.00   3.60    7.1    6.3    0.5    3.6   3.60   1.14    0.00    0.13
 1990 256    65    62    7.5    0.0    7.5   0.00   3.71    7.8    7.0    0.5    3.7   3.71   1.17    0.00    0.14
 1990 257    66    63    8.0    0.0    8.0   0.00   3.60    8.4    7.5    0.5    3.6   3.60   1.17    0.00    0.14
 1990 258    67    64    8.8    0.0    8.8   0.00   3.49    9.2    8.3    0.5    3.5   3.49   1.16    0.00    0.15
 1990 259    68    65    9.9    0.0    9.9   0.00   3.62   10.5    9.4    0.5    3.6   3.62   1.16    0.00    0.16
 1990 260    69    66   10.8    0.0   10.8   0.00   3.67   11.3   10.2    0.5    3.7   3.67   1.11    0.00    0.17
 1990 261    70    67   11.5    0.0   11.5   0.00   3.65   12.1   11.0    0.5    3.6   3.65   1.10    0.00    0.18
 1990 262    71    68   12.2    0.0   12.2   0.00   3.92   13.4   11.7    0.5    3.9   3.92   1.24    0.00    0.19
 1990 263    72    69   12.2    0.0   12.2   0.00   3.68   13.4   11.7    0.5    3.7   3.68   1.22    0.00    0.19
 1990 264    73    70   12.7    0.0   12.7   0.00   3.58   13.6   12.2    0.5    3.6   3.58   1.09    0.00    0.20
 1990 265    74    71   14.5    0.0   14.5   0.00   3.79   16.2   13.9    0.5    3.8   3.79   1.25    0.00    0.21
 1990 266    75    72   14.6    0.0   14.6   0.00   3.75   17.0   14.1    0.5    3.7   3.75   1.37    0.00    0.22
 1990 267    76    73   14.7    0.0   14.7   0.00   3.66   17.5   14.1    0.5    3.7   3.66   1.38    0.00    0.24
 1990 268    77    74   15.0    0.0   15.0   0.00   3.64   18.2   14.5    0.5    3.6   3.64   1.33    0.00    0.26
 1990 269    78    75   15.7    0.0   15.7   0.00   3.56   19.2   15.2    0.5    3.6   3.56   1.22    0.00    0.28
 1990 270    79    76   17.2    0.0   17.2   0.00   3.53   21.0   16.7    0.5    3.5   3.53   1.18    0.00    0.31
 1990 271    80    77   18.6    0.0   18.6   0.00   3.50   21.9   18.1    0.5    3.5   3.50   1.07    0.00    0.33
 1990 272    81    78   20.0    0.0   20.0   0.00   3.48   24.4   19.5    0.6    3.5   3.48   1.18    0.00    0.35
 1990 273    82    79   21.7    0.0   21.7   0.00   3.45   26.7   21.1    0.6    3.4   3.45   1.18    0.00    0.38
 1990 274    83    80   24.1    0.0   24.1   0.00   3.41   29.8   23.4    0.7    3.4   3.41   1.18    0.00    0.41
 1990 275    84    81   26.6    0.0   26.6   0.00   3.38   33.3   25.7    0.9    3.4   3.38   1.20    0.00    0.45
 1990 276    85    82   29.6    0.0   29.6   0.00   3.34   36.9   28.5    1.1    3.3   3.34   1.17    0.00    0.49
 1990 277    86    83   33.7    0.0   33.7   0.00   3.29   41.0   32.1    1.6    3.3   3.29   1.12    0.00    0.53
 1990 278    87    84   36.0    0.0   36.0   0.00   3.26   43.0   34.1    1.9    3.3   3.26   1.07    0.00    0.57
 1990 279    88    85   39.3    0.0   39.3   0.00   3.22   46.3   36.8    2.5    3.2   3.22   1.07    0.00    0.61
 1990 280    89    86   41.8    0.0   41.8   0.00   3.19   48.8   38.8    3.0    3.2   3.19   1.07    0.00    0.65
 1990 281    90    87   44.2    0.0   44.2   0.00   3.16   52.0   40.7    3.5    3.2   3.16   1.12    0.00    0.69
 1990 282    91    88   46.5    0.0   46.5   0.00   3.14   56.7   42.5    4.1    3.1   3.14   1.22    0.00    0.74
 1990 283    92    89   49.2    0.0   49.2   0.00   3.11   60.3   44.5    4.7    3.1   3.11   1.18    0.00    0.80
 1990 284    93    90   52.5    0.0   52.5   0.00   3.08   62.5   46.8    5.7    3.1   3.08   1.08    0.00    0.86
 1990 285    94    91   54.8    0.0   54.8   0.00   3.06   68.2   48.4    6.4    3.1   3.06   1.21    0.00    0.91
 1990 286    95    92   57.0    0.0   57.0   0.00   3.04   72.2   49.9    7.1    3.0   3.04   1.20    0.00    0.99
 1990 287    96    93   60.0    0.0   60.0   0.00   3.02   76.5   51.9    8.1    3.0   3.02   1.17    0.00    1.07
 1990 288    97    94   62.3    0.0   62.3   0.00   3.00   80.8   53.3    8.9    3.0   3.00   1.18    0.00    1.16
 1990 289    98    95   64.1    0.0   64.1   0.00   2.98   84.7   54.5    9.6    3.0   2.98   1.18    0.00    1.25
 1990 290    99    96   66.7    0.0   66.7   0.00   2.97   86.8   56.1   10.6    3.0   2.97   1.11    0.00    1.36
 1990 291   100    97   70.9    0.0   70.9   0.00   2.94   92.9   58.6   12.3    2.9   2.94   1.13    0.00    1.47
 1990 292   101    98   75.4    0.0   75.4   0.00   2.90   97.2   61.1   14.3    2.9   2.90   1.10    0.00    1.58
 1990 293   102    99   80.0    0.0   80.0   0.00   2.87  102.1   63.5   16.4    2.9   2.87   1.09    0.00    1.70
 1990 294   103   100   84.4    0.0   84.4   0.00   2.84  108.1   65.8   18.7    2.8   2.84   1.12    0.00    1.82
 1990 295   104   101   88.0    0.0   88.0   0.00   2.78  113.2   67.2   20.8    2.8   2.78   1.11    0.00    1.94
 1990 296   105   102   91.6    0.0   91.6   0.00   2.71  117.3   68.5   23.1    2.7   2.71   1.09    0.00    2.07
 1990 297   106   103   94.5    0.0   94.5   0.00   2.64  120.6   69.4   25.1    2.6   2.64   1.08    0.00    2.20
 1990 298   107   104   97.3    0.0   97.3   0.00   2.55  123.4   70.7   26.6    2.5   2.55   1.08    0.00    2.34
 1990 299   108   105   99.5    0.0   99.5   0.00   2.36  125.7   69.8   29.7    2.4   2.36   1.07    0.00    2.48
 1990 300   109   106  101.5    0.0  101.5   0.00   2.22  127.7   68.9   32.5    2.2   2.22   1.07    0.00    2.61
 1990 301   110   107  103.1    0.0  103.1   0.00   2.19  129.4   69.0   34.1    2.2   2.19   1.07    0.00    2.75
 1990 302   111   108  104.6    0.0  104.6   0.00   2.12  130.8   68.5   36.1    2.1   2.12   1.07    0.00    2.88
 1990 303   112   109  105.8    0.0  105.8   0.00   2.01  132.1   66.9   38.8    2.0   2.01   1.04    0.00    3.02
 1990 304   113   110  106.8    0.0  106.8   0.00   1.94  133.2   66.0   40.8    1.9   1.94   1.00    0.00    3.16
 1990 305   114   111  107.7    0.0  107.7   0.00   1.87  134.3   65.0   42.7    1.9   1.87   0.97    0.00    3.29
 1990 306   115   112  108.5    0.0  108.5   0.00   1.80  135.1   63.9   44.5    1.8   1.80   0.96    0.00    3.43
 1990 307   116   113  109.8    0.0  109.8   0.00   1.77  136.5   63.6   46.2    1.8   1.77   0.96    0.00    3.57
 1990 308   117   114  111.0    0.0  111.0   0.00   1.74  137.9   63.3   47.7    1.7   1.74   0.94    0.00    3.70
 1990 309   118   115  112.1    0.0  112.1   0.00   1.73  139.2   63.4   48.6    1.7   1.73   0.88    0.00    3.84
 1990 310   119   116  113.2    0.0  113.2   0.00   1.71  140.5   63.3   49.9    1.7   1.71   0.87    0.00    3.98
 1990 311   120   117  114.3    0.0  114.3   0.00   1.68  141.8   62.9   51.4    1.7   1.68   0.84    0.00    4.12
 1990 312   121   118  115.2    0.0  115.2   0.00   1.66  142.9   62.8   52.4    1.7   1.66   0.85    0.00    4.27
 1990 313   122   119  116.1    0.0  116.1   0.00   1.63  144.0   62.4   53.8    1.6   1.63   0.84    0.00    4.41
 1990 314   123   120  116.9    0.0  116.9   0.00   1.59  144.9   61.9   55.1    1.6   1.59   0.83    0.00    4.55
 1990 315   124   121  117.7    0.0  117.7   0.00   1.55  145.9   61.2   56.5    1.6   1.55   0.81    0.00    4.69
 1990 316   125   122  118.5    0.0  118.5   0.00   1.52  146.8   60.8   57.7    1.5   1.52   0.82    0.00    4.84
 1990 317   126   123  119.2    0.0  119.2   0.00   1.66  147.7   65.5   53.8    1.7   1.66   0.81    0.00    4.98
 1990 318   127   124  120.0    0.0  120.0   0.00   1.66  148.6   64.8   55.1    1.7   1.66   0.81    0.00    5.13
 1990 319   128   125  120.7    0.0  120.7   0.00   1.67  149.5   64.5   56.2    1.7   1.67   0.82    0.00    5.28
 1990 320   129   126  121.3    0.0  121.3   0.00   1.68  150.3   64.0   57.3    1.7   1.68   0.81    0.00    5.42
 1990 321   130   127  121.8    0.0  121.8   0.00   1.69  151.0   63.4   58.4    1.7   1.69   0.78    0.00    5.57
 1990 322   131   128  122.4    0.0  122.4   0.00   1.69  151.9   62.5   59.9    1.7   1.69   0.77    0.00    5.72
 1990 323   132   129  123.1    0.0  123.1   0.00   1.69  153.0   61.5   61.6    1.7   1.69   0.77    0.00    5.87
 1990 324   133   130  123.9    0.0  123.9   0.00   1.70  154.0   60.8   63.0    1.7   1.70   0.78    0.00    6.02
 1990 325   134   131  124.5    0.0  124.5   0.00   1.70  155.1   59.8   64.7    1.7   1.70   0.76    0.00    6.18
 1990 326   135   132  125.1    0.0  125.1   0.00   1.70  156.3   58.9   66.2    1.7   1.70   0.76    0.00    6.34
 1990 327   136   133  125.7    0.0  125.7   0.00   1.71  157.5   58.0   67.7    1.7   1.71   0.75    0.00    6.49
 1990 328   137   134  126.2    0.0  126.2   0.00   1.71  158.6   56.9   69.4    1.7   1.71   0.75    0.00    6.66
 1990 329   138   135  126.7    4.6  122.2   1.64   1.66  159.7   55.0   67.1    1.7   1.66   0.76    0.00    6.82
 1990 330   139   136  127.3    8.2  119.0   1.62   1.62  160.7   53.6   65.4    1.6   1.62   0.76    0.00    6.99
 1990 331   140   137  127.7   10.1  117.6   1.61   1.60  161.5   53.0   64.6    1.6   1.60   0.75    0.00    7.16
 1990 332   141   138  128.3   12.4  115.8   1.60   1.57  162.6   52.2   63.7    1.6   1.57   0.75    0.00    7.33
 1990 333   142   139  128.7   15.8  113.0   1.59   1.54  163.4   50.9   62.1    1.5   1.54   0.75    0.00    7.50
 1990 334   143   140  129.2   19.5  109.8   1.58   1.49  164.3   49.4   60.3    1.5   1.49   0.76    0.00    7.68
 1990 335   144   141  129.7   23.0  106.7   1.57   1.45  165.2   48.1   58.6    1.4   1.45   0.76    0.00    7.86
 1990 336   145   142  130.2   25.9  104.3   1.56   1.42  166.0   47.2   57.1    1.4   1.42   0.77    0.00    8.04
 1990 337   146   143  130.7   28.2  102.4   1.55   1.39  166.8   46.2   56.3    1.4   1.39   0.77    0.00    8.22
 1990 338   147   144  131.1   31.2   99.9   1.54   1.36  167.5   45.0   54.9    1.4   1.36   0.76    0.00    8.40
 1990 339   148   145  131.6   35.3   96.3   1.53   1.31  168.4   43.4   52.9    1.3   1.31   0.77    0.00    8.58
 1990 340   149   146  132.1   39.0   93.2   1.52   1.27  169.2   42.0   51.2    1.3   1.27   0.78    0.00    8.77
 1990 341   150   147  132.5   42.3   90.3   1.51   1.23  169.8   40.7   49.6    1.2   1.23   0.78    0.00    8.96
 1990 342   151   148  133.0   44.8   88.2   1.50   1.20  170.5   39.7   48.4    1.2   1.20   0.77    0.00    9.15
 1990 343   152   149  133.5   46.8   86.6   1.49   1.18  171.3   39.0   47.6    1.2   1.18   0.78    0.00    9.33
 1990 344   153   150  133.7   49.1   84.6   1.49   1.15  171.7   38.2   46.4    1.2   1.15   0.79    0.00    9.53
 1990 345   154   151  134.0   51.9   82.0   1.47   1.11  172.1   37.0   45.1    1.1   1.11   0.79    0.00    9.72
 1990 346   155   152  134.4   53.7   80.7   1.47   1.10  172.7   36.3   44.3    1.1   1.10   0.79    0.00    9.91
 1990 347   156   153  134.8   56.3   78.5   1.46   1.07  173.3   35.4   43.2    1.1   1.07   0.79    0.00   10.10
 1990 348   157   154  135.3   57.9   77.4   1.45   1.05  174.1   34.8   42.5    1.1   1.05   0.79    0.00   10.30
 1990 349   158   155  135.8   60.4   75.4   1.44   1.02  174.8   34.0   41.4    1.0   1.02   0.78    0.00   10.49
 1990 350   159   156  136.3   63.6   72.7   1.43   0.99  175.6   32.7   39.9    1.0   0.99   0.78    0.00   10.69
 1990 351   160   157  136.9   66.9   69.9   1.41   0.96  176.4   31.7   38.2    1.0   0.96   0.79    0.00   10.88
 1990 352   161   158  137.4   69.8   67.5   1.40   0.92  177.2   30.4   37.1    0.9   0.92   0.79    0.00   11.08
 1990 353   162   159  137.8   72.3   65.4   1.39   0.89  177.8   29.5   36.0    0.9   0.89   0.79    0.00   11.28
 1990 354   163   160  138.4   74.9   63.5   1.37   0.86  178.7   28.6   34.9    0.9   0.86   0.79    0.00   11.48
 1990 355   164   161  139.0   77.8   61.2   1.36   0.83  179.5   27.6   33.6    0.8   0.83   0.80    0.00   11.68
 1990 356   165   162  139.5   80.7   58.9   1.34   0.81  180.3   27.0   31.9    0.8   0.81   0.80    0.00   11.89
 1990 357   166   163  139.9   83.4   56.5   1.33   0.78  180.8   26.0   30.6    0.8   0.78   0.81    0.00   12.09
 1990 358   167   164  140.4   85.6   54.8   1.32   0.76  181.5   25.3   29.5    0.8   0.76   0.82    0.00   12.30
 1990 359   168   165  140.8   87.5   53.3   1.30   0.73  182.1   24.4   29.0    0.7   0.73   0.82    0.00   12.50
 1990 360   169   166  141.5   90.1   51.4   1.29   0.70  183.0   23.3   28.1    0.7   0.70   0.82    0.00   12.71
 1990 361   170   167  142.2   92.6   49.6   1.27   0.68  184.0   22.4   27.3    0.7   0.68   0.83    0.00   12.92
 1990 362   171   168  143.0   93.9   49.1   1.26   0.67  185.0   22.1   27.0    0.7   0.67   0.83    0.00   13.12
 1990 363   172   169  143.6   95.0   48.6   1.26   0.66  185.9   21.9   26.7    0.7   0.66   0.83    0.00   13.33
 1990 364   173   170  144.3   96.7   47.6   1.25   0.65  186.8   21.4   26.1    0.6   0.65   0.84    0.00   13.55
 1990 365   174   171  144.9   98.9   46.0   1.23   0.63  187.7   20.7   25.3    0.6   0.63   0.84    0.00   13.76
 1991 001   175   172  145.5  101.0   44.5   1.21   0.61  188.5   20.2   24.3    0.6   0.61   0.85    0.00   13.97
 1991 002   176   173  146.1  103.1   43.1   1.20   0.60  189.3   19.8   23.3    0.6   0.60   0.86    0.00   14.18
 1991 003   177   174  146.8  105.1   41.7   1.18   0.58  190.1   19.3   22.4    0.6   0.58   0.86    0.00   14.40
 1991 004   178   175  147.5  106.8   40.7   1.17   0.57  191.0   18.9   21.8    0.6   0.57   0.87    0.00   14.61
 1991 005   179   176  148.1  108.4   39.7   1.16   0.56  191.8   18.5   21.2    0.6   0.56   0.88    0.00   14.83
 1991 006   180   177  148.9  110.1   38.8   1.15   0.55  192.7   18.2   20.6    0.5   0.55   0.88    0.00   15.05
 1991 007   181   178  148.9  110.1   38.8   1.15   0.55  193.5   18.2   20.6    0.5   0.55   0.88    0.00   15.05
 1991 008   182   179  148.9  110.1   38.8   1.15   0.55  194.3   18.2   20.6    0.5   0.55   0.88    0.00   15.05
 1991 009   183   180  148.9  110.1   38.8   1.15   0.55  195.1   18.2   20.6    0.5   0.55   0.88    0.00   15.05

*DSSAT Cropping System Model Ver. 4.0.2.000               Jul 20, 2016; 16:10:11

*RUN   2        : UYMZ                    
 MODEL          : MZCER040 - Maize           
 EXPERIMENT     : UYMZ0087 MZ    late to create DSS                             
 TREATMENT  1   : UYMZ                    

@YEAR DOY   DAS   DAP   CNAD   GNAD   VNAD   GN%D   VN%D   NUPC   LNAD   SNAD   LN%D   SN%D   RN%D   SNN0C   SNN1C
 1991 194     3     0    0.0    0.0    0.0   0.00   0.00    0.0    0.0    0.0    0.0   0.00   0.00    0.00    0.00
 1991 195     4     1    0.0    0.0    0.0   0.00   0.00    0.0    0.0    0.0    0.0   0.00   0.00    0.00    0.00
 1991 196     5     2    0.0    0.0    0.0   0.00   0.00    0.0    0.0    0.0    0.0   0.00   0.00    0.00    0.00
 1991 197     6     3    0.0    0.0    0.0   0.00   0.00    0.0    0.0    0.0    0.0   0.00   0.00    0.00    0.00
 1991 198     7     4    0.0    0.0    0.0   0.00   0.00    0.0    0.0    0.0    0.0   0.00   0.00    0.00    0.00
 1991 199     8     5    0.0    0.0    0.0   0.00   0.00    0.0    0.0    0.0    0.0   0.00   0.00    0.00    0.00
 1991 200     9     6    0.0    0.0    0.0   0.00   0.00    0.0    0.0    0.0    0.0   0.00   0.00    0.00    0.00
 1991 201    10     7    0.0    0.0    0.0   0.00   0.00    0.0    0.0    0.0    0.0   0.00   0.00    0.00    0.00
 1991 202    11     8    0.0    0.0    0.0   0.00   0.00    0.0    0.0    0.0    0.0   0.00   0.00    0.00    0.00
 1991 203    12     9    0.0    0.0    0.0   0.00   0.00    0.0    0.0    0.0    0.0   0.00   0.00    0.00    0.00
 1991 204    13    10    0.0    0.0    0.0   0.00   0.00    0.0    0.0    0.0    0.0   0.00   0.00    0.00    0.00
 1991 205    14    11    0.0    0.0    0.0   0.00   0.00    0.0    0.0    0.0    0.0   0.00   0.00    0.00    0.00
 1991 206    15    12    0.0    0.0    0.0   0.00   0.00    0.0    0.0    0.0    0.0   0.00   0.00    0.00    0.00
 1991 207    16    13    0.0    0.0    0.0   0.00   0.00    0.0    0.0    0.0    0.0   0.00   0.00    0.00    0.00
 1991 208    17    14    0.0    0.0    0.0   0.00   0.00    0.0    0.0    0.0    0.0   0.00   0.00    0.00    0.00
 1991 209    18    15    1.2    0.0    1.2   0.00   4.40    0.0    0.6    0.6    4.4   4.40   0.00    0.00    0.00
 1991 210    19    16    1.3    0.0    1.3   0.00   4.51    0.2    0.6    0.6    4.5   4.51   1.09    0.00    0.00
 1991 211    20    17    1.3    0.0    1.3   0.00   4.51    0.2    0.6    0.6    4.5   4.51   1.08    0.00    0.00
 1991 212    21    18    1.3    0.0    1.3   0.00   4.49    0.2    0.6    0.6    4.5   4.49   1.14    0.00    0.00
 1991 213    22    19    1.3    0.0    1.3   0.00   4.49    0.2    0.6    0.6    4.5   4.49   1.15    0.00    0.00
 1991 214    23    20    1.3    0.0    1.3   0.00   4.49    0.2    0.6    0.6    4.5   4.49   1.17    0.00    0.00
 1991 215    24    21    1.3    0.0    1.3   0.00   4.49    0.2    0.6    0.6    4.5   4.49   1.17    0.00    0.00
 1991 216    25    22    1.3    0.0    1.3   0.00   4.49    0.2    0.6    0.6    4.5   4.49   1.18    0.00    0.00
 1991 217    26    23    1.3    0.0    1.3   0.00   4.49    0.2    0.6    0.6    4.5   4.49   1.17    0.00    0.00
 1991 218    27    24    1.3    0.0    1.3   0.00   4.49    0.2    0.6    0.6    4.5   4.49   1.18    0.00    0.00
 1991 219    28    25    1.3    0.0    1.3   0.00   4.49    0.2    0.6    0.6    4.5   4.49   1.18    0.00    0.00
 1991 220    29    26    1.3    0.0    1.3   0.00   4.49    0.2    0.6    0.6    4.5   4.49   1.18    0.00    0.00
 1991 221    30    27    1.3    0.0    1.3   0.00   4.49    0.2    0.6    0.6    4.5   4.49   1.17    0.00    0.00
 1991 222    31    28    1.3    0.0    1.3   0.00   4.49    0.2    0.6    0.6    4.5   4.49   1.17    0.00    0.00
 1991 223    32    29    1.3    0.0    1.3   0.00   4.49    0.2    0.6    0.6    4.5   4.49   1.17    0.00    0.00
 1991 224    33    30    1.3    0.0    1.3   0.00   4.49    0.2    0.6    0.6    4.5   4.49   1.14    0.00    0.00
 1991 225    34    31    1.3    0.0    1.3   0.00   4.49    0.2    0.6    0.6    4.5   4.49   1.12    0.00    0.00
 1991 226    35    32    1.3    0.0    1.3   0.00   4.49    0.2    0.6    0.6    4.5   4.49   1.06    0.00    0.00
 1991 227    36    33    1.3    0.0    1.3   0.00   4.49    0.2    0.6    0.6    4.5   4.49   1.01    0.00    0.00
 1991 228    37    34    1.2    0.0    1.2   0.00   4.14    0.2    0.6    0.6    4.1   4.14   1.18    0.00    0.00
 1991 229    38    35    1.3    0.0    1.3   0.00   3.55    0.3    0.8    0.5    3.6   3.55   1.21    0.00    0.00
 1991 230    39    36    1.5    0.0    1.5   0.00   3.56    0.5    1.0    0.5    3.6   3.56   1.12    0.00    0.00
 1991 231    40    37    1.8    0.0    1.8   0.00   3.55    0.9    1.3    0.5    3.6   3.55   1.23    0.00    0.01
 1991 232    41    38    2.2    0.0    2.2   0.00   3.55    1.3    1.7    0.5    3.5   3.55   1.16    0.00    0.01
 1991 233    42    39    2.5    0.0    2.5   0.00   3.54    1.8    2.1    0.5    3.5   3.54   1.31    0.00    0.01
 1991 234    43    40    3.0    0.0    3.0   0.00   3.46    2.4    2.5    0.5    3.5   3.46   1.27    0.00    0.01
 1991 235    44    41    3.6    0.0    3.6   0.00   3.59    3.2    3.1    0.5    3.6   3.59   1.35    0.00    0.02
 1991 236    45    42    4.1    0.0    4.1   0.00   3.71    4.0    3.6    0.5    3.7   3.71   1.32    0.00    0.02
 1991 237    46    43    4.5    0.0    4.5   0.00   3.57    4.6    4.0    0.5    3.6   3.57   1.24    0.00    0.03
 1991 238    47    44    5.2    0.0    5.2   0.00   3.77    5.1    4.7    0.5    3.8   3.77   1.12    0.00    0.03
 1991 239    48    45    5.6    0.0    5.6   0.00   3.82    5.6    5.1    0.5    3.8   3.82   1.13    0.00    0.04
 1991 240    49    46    5.9    0.0    5.9   0.00   3.63    6.2    5.4    0.5    3.6   3.63   1.20    0.00    0.04
 1991 241    50    47    6.6    0.0    6.6   0.00   3.54    7.0    6.1    0.5    3.5   3.54   1.18    0.00    0.05
 1991 242    51    48    7.4    0.0    7.4   0.00   3.47    7.8    7.0    0.5    3.5   3.47   1.10    0.00    0.06
 1991 243    52    49    8.5    0.0    8.5   0.00   3.73    9.0    8.0    0.5    3.7   3.73   1.13    0.00    0.07
 1991 244    53    50    9.1    0.0    9.1   0.00   3.79    9.9    8.5    0.5    3.8   3.79   1.24    0.00    0.08
 1991 245    54    51    9.5    0.0    9.5   0.00   3.69   10.2    9.0    0.5    3.7   3.69   1.12    0.00    0.09
 1991 246    55    52   10.1    0.0   10.1   0.00   3.51   11.1    9.6    0.5    3.5   3.51   1.17    0.00    0.10
 1991 247    56    53   11.2    0.0   11.2   0.00   3.43   13.0   10.8    0.5    3.4   3.43   1.27    0.00    0.11
 1991 248    57    54   12.7    0.0   12.7   0.00   3.59   15.2   12.2    0.5    3.6   3.59   1.28    0.00    0.12
 1991 249    58    55   13.8    0.0   13.8   0.00   3.55   15.8   13.3    0.5    3.5   3.55   1.09    0.00    0.14
 1991 250    59    56   14.8    0.0   14.8   0.00   3.54   17.0   14.3    0.5    3.5   3.54   1.10    0.00    0.16
 1991 251    60    57   16.9    0.0   16.9   0.00   3.81   19.3   16.4    0.5    3.8   3.81   1.12    0.00    0.17
 1991 252    61    58   17.5    0.0   17.5   0.00   3.68   21.0   17.0    0.5    3.7   3.68   1.25    0.00    0.19
 1991 253    62    59   18.5    0.0   18.5   0.00   3.58   22.8   18.0    0.5    3.6   3.58   1.24    0.00    0.22
 1991 254    63    60   20.3    0.0   20.3   0.00   3.54   25.7   19.8    0.5    3.5   3.54   1.24    0.00    0.24
 1991 255    64    61   22.6    0.0   22.6   0.00   3.50   28.7   22.1    0.6    3.5   3.50   1.21    0.00    0.28
 1991 256    65    62   25.7    0.0   25.7   0.00   3.45   31.9   25.0    0.7    3.5   3.45   1.14    0.00    0.31
 1991 257    66    63   26.9    0.0   26.9   0.00   3.43   33.0   26.2    0.7    3.4   3.43   1.10    0.00    0.35
 1991 258    67    64   28.1    0.0   28.1   0.00   3.50   34.4   27.3    0.8    3.5   3.50   1.12    0.00    0.39
 1991 259    68    65   30.0    0.0   30.0   0.00   3.39   36.8   29.1    0.9    3.4   3.39   1.12    0.00    0.42
 1991 260    69    66   32.4    0.0   32.4   0.00   3.36   38.8   31.3    1.1    3.4   3.36   1.07    0.00    0.46
 1991 261    70    67   34.0    0.0   34.0   0.00   3.29   42.0   32.7    1.3    3.3   3.29   1.15    0.00    0.50
 1991 262    71    68   35.7    0.0   35.7   0.00   3.32   45.8   34.2    1.5    3.3   3.32   1.23    0.00    0.55
 1991 263    72    69   37.5    0.0   37.5   0.00   3.27   47.5   35.7    1.7    3.3   3.27   1.14    0.00    0.60
 1991 264    73    70   40.2    0.0   40.2   0.00   3.19   50.1   38.0    2.2    3.2   3.19   1.10    0.00    0.66
 1991 265    74    71   41.3    0.0   41.3   0.00   3.10   52.1   38.8    2.5    3.1   3.10   1.06    0.00    0.71
 1991 266    75    72   42.1    0.0   42.1   0.00   3.09   53.7   39.4    2.7    3.1   3.09   1.04    0.00    0.77
 1991 267    76    73   44.2    0.0   44.2   0.00   3.14   58.1   41.3    3.0    3.1   3.14   1.10    0.00    0.84
 1991 268    77    74   47.2    0.0   47.2   0.00   3.18   63.0   43.7    3.5    3.2   3.18   1.15    0.00    0.91
 1991 269    78    75   49.6    0.0   49.6   0.00   3.16   66.9   45.6    4.0    3.2   3.16   1.15    0.00    1.00
 1991 270    79    76   53.4    0.0   53.4   0.00   3.12   70.9   48.4    5.0    3.1   3.12   1.11    0.00    1.09
 1991 271    80    77   55.3    0.0   55.3   0.00   3.14   75.0   49.9    5.4    3.1   3.14   1.16    0.00    1.18
 1991 272    81    78   56.7    0.0   56.7   0.00   3.11   77.7   50.8    5.8    3.1   3.11   1.15    0.00    1.29
 1991 273    82    79   58.6    0.0   58.6   0.00   3.07   80.6   52.1    6.5    3.1   3.07   1.13    0.00    1.40
 1991 274    83    80   60.1    0.0   60.1   0.00   3.06   83.3   53.1    7.0    3.1   3.06   1.12    0.00    1.51
 1991 275    84    81   61.2    0.0   61.2   0.00   3.03   85.5   53.8    7.4    3.0   3.03   1.11    0.00    1.63
 1991 276    85    82   62.1    0.0   62.1   0.00   2.98   87.4   54.3    7.9    3.0   2.98   1.08    0.00    1.76
 1991 277    86    83   63.1    0.0   63.1   0.00   2.91   88.9   54.6    8.5    2.9   2.91   1.05    0.00    1.89
 1991 278    87    84   64.3    0.0   64.3   0.00   2.89   90.3   55.4    8.9    2.9   2.89   1.06    0.00    2.03
 1991 279    88    85   65.1    0.0   65.1   0.00   2.90   91.5   55.9    9.2    2.9   2.90   1.06    0.00    2.16
 1991 280    89    86   65.8    0.0   65.8   0.00   2.89   92.5   56.3    9.5    2.9   2.89   1.05    0.00    2.30
 1991 281    90    87   66.2    0.0   66.2   0.00   2.85   93.3   56.4    9.8    2.8   2.85   1.02    0.00    2.44
 1991 282    91    88   66.7    0.0   66.7   0.00   2.76   94.0   56.3   10.4    2.8   2.76   0.99    0.00    2.58
 1991 283    92    89   67.1    0.0   67.1   0.00   2.66   94.8   56.1   11.1    2.7   2.66   0.96    0.00    2.72
 1991 284    93    90   67.6    0.0   67.6   0.00   2.55   95.6   55.7   11.9    2.5   2.55   0.92    0.00    2.86
 1991 285    94    91   68.1    0.0   68.1   0.00   2.39   96.3   54.9   13.2    2.4   2.39   0.90    0.00    3.01
 1991 286    95    92   68.6    0.0   68.6   0.00   2.17   96.9   53.6   15.0    2.2   2.17   0.90    0.00    3.15
 1991 287    96    93   69.1    0.0   69.1   0.00   2.06   97.6   53.0   16.2    2.1   2.06   0.90    0.00    3.30
 1991 288    97    94   69.6    0.0   69.6   0.00   2.00   98.2   52.7   17.0    2.0   2.00   0.91    0.00    3.45
 1991 289    98    95   69.9    0.0   69.9   0.00   1.94   98.5   52.2   17.7    1.9   1.94   0.91    0.00    3.59
 1991 290    99    96   70.2    0.0   70.2   0.00   1.92   98.9   52.1   18.1    1.9   1.92   0.90    0.00    3.74
 1991 291   100    97   70.6    0.0   70.6   0.00   1.86   99.4   51.7   18.9    1.9   1.86   0.86    0.00    3.89
 1991 292   101    98   71.1    0.0   71.1   0.00   1.71  100.1   51.6   19.5    1.7   1.71   0.86    0.00    4.04
 1991 293   102    99   71.7    0.0   71.7   0.00   1.61  100.7   51.0   20.6    1.6   1.61   0.84    0.00    4.19
 1991 294   103   100   72.2    0.0   72.2   0.00   1.52  101.3   50.1   22.1    1.5   1.52   0.84    0.00    4.33
 1991 295   104   101   72.8    0.0   72.8   0.00   1.43  102.0   49.1   23.7    1.4   1.43   0.84    0.00    4.48
 1991 296   105   102   73.4    0.0   73.4   0.00   1.41  102.7   48.9   24.5    1.4   1.41   0.84    0.00    4.63
 1991 297   106   103   74.0    0.0   74.0   0.00   1.40  103.4   48.9   25.1    1.4   1.40   0.84    0.00    4.78
 1991 298   107   104   74.6    0.0   74.6   0.00   1.38  104.1   48.8   25.9    1.4   1.38   0.85    0.00    4.94
 1991 299   108   105   75.2    0.0   75.2   0.00   1.34  104.7   48.2   26.9    1.3   1.34   0.83    0.00    5.09
 1991 300   109   106   76.5    0.0   76.5   0.00   1.33  106.3   48.4   28.2    1.3   1.33   0.84    0.00    5.24
 1991 301   110   107   77.9    0.0   77.9   0.00   1.32  107.8   48.7   29.2    1.3   1.32   0.84    0.00    5.39
 1991 302   111   108   79.2    0.0   79.2   0.00   1.32  109.2   48.9   30.2    1.3   1.32   0.85    0.00    5.54
 1991 303   112   109   80.3    0.0   80.3   0.00   1.31  110.6   49.1   31.2    1.3   1.31   0.86    0.00    5.70
 1991 304   113   110   81.4    0.0   81.4   0.00   1.31  111.7   49.2   32.2    1.3   1.31   0.86    0.00    5.85
 1991 305   114   111   82.4    0.0   82.4   0.00   1.29  112.8   49.2   33.2    1.3   1.29   0.85    0.00    6.01
 1991 306   115   112   83.4    0.0   83.4   0.00   1.28  114.0   49.2   34.2    1.3   1.28   0.83    0.00    6.16
 1991 307   116   113   84.4    0.0   84.4   0.00   1.27  115.2   49.2   35.1    1.3   1.27   0.81    0.00    6.32
 1991 308   117   114   85.2    0.0   85.2   0.00   1.26  116.2   49.1   36.1    1.3   1.26   0.79    0.00    6.48
 1991 309   118   115   86.0    0.0   86.0   0.00   1.24  117.2   49.0   37.1    1.2   1.24   0.78    0.00    6.63
 1991 310   119   116   86.9    0.0   86.9   0.00   1.22  118.1   48.8   38.1    1.2   1.22   0.78    0.00    6.79
 1991 311   120   117   87.6    0.0   87.6   0.00   1.21  119.0   48.7   38.9    1.2   1.21   0.77    0.00    6.95
 1991 312   121   118   88.4    0.0   88.4   0.00   1.20  120.0   48.7   39.7    1.2   1.20   0.76    0.00    7.11
 1991 313   122   119   89.1    0.0   89.1   0.00   1.19  120.8   48.7   40.4    1.2   1.19   0.74    0.00    7.27
 1991 314   123   120   89.8    0.0   89.8   0.00   1.30  121.6   52.6   37.2    1.3   1.30   0.73    0.00    7.43
 1991 315   124   121   90.4    0.0   90.4   0.00   1.31  122.4   52.5   37.9    1.3   1.31   0.72    0.00    7.59
 1991 316   125   122   90.9    0.0   90.9   0.00   1.32  123.2   52.4   38.5    1.3   1.32   0.70    0.00    7.76
 1991 317   126   123   91.5    0.0   91.5   0.00   1.33  123.9   52.3   39.2    1.3   1.33   0.69    0.00    7.92
 1991 318   127   124   92.0    0.0   92.0   0.00   1.34  124.5   52.0   39.9    1.3   1.34   0.70    0.00    8.08
 1991 319   128   125   92.4    0.0   92.4   0.00   1.35  125.2   51.6   40.8    1.3   1.35   0.70    0.00    8.25
 1991 320   129   126   92.9    0.0   92.9   0.00   1.36  125.8   51.3   41.6    1.4   1.36   0.69    0.00    8.41
 1991 321   130   127   93.6    0.0   93.6   0.00   1.37  126.8   51.0   42.6    1.4   1.37   0.69    0.00    8.58
 1991 322   131   128   94.4    0.0   94.4   0.00   1.38  128.0   50.7   43.7    1.4   1.38   0.68    0.00    8.75
 1991 323   132   129   95.2    0.0   95.2   0.00   1.39  129.1   50.4   44.8    1.4   1.39   0.67    0.00    8.92
 1991 324   133   130   95.9    0.0   95.9   0.00   1.41  130.2   50.0   45.9    1.4   1.41   0.67    0.00    9.09
 1991 325   134   131   96.5    0.0   96.5   0.00   1.42  131.2   49.4   47.1    1.4   1.42   0.66    0.00    9.26
 1991 326   135   132   97.1    0.0   97.1   0.00   1.42  132.1   48.7   48.4    1.4   1.42   0.65    0.00    9.44
 1991 327   136   133   97.6    0.0   97.6   0.00   1.42  133.0   47.8   49.8    1.4   1.42   0.66    0.00    9.61
 1991 328   137   134   98.2    0.0   98.2   0.00   1.44  133.9   47.3   50.9    1.4   1.44   0.67    0.00    9.79
 1991 329   138   135   98.7    0.0   98.7   0.00   1.45  134.9   46.7   52.0    1.5   1.45   0.68    0.00    9.97
 1991 330   139   136   99.2    0.0   99.2   0.00   1.47  135.7   46.1   53.1    1.5   1.47   0.68    0.00   10.16
 1991 331   140   137   99.5    1.7   97.8   1.37   1.45  136.4   45.4   52.4    1.4   1.45   0.68    0.00   10.34
 1991 332   141   138  100.0    4.4   95.6   1.37   1.41  137.1   44.4   51.2    1.4   1.41   0.69    0.00   10.52
 1991 333   142   139  100.4    7.1   93.3   1.36   1.38  137.9   43.4   50.0    1.4   1.38   0.69    0.00   10.71
 1991 334   143   140  101.0    9.8   91.1   1.36   1.35  138.9   42.3   48.8    1.3   1.35   0.70    0.00   10.90
 1991 335   144   141  101.6   12.3   89.4   1.35   1.32  140.0   41.5   47.8    1.3   1.32   0.70    0.00   11.09
 1991 336   145   142  102.3   14.9   87.4   1.35   1.29  141.1   40.6   46.8    1.3   1.29   0.70    0.00   11.28
 1991 337   146   143  103.0   17.6   85.3   1.34   1.26  142.2   39.7   45.7    1.3   1.26   0.71    0.00   11.48
 1991 338   147   144  103.6   20.3   83.3   1.34   1.23  143.2   38.7   44.6    1.2   1.23   0.72    0.00   11.67
 1991 339   148   145  104.2   22.9   81.3   1.33   1.20  144.2   37.8   43.5    1.2   1.20   0.73    0.00   11.87
 1991 340   149   146  104.7   25.5   79.2   1.33   1.17  145.1   36.8   42.4    1.2   1.17   0.73    0.00   12.07
 1991 341   150   147  105.4   28.1   77.3   1.32   1.14  146.3   35.9   41.4    1.1   1.14   0.74    0.00   12.27
 1991 342   151   148  106.0   30.6   75.4   1.32   1.11  147.3   35.0   40.4    1.1   1.11   0.74    0.00   12.48
 1991 343   152   149  106.6   32.8   73.8   1.31   1.10  148.2   34.5   39.3    1.1   1.10   0.75    0.00   12.68
 1991 344   153   150  107.0   35.3   71.7   1.30   1.06  148.9   33.3   38.4    1.1   1.06   0.75    0.00   12.89
 1991 345   154   151  107.6   37.8   69.8   1.30   1.03  149.8   32.4   37.4    1.0   1.03   0.76    0.00   13.10
 1991 346   155   152  108.1   39.8   68.4   1.29   1.02  150.7   31.9   36.4    1.0   1.02   0.77    0.00   13.31
 1991 347   156   153  108.7   42.0   66.7   1.29   0.99  151.5   31.0   35.7    1.0   0.99   0.77    0.00   13.53
 1991 348   157   154  109.1   43.8   65.4   1.28   0.97  152.3   30.5   34.9    1.0   0.97   0.78    0.00   13.74
 1991 349   158   155  109.5   45.6   63.9   1.27   0.95  152.9   30.0   33.9    1.0   0.95   0.79    0.00   13.95
 1991 350   159   156  109.9   47.8   62.1   1.27   0.92  153.5   29.0   33.1    0.9   0.92   0.79    0.00   14.17
 1991 351   160   157  110.5   50.1   60.4   1.26   0.89  154.4   28.0   32.3    0.9   0.89   0.80    0.00   14.39
 1991 352   161   158  111.1   52.4   58.7   1.25   0.87  155.3   27.3   31.4    0.9   0.87   0.80    0.00   14.61
 1991 353   162   159  111.6   54.5   57.1   1.24   0.84  156.1   26.5   30.6    0.8   0.84   0.81    0.00   14.83
 1991 354   163   160  112.1   56.7   55.4   1.24   0.82  156.8   25.7   29.7    0.8   0.82   0.81    0.00   15.05
 1991 355   164   161  112.8   58.8   54.0   1.23   0.80  157.9   25.1   28.9    0.8   0.80   0.82    0.00   15.27
 1991 356   165   162  113.5   60.9   52.7   1.22   0.79  159.0   24.7   27.9    0.8   0.79   0.83    0.00   15.49
 1991 357   166   163  114.1   62.9   51.2   1.21   0.76  159.8   24.0   27.3    0.8   0.76   0.83    0.00   15.72
 1991 358   167   164  114.6   64.9   49.7   1.20   0.73  160.6   23.1   26.6    0.7   0.73   0.84    0.00   15.95
 1991 359   168   165  115.3   66.7   48.6   1.19   0.72  161.5   22.6   26.0    0.7   0.72   0.85    0.00   16.17
 1991 360   169   166  116.0   67.9   48.1   1.19   0.71  162.6   22.4   25.8    0.7   0.71   0.85    0.00   16.40
 1991 361   170   167  116.7   69.2   47.5   1.18   0.70  163.5   22.1   25.4    0.7   0.70   0.85    0.00   16.63
 1991 362   171   168  117.4   70.8   46.6   1.17   0.69  164.6   21.6   24.9    0.7   0.69   0.86    0.00   16.87
 1991 363   172   169  118.1   72.6   45.5   1.17   0.67  165.5   21.1   24.4    0.7   0.67   0.87    0.00   17.10
 1991 364   173   170  118.7   74.4   44.3   1.16   0.66  166.4   20.6   23.7    0.7   0.66   0.87    0.00   17.33
 1991 365   174   171  119.4   76.2   43.2   1.15   0.64  167.3   20.2   23.0    0.6   0.64   0.88    0.00   17.57
 1992 001   175   172  120.0   77.9   42.2   1.14   0.64  168.3   20.1   22.1    0.6   0.64   0.89    0.00   17.81
 1992 002   176   173  120.7   79.5   41.1   1.13   0.63  169.1   19.8   21.3    0.6   0.63   0.90    0.00   18.04
 1992 003   177   174  120.7   79.5   41.1   1.13   0.63  170.0   19.8   21.3    0.6   0.63   0.90    0.00   18.04
 1992 004   178   175  120.7   79.5   41.1   1.13   0.63  170.8   19.8   21.3    0.6   0.63   0.90    0.00   18.04
 1992 005   179   176  120.7   79.5   41.1   1.13   0.63  171.7   19.8   21.3    0.6   0.63   0.90    0.00   18.04
 1992 006   180   177  120.7   79.5   41.1   1.13   0.63  172.5   19.8   21.3    0.6   0.63   0.90    0.00   18.04

*DSSAT Cropping System Model Ver. 4.0.2.000               Jul 20, 2016; 16:10:11

*RUN   3        : UYMZ                    
 MODEL          : MZCER040 - Maize           
 EXPERIMENT     : UYMZ0087 MZ    late to create DSS                             
 TREATMENT  1   : UYMZ                    

@YEAR DOY   DAS   DAP   CNAD   GNAD   VNAD   GN%D   VN%D   NUPC   LNAD   SNAD   LN%D   SN%D   RN%D   SNN0C   SNN1C
 1992 194     3     0    0.0    0.0    0.0   0.00   0.00    0.0    0.0    0.0    0.0   0.00   0.00    0.00    0.00
 1992 195     4     1    0.0    0.0    0.0   0.00   0.00    0.0    0.0    0.0    0.0   0.00   0.00    0.00    0.00
 1992 196     5     2    0.0    0.0    0.0   0.00   0.00    0.0    0.0    0.0    0.0   0.00   0.00    0.00    0.00
 1992 197     6     3    0.0    0.0    0.0   0.00   0.00    0.0    0.0    0.0    0.0   0.00   0.00    0.00    0.00
 1992 198     7     4    0.0    0.0    0.0   0.00   0.00    0.0    0.0    0.0    0.0   0.00   0.00    0.00    0.00
 1992 199     8     5    0.0    0.0    0.0   0.00   0.00    0.0    0.0    0.0    0.0   0.00   0.00    0.00    0.00
 1992 200     9     6    0.0    0.0    0.0   0.00   0.00    0.0    0.0    0.0    0.0   0.00   0.00    0.00    0.00
 1992 201    10     7    0.0    0.0    0.0   0.00   0.00    0.0    0.0    0.0    0.0   0.00   0.00    0.00    0.00
 1992 202    11     8    0.0    0.0    0.0   0.00   0.00    0.0    0.0    0.0    0.0   0.00   0.00    0.00    0.00
 1992 203    12     9    0.0    0.0    0.0   0.00   0.00    0.0    0.0    0.0    0.0   0.00   0.00    0.00    0.00
 1992 204    13    10    0.0    0.0    0.0   0.00   0.00    0.0    0.0    0.0    0.0   0.00   0.00    0.00    0.00
 1992 205    14    11    0.0    0.0    0.0   0.00   0.00    0.0    0.0    0.0    0.0   0.00   0.00    0.00    0.00
 1992 206    15    12    0.0    0.0    0.0   0.00   0.00    0.0    0.0    0.0    0.0   0.00   0.00    0.00    0.00
 1992 207    16    13    0.0    0.0    0.0   0.00   0.00    0.0    0.0    0.0    0.0   0.00   0.00    0.00    0.00
 1992 208    17    14    0.0    0.0    0.0   0.00   0.00    0.0    0.0    0.0    0.0   0.00   0.00    0.00    0.00
 1992 209    18    15    0.0    0.0    0.0   0.00   0.00    0.0    0.0    0.0    0.0   0.00   0.00    0.00    0.00
 1992 210    19    16    0.0    0.0    0.0   0.00   0.00    0.0    0.0    0.0    0.0   0.00   0.00    0.00    0.00
 1992 211    20    17    0.0    0.0    0.0   0.00   0.00    0.0    0.0    0.0    0.0   0.00   0.00    0.00    0.00
 1992 212    21    18    0.0    0.0    0.0   0.00   0.00    0.0    0.0    0.0    0.0   0.00   0.00    0.00    0.00
 1992 213    22    19    0.0    0.0    0.0   0.00   0.00    0.0    0.0    0.0    0.0   0.00   0.00    0.00    0.00
 1992 214    23    20    0.0    0.0    0.0   0.00   0.00    0.0    0.0    0.0    0.0   0.00   0.00    0.00    0.00
 1992 215    24    21    0.0    0.0    0.0   0.00   0.00    0.0    0.0    0.0    0.0   0.00   0.00    0.00    0.00
 1992 216    25    22    0.0    0.0    0.0   0.00   0.00    0.0    0.0    0.0    0.0   0.00   0.00    0.00    0.00
 1992 217    26    23    0.0    0.0    0.0   0.00   0.00    0.0    0.0    0.0    0.0   0.00   0.00    0.00    0.00
 1992 218    27    24    0.0    0.0    0.0   0.00   0.00    0.0    0.0    0.0    0.0   0.00   0.00    0.00    0.00
 1992 219    28    25    0.0    0.0    0.0   0.00   0.00    0.0    0.0    0.0    0.0   0.00   0.00    0.00    0.00
 1992 220    29    26    0.0    0.0    0.0   0.00   0.00    0.0    0.0    0.0    0.0   0.00   0.00    0.00    0.00
 1992 221    30    27    0.0    0.0    0.0   0.00   0.00    0.0    0.0    0.0    0.0   0.00   0.00    0.00    0.00
 1992 222    31    28    0.0    0.0    0.0   0.00   0.00    0.0    0.0    0.0    0.0   0.00   0.00    0.00    0.00
 1992 223    32    29    0.0    0.0    0.0   0.00   0.00    0.0    0.0    0.0    0.0   0.00   0.00    0.00    0.00
 1992 224    33    30    0.0    0.0    0.0   0.00   0.00    0.0    0.0    0.0    0.0   0.00   0.00    0.00    0.00
 1992 225    34    31    0.0    0.0    0.0   0.00   0.00    0.0    0.0    0.0    0.0   0.00   0.00    0.00    0.00
 1992 226    35    32    0.0    0.0    0.0   0.00   0.00    0.0    0.0    0.0    0.0   0.00   0.00    0.00    0.00
 1992 227    36    33    0.0    0.0    0.0   0.00   0.00    0.0    0.0    0.0    0.0   0.00   0.00    0.00    0.00
 1992 228    37    34    0.0    0.0    0.0   0.00   0.00    0.0    0.0    0.0    0.0   0.00   0.00    0.00    0.00
 1992 229    38    35    1.2    0.0    1.2   0.00   4.40    0.0    0.6    0.6    4.4   4.40   0.00    0.00    0.00
 1992 230    39    36    1.3    0.0    1.3   0.00   4.53    0.2    0.6    0.6    4.5   4.53   1.08    0.00    0.00
 1992 231    40    37    1.3    0.0    1.3   0.00   4.51    0.2    0.6    0.6    4.5   4.51   1.10    0.00    0.00
 1992 232    41    38    1.3    0.0    1.3   0.00   4.50    0.2    0.6    0.6    4.5   4.50   1.11    0.00    0.00
 1992 233    42    39    1.3    0.0    1.3   0.00   4.48    0.2    0.6    0.6    4.5   4.48   1.13    0.00    0.00
 1992 234    43    40    1.2    0.0    1.2   0.00   4.46    0.2    0.6    0.6    4.5   4.46   1.15    0.00    0.00
 1992 235    44    41    1.2    0.0    1.2   0.00   4.46    0.2    0.6    0.6    4.5   4.46   1.10    0.00    0.00
 1992 236    45    42    1.2    0.0    1.2   0.00   4.42    0.2    0.6    0.6    4.4   4.42   1.18    0.00    0.00
 1992 237    46    43    1.2    0.0    1.2   0.00   4.40    0.3    0.6    0.6    4.4   4.40   1.19    0.00    0.01
 1992 238    47    44    1.2    0.0    1.2   0.00   4.38    0.3    0.6    0.6    4.4   4.38   1.19    0.00    0.01
 1992 239    48    45    1.2    0.0    1.2   0.00   4.37    0.4    0.6    0.6    4.4   4.37   1.21    0.00    0.01
 1992 240    49    46    1.2    0.0    1.2   0.00   4.34    0.4    0.6    0.6    4.3   4.34   1.22    0.00    0.01
 1992 241    50    47    1.2    0.0    1.2   0.00   4.04    0.4    0.6    0.6    4.0   4.04   1.16    0.00    0.01
 1992 242    51    48    1.3    0.0    1.3   0.00   3.60    0.5    0.8    0.5    3.6   3.60   1.16    0.00    0.01
 1992 243    52    49    1.5    0.0    1.5   0.00   3.61    0.8    1.0    0.5    3.6   3.61   1.09    0.00    0.02
 1992 244    53    50    1.8    0.0    1.8   0.00   4.02    1.1    1.2    0.6    4.0   4.02   1.17    0.00    0.02
 1992 245    54    51    1.9    0.0    1.9   0.00   4.08    1.2    1.3    0.6    4.1   4.08   1.20    0.00    0.02
 1992 246    55    52    2.0    0.0    2.0   0.00   4.01    1.3    1.4    0.6    4.0   4.01   1.14    0.00    0.02
 1992 247    56    53    2.1    0.0    2.1   0.00   3.93    1.6    1.6    0.6    3.9   3.93   1.30    0.00    0.03
 1992 248    57    54    2.3    0.0    2.3   0.00   3.88    2.0    1.7    0.5    3.9   3.88   1.31    0.00    0.03
 1992 249    58    55    2.5    0.0    2.5   0.00   3.81    2.3    1.9    0.5    3.8   3.81   1.26    0.00    0.04
 1992 250    59    56    2.7    0.0    2.7   0.00   3.82    2.8    2.2    0.5    3.8   3.82   1.25    0.00    0.04
 1992 251    60    57    3.0    0.0    3.0   0.00   3.73    3.2    2.4    0.5    3.7   3.73   1.22    0.00    0.05
 1992 252    61    58    3.3    0.0    3.3   0.00   3.67    3.4    2.8    0.5    3.7   3.67   1.09    0.00    0.05
 1992 253    62    59    3.7    0.0    3.7   0.00   3.66    4.0    3.2    0.5    3.7   3.66   1.15    0.00    0.06
 1992 254    63    60    4.2    0.0    4.2   0.00   3.61    4.6    3.7    0.5    3.6   3.61   1.17    0.00    0.07
 1992 255    64    61    4.7    0.0    4.7   0.00   3.58    5.2    4.2    0.5    3.6   3.58   1.12    0.00    0.08
 1992 256    65    62    5.3    0.0    5.3   0.00   3.67    6.3    4.8    0.5    3.7   3.67   1.23    0.00    0.09
 1992 257    66    63    5.9    0.0    5.9   0.00   3.82    6.9    5.4    0.5    3.8   3.82   1.18    0.00    0.10
 1992 258    67    64    6.2    0.0    6.2   0.00   3.76    7.8    5.7    0.5    3.8   3.76   1.23    0.00    0.11
 1992 259    68    65    6.7    0.0    6.7   0.00   3.65    8.7    6.2    0.5    3.7   3.65   1.23    0.00    0.12
 1992 260    69    66    7.3    0.0    7.3   0.00   3.56    9.4    6.8    0.5    3.6   3.56   1.15    0.00    0.14
 1992 261    70    67    8.1    0.0    8.1   0.00   3.40   10.5    7.7    0.5    3.4   3.40   1.15    0.00    0.16
 1992 262    71    68    9.5    0.0    9.5   0.00   3.73   12.7    8.9    0.5    3.7   3.73   1.26    0.00    0.17
 1992 263    72    69   10.0    0.0   10.0   0.00   3.72   13.9    9.5    0.5    3.7   3.72   1.24    0.00    0.20
 1992 264    73    70   10.5    0.0   10.5   0.00   3.55   15.0   10.0    0.5    3.5   3.55   1.20    0.00    0.22
 1992 265    74    71   11.6    0.0   11.6   0.00   3.57   16.8   11.1    0.5    3.6   3.57   1.19    0.00    0.25
 1992 266    75    72   12.6    0.0   12.6   0.00   3.78   17.4   12.1    0.5    3.8   3.78   1.11    0.00    0.28
 1992 267    76    73   12.7    0.0   12.7   0.00   3.60   18.5   12.2    0.5    3.6   3.60   1.17    0.00    0.31
 1992 268    77    74   14.4    0.0   14.4   0.00   3.90   19.8   13.8    0.5    3.9   3.90   1.10    0.00    0.35
 1992 269    78    75   14.0    0.0   14.0   0.00   3.75   21.1   13.5    0.5    3.7   3.75   1.31    0.00    0.38
 1992 270    79    76   14.0    0.0   14.0   0.00   3.67   21.3   13.5    0.5    3.7   3.67   1.28    0.00    0.42
 1992 271    80    77   14.5    0.0   14.5   0.00   3.58   21.8   14.0    0.5    3.6   3.58   1.16    0.00    0.46
 1992 272    81    78   15.4    0.0   15.4   0.00   3.55   23.4   14.9    0.5    3.6   3.55   1.16    0.00    0.51
 1992 273    82    79   16.6    0.0   16.6   0.00   3.53   25.4   16.1    0.5    3.5   3.53   1.16    0.00    0.55
 1992 274    83    80   18.4    0.0   18.4   0.00   3.49   27.8   17.8    0.5    3.5   3.49   1.14    0.00    0.60
 1992 275    84    81   20.2    0.0   20.2   0.00   3.45   29.4   19.6    0.6    3.5   3.45   1.10    0.00    0.66
 1992 276    85    82   21.8    0.0   21.8   0.00   3.42   31.4   21.2    0.6    3.4   3.42   1.10    0.00    0.71
 1992 277    86    83   23.3    0.0   23.3   0.00   3.39   34.0   22.5    0.7    3.4   3.39   1.14    0.00    0.76
 1992 278    87    84   25.4    0.0   25.4   0.00   3.36   36.6   24.5    0.9    3.4   3.36   1.13    0.00    0.82
 1992 279    88    85   26.8    0.0   26.8   0.00   3.34   37.7   25.8    1.0    3.3   3.34   1.08    0.00    0.88
 1992 280    89    86   28.0    0.0   28.0   0.00   3.37   41.4   27.0    1.1    3.4   3.37   1.21    0.00    0.94
 1992 281    90    87   28.9    0.0   28.9   0.00   3.37   42.9   27.7    1.1    3.4   3.37   1.20    0.00    1.01
 1992 282    91    88   29.7    0.0   29.7   0.00   3.32   44.8   28.4    1.2    3.3   3.32   1.18    0.00    1.09
 1992 283    92    89   31.1    0.0   31.1   0.00   3.29   47.1   29.7    1.4    3.3   3.29   1.15    0.00    1.17
 1992 284    93    90   33.3    0.0   33.3   0.00   3.26   50.5   31.6    1.7    3.3   3.26   1.15    0.00    1.26
 1992 285    94    91   36.1    0.0   36.1   0.00   3.23   53.2   33.9    2.1    3.2   3.23   1.11    0.00    1.35
 1992 286    95    92   38.9    0.0   38.9   0.00   3.20   57.6   36.3    2.6    3.2   3.20   1.13    0.00    1.44
 1992 287    96    93   41.5    0.0   41.5   0.00   3.17   61.8   38.3    3.1    3.2   3.17   1.14    0.00    1.54
 1992 288    97    94   45.2    0.0   45.2   0.00   3.14   66.4   41.2    4.0    3.1   3.14   1.13    0.00    1.65
 1992 289    98    95   47.7    0.0   47.7   0.00   3.09   67.7   43.0    4.7    3.1   3.09   1.07    0.00    1.76
 1992 290    99    96   50.9    0.0   50.9   0.00   3.06   71.0   45.2    5.7    3.1   3.06   1.07    0.00    1.86
 1992 291   100    97   53.7    0.0   53.7   0.00   3.03   76.5   47.1    6.5    3.0   3.03   1.14    0.00    1.97
 1992 292   101    98   55.8    0.0   55.8   0.00   3.02   80.7   48.5    7.2    3.0   3.02   1.15    0.00    2.09
 1992 293   102    99   58.3    0.0   58.3   0.00   2.99   81.8   50.2    8.1    3.0   2.99   1.08    0.00    2.22
 1992 294   103   100   60.5    0.0   60.5   0.00   2.98   87.1   51.6    8.9    3.0   2.98   1.14    0.00    2.34
 1992 295   104   101   62.5    0.0   62.5   0.00   2.96   91.1   52.8    9.7    3.0   2.96   1.14    0.00    2.48
 1992 296   105   102   65.4    0.0   65.4   0.00   2.94   95.3   54.6   10.9    2.9   2.94   1.13    0.00    2.63
 1992 297   106   103   69.8    0.0   69.8   0.00   2.91  100.6   57.1   12.7    2.9   2.91   1.12    0.00    2.78
 1992 298   107   104   75.6    0.0   75.6   0.00   2.87  107.0   60.2   15.4    2.9   2.87   1.10    0.00    2.94
 1992 299   108   105   78.9    0.0   78.9   0.00   2.83  109.2   61.8   17.1    2.8   2.83   1.07    0.00    3.10
 1992 300   109   106   83.6    0.0   83.6   0.00   2.75  115.7   63.7   19.9    2.7   2.75   1.09    0.00    3.26
 1992 301   110   107   87.8    0.0   87.8   0.00   2.51  119.8   68.6   19.2    2.5   2.51   1.08    0.00    3.42
 1992 302   111   108   91.2    0.0   91.2   0.00   2.52  123.1   70.9   20.3    2.5   2.52   1.08    0.00    3.59
 1992 303   112   109   93.1    0.0   93.1   0.00   2.47  125.6   71.6   21.5    2.5   2.47   1.04    0.00    3.75
 1992 304   113   110   94.6    0.0   94.6   0.00   2.41  127.6   71.8   22.8    2.4   2.41   1.00    0.00    3.92
 1992 305   114   111   95.8    0.0   95.8   0.00   2.36  129.2   71.7   24.1    2.4   2.36   0.97    0.00    4.09
 1992 306   115   112   96.7    0.0   96.7   0.00   2.30  130.5   71.3   25.4    2.3   2.30   0.95    0.00    4.26
 1992 307   116   113   97.5    0.0   97.5   0.00   2.25  131.5   70.7   26.8    2.2   2.25   0.94    0.00    4.43
 1992 308   117   114   98.2    0.0   98.2   0.00   2.22  132.6   70.6   27.6    2.2   2.22   0.93    0.00    4.61
 1992 309   118   115   98.7    0.0   98.7   0.00   2.20  133.4   70.4   28.3    2.2   2.20   0.91    0.00    4.78
 1992 310   119   116   99.2    0.0   99.2   0.00   2.18  134.1   70.2   29.0    2.2   2.18   0.89    0.00    4.96
 1992 311   120   117   99.5    0.0   99.5   0.00   2.15  134.6   69.7   29.8    2.1   2.15   0.86    0.00    5.14
 1992 312   121   118   99.8    0.0   99.8   0.00   2.12  135.1   69.3   30.5    2.1   2.12   0.84    0.00    5.32
 1992 313   122   119  100.1    0.0  100.1   0.00   2.09  135.5   68.9   31.1    2.1   2.09   0.83    0.00    5.50
 1992 314   123   120  100.3    0.0  100.3   0.00   2.06  135.8   68.5   31.8    2.1   2.06   0.82    0.00    5.68
 1992 315   124   121  100.5    0.0  100.5   0.00   2.01  136.1   67.5   33.0    2.0   2.01   0.82    0.00    5.86
 1992 316   125   122  100.8    0.0  100.8   0.00   1.98  136.6   67.0   33.7    2.0   1.98   0.82    0.00    6.04
 1992 317   126   123  101.0    0.0  101.0   0.00   1.96  136.9   66.6   34.4    2.0   1.96   0.82    0.00    6.22
 1992 318   127   124  101.1    0.0  101.1   0.00   1.94  137.1   66.2   34.9    1.9   1.94   0.82    0.00    6.40
 1992 319   128   125  101.6    0.0  101.6   0.00   1.91  137.8   65.7   35.9    1.9   1.91   0.82    0.00    6.59
 1992 320   129   126  102.2    0.0  102.2   0.00   1.88  138.7   65.3   36.9    1.9   1.88   0.82    0.00    6.77
 1992 321   130   127  102.7    0.0  102.7   0.00   1.84  139.6   64.5   38.2    1.8   1.84   0.80    0.00    6.96
 1992 322   131   128  103.3    0.0  103.3   0.00   1.81  140.5   64.0   39.4    1.8   1.81   0.78    0.00    7.14
 1992 323   132   129  103.8    0.0  103.8   0.00   1.77  141.3   63.3   40.5    1.8   1.77   0.76    0.00    7.33
 1992 324   133   130  104.3    0.0  104.3   0.00   1.71  142.1   62.2   42.1    1.7   1.71   0.75    0.00    7.52
 1992 325   134   131  104.8    0.0  104.8   0.00   1.65  142.7   61.0   43.8    1.6   1.65   0.75    0.00    7.71
 1992 326   135   132  105.2    0.0  105.2   0.00   1.78  143.3   65.1   40.1    1.8   1.78   0.75    0.00    7.90
 1992 327   136   133  105.5    0.0  105.5   0.00   1.79  143.8   64.7   40.7    1.8   1.79   0.74    0.00    8.10
 1992 328   137   134  105.7    0.0  105.7   0.00   1.80  144.3   64.4   41.3    1.8   1.80   0.73    0.00    8.29
 1992 329   138   135  105.9    0.0  105.9   0.00   1.81  144.6   64.0   41.9    1.8   1.81   0.72    0.00    8.49
 1992 330   139   136  106.0    0.0  106.0   0.00   1.82  145.0   63.5   42.5    1.8   1.82   0.72    0.00    8.68
 1992 331   140   137  106.1    0.0  106.1   0.00   1.82  145.2   62.9   43.2    1.8   1.82   0.72    0.00    8.88
 1992 332   141   138  106.2    0.0  106.2   0.00   1.84  145.5   62.5   43.8    1.8   1.84   0.72    0.00    9.08
 1992 333   142   139  106.3    0.0  106.3   0.00   1.85  145.7   61.9   44.4    1.8   1.85   0.72    0.00    9.27
 1992 334   143   140  106.4    0.0  106.4   0.00   1.86  145.9   61.3   45.1    1.9   1.86   0.72    0.00    9.47
 1992 335   144   141  106.5    0.0  106.5   0.00   1.87  146.4   60.7   45.8    1.9   1.87   0.73    0.00    9.67
 1992 336   145   142  106.6    0.0  106.6   0.00   1.87  146.6   59.6   47.0    1.9   1.87   0.72    0.00    9.87
 1992 337   146   143  106.7    0.0  106.7   0.00   1.88  147.2   58.6   48.1    1.9   1.88   0.71    0.00   10.07
 1992 338   147   144  106.8    0.0  106.8   0.00   1.88  147.8   57.5   49.3    1.9   1.88   0.70    0.00   10.28
 1992 339   148   145  106.8    0.0  106.8   0.00   1.88  148.4   56.1   50.7    1.9   1.88   0.70    0.00   10.48
 1992 340   149   146  106.8    0.0  106.8   0.00   1.88  148.9   54.9   51.9    1.9   1.88   0.71    0.00   10.69
 1992 341   150   147  106.9    2.9  104.0   1.81   1.83  149.6   53.5   50.6    1.8   1.83   0.72    0.00   10.90
 1992 342   151   148  107.0    5.7  101.3   1.76   1.78  150.1   52.1   49.2    1.8   1.78   0.72    0.00   11.12
 1992 343   152   149  107.2    8.7   98.5   1.74   1.73  150.8   50.6   47.9    1.7   1.73   0.73    0.00   11.33
 1992 344   153   150  107.3   11.7   95.6   1.73   1.68  151.5   49.2   46.5    1.7   1.68   0.73    0.00   11.55
 1992 345   154   151  107.5   14.9   92.6   1.72   1.63  152.1   47.6   45.0    1.6   1.63   0.74    0.00   11.77
 1992 346   155   152  107.6   17.7   89.9   1.71   1.58  152.6   46.2   43.7    1.6   1.58   0.74    0.00   12.00
 1992 347   156   153  107.8   20.0   87.8   1.71   1.54  153.0   45.1   42.7    1.5   1.54   0.74    0.00   12.22
 1992 348   157   154  107.9   22.3   85.6   1.72   1.50  153.4   44.0   41.6    1.5   1.50   0.74    0.00   12.45
 1992 349   158   155  108.0   24.5   83.5   1.72   1.47  153.8   42.9   40.6    1.5   1.47   0.75    0.00   12.67
 1992 350   159   156  108.2   25.9   82.2   1.72   1.44  154.1   42.2   40.0    1.4   1.44   0.75    0.00   12.90
 1992 351   160   157  108.3   27.9   80.4   1.72   1.41  154.4   41.3   39.1    1.4   1.41   0.76    0.00   13.13
 1992 352   161   158  108.4   30.1   78.3   1.72   1.38  154.7   40.3   38.0    1.4   1.38   0.77    0.00   13.36
 1992 353   162   159  108.5   32.0   76.4   1.72   1.34  154.9   39.3   37.2    1.3   1.34   0.77    0.00   13.59
 1992 354   163   160  108.5   34.1   74.4   1.72   1.31  155.1   38.4   36.0    1.3   1.31   0.78    0.00   13.83
 1992 355   164   161  108.6   36.0   72.7   1.72   1.28  155.3   37.5   35.2    1.3   1.28   0.78    0.00   14.06
 1992 356   165   162  108.7   37.8   70.9   1.72   1.26  155.5   36.7   34.2    1.3   1.26   0.79    0.00   14.29
 1992 357   166   163  108.8   40.3   68.5   1.71   1.22  155.7   35.8   32.7    1.2   1.22   0.79    0.00   14.52
 1992 358   167   164  108.8   42.6   66.3   1.70   1.20  155.9   35.0   31.3    1.2   1.20   0.80    0.00   14.76
 1992 359   168   165  109.1   44.3   64.8   1.70   1.17  156.5   34.3   30.5    1.2   1.17   0.81    0.00   14.99
 1992 360   169   166  109.2   46.9   62.3   1.69   1.12  156.7   32.6   29.7    1.1   1.12   0.81    0.00   15.23
 1992 361   170   167  109.4   49.1   60.2   1.67   1.06  157.1   30.9   29.3    1.1   1.06   0.81    0.00   15.46
 1992 362   171   168  109.5   51.3   58.2   1.66   1.02  157.4   29.9   28.3    1.0   1.02   0.81    0.00   15.70
 1992 363   172   169  109.6   53.9   55.7   1.64   0.98  157.6   28.6   27.1    1.0   0.98   0.81    0.00   15.94
 1992 364   173   170  109.8   56.4   53.3   1.62   0.95  157.9   27.8   25.5    1.0   0.95   0.81    0.00   16.17
 1992 365   174   171  110.0   58.6   51.4   1.61   0.93  158.3   27.1   24.3    0.9   0.93   0.82    0.00   16.41
 1992 366   175   172  110.4   60.4   50.0   1.59   0.91  159.0   26.6   23.4    0.9   0.91   0.83    0.00   16.65
 1993 001   176   173  110.9   62.3   48.6   1.58   0.89  159.9   26.1   22.5    0.9   0.89   0.84    0.00   16.89
 1993 002   177   174  111.4   64.2   47.2   1.56   0.88  160.8   25.6   21.6    0.9   0.88   0.85    0.00   17.14
 1993 003   178   175  111.9   66.1   45.8   1.55   0.86  161.7   25.1   20.7    0.9   0.86   0.86    0.00   17.38
 1993 004   179   176  112.4   68.3   44.0   1.53   0.83  162.5   24.3   19.7    0.8   0.83   0.87    0.00   17.63
 1993 005   180   177  113.1   70.6   42.5   1.51   0.80  163.7   23.3   19.2    0.8   0.80   0.88    0.00   17.88
 1993 006   181   178  113.7   72.7   41.0   1.50   0.76  164.7   22.2   18.8    0.8   0.76   0.88    0.00   18.13
 1993 007   182   179  114.3   74.8   39.5   1.48   0.74  165.6   21.7   17.8    0.7   0.74   0.89    0.00   18.38
 1993 008   183   180  114.7   76.7   38.0   1.47   0.71  166.1   20.8   17.1    0.7   0.71   0.90    0.00   18.63
 1993 009   184   181  115.0   78.4   36.6   1.45   0.68  166.7   19.9   16.7    0.7   0.68   0.90    0.00   18.89
 1993 010   185   182  115.5   80.2   35.3   1.43   0.65  167.4   19.1   16.2    0.7   0.65   0.91    0.00   19.14
 1993 011   186   183  116.1   81.9   34.2   1.41   0.63  168.2   18.4   15.8    0.6   0.63   0.92    0.00   19.40
 1993 012   187   184  116.1   81.9   34.2   1.41   0.63  169.1   18.4   15.8    0.6   0.63   0.92    0.00   19.40
 1993 013   188   185  116.1   81.9   34.2   1.41   0.63  169.9   18.4   15.8    0.6   0.63   0.92    0.00   19.40
 1993 014   189   186  116.1   81.9   34.2   1.41   0.63  170.8   18.4   15.8    0.6   0.63   0.92    0.00   19.40
