*SIMULATION OVERVIEW FILE

*DSSAT Cropping System Model Ver. 4.0.2.000               Aug 03, 2016; 14:38:54
                                                                                
*RUN   1        : UYMZ                                                          
 MODEL          : MZCER040 - MAIZE                                              
 EXPERIMENT     : UYMZ0122 SN late to create DSS                                
 TREATMENT  1   : UYMZ                                                          
                                                                                
 CROP           : MAIZE          CULTIVAR : CMEDIO UY        ECOTYPE :IB0001    
 STARTING DATE  : JUL  3 1987                                                   
 PLANTING DATE  : JUL  6 1987    PLANTS/m2 :  7.0     ROW SPACING :  15.cm      
 WEATHER        : UYTA   1987                                                   
 SOIL           : UYSS0N2002     TEXTURE :       -  N20-02    SNIA CLAY RISS    
 SOIL INITIAL C : DEPTH:125cm EXTR. H2O:186.3mm  NO3: 74.8kg/ha  NH4: 23.9kg/ha 
 WATER BALANCE  : AUTOMATIC IRRIGATION - REFILL PROFILE                         
 IRRIGATION     : AUTOMATIC - PLANTING -> MATURITY [ SOIL DEPTH:30.00m 50.%]    
 NITROGEN BAL.  : SOIL-N & N-UPTAKE SIMULATION; NO N-FIXATION                   
 N-FERTILIZER   :        3 kg/ha IN     3 APPLICATIONS                          
 RESIDUE/MANURE : INITIAL :     0 kg/ha ;       0 kg/ha IN     0 APPLICATIONS   
 ENVIRONM. OPT. : DAYL=    0.00  SRAD=    0.00  TMAX=    0.00  TMIN=    0.00    
                  RAIN=    0.00  CO2 = R330.00  DEW =    0.00  WIND=    0.00    
 SIMULATION OPT : WATER   :Y  NITROGEN:Y  N-FIX:N  PHOSPH :N  PESTS  :N         
                  PHOTO   :C  ET      :R  INFIL:S  HYDROL :R  SOM    :G         
 MANAGEMENT OPT : PLANTING:R  IRRIG   :A  FERT :D  RESIDUE:N  HARVEST:M  WTH:M  
                                                                                
*SUMMARY OF SOIL AND GENETIC INPUT PARAMETERS                                   
                                                                                
   SOIL LOWER UPPER   SAT  EXTR  INIT   ROOT   BULK     pH    NO3    NH4    ORG 
  DEPTH LIMIT LIMIT    SW    SW    SW   DIST   DENS                          C  
   cm   cm3/cm3    cm3/cm3    cm3/cm3         g/cm3         ugN/g  ugN/g     %  
------------------------------------------------------------------------------- 
  0-  5 0.331 0.542 0.585 0.211 0.394   1.00   1.11   6.50  15.00   1.50   2.74 
  5- 15 0.331 0.542 0.585 0.211 0.394   1.00   1.11   6.50  15.00   1.50   2.74 
 15- 30 0.331 0.542 0.585 0.211 0.394   1.00   1.11   6.50  15.00   1.50   2.74 
 30- 45 0.290 0.438 0.491 0.148 0.334   0.43   1.26   6.50   8.50   1.50   1.07 
 45- 60 0.292 0.431 0.480 0.138 0.375   0.39   1.29   6.27   4.53   1.50   0.90 
 60- 90 0.293 0.419 0.466 0.126 0.419   0.32   1.34   6.00   0.00   1.50   0.64 
 90-108 0.286 0.408 0.460 0.122 0.408   0.23   1.36   6.00   0.00   1.50   0.35 
108-125 0.276 0.395 0.456 0.119 0.395   0.12   1.38   6.00   0.00   1.50   0.14 
                                                                                
TOT-125  37.3  55.9  62.1  18.6  49.1  <--cm   -  kg/ha-->   74.8   23.9 166127 
SOIL ALBEDO    : 0.09      EVAPORATION LIMIT : 6.00         MIN. FACTOR  : 1.00 
RUNOFF CURVE # :10.00      DRAINAGE RATE     : 0.40         FERT. FACTOR : 1.00 
                                                                                
 MAIZE      CULTIVAR :UY0370-CMEDIO UY          ECOTYPE :IB0001                 
 P1     : 280.00  P2     : 0.0000  P5     : 750.00                              
 G2     : 800.00  G3     :  7.500  PHINT  : 38.900                              
                                                                                
                                                                                
                                                                                
*SIMULATED CROP AND SOIL STATUS AT MAIN DEVELOPMENT STAGES

 RUN NO.     1     UYMZ                    

        CROP GROWTH   BIOMASS         LEAF   CROP N     STRESS  
   DATE  AGE STAGE      kg/ha    LAI   NUM  kg/ha  %   H2O    N 
 ------  --- ---------- -----  -----  ----  ---  ---  ----  ----
  3 JUL    0 Start Sim      0   0.00   0.0    0  0.0  0.00  0.00
  6 JUL    0 Sowing         0   0.00   0.0    0  0.0  0.00  0.00
  7 JUL    1 Germinate      0   0.00   0.0    0  0.0  0.00  0.00
 15 JUL    9 Emergence     28   0.00   2.1    1  4.4  0.00  0.00
 14 SEP   70 End Juveni   323   0.41   9.8   12  3.8  0.00  0.00
 18 SEP   74 Floral Ini   374   0.45  10.1   14  3.7  0.00  0.01
 15 NOV  132 75% Silkin  7676   3.36  21.1  107  1.4  0.00  0.04
 29 NOV  146 Beg Gr Fil  9847   3.05  21.1  116  1.2  0.00  0.05
  9 JAN  187 End Gr Fil 18051   1.27  21.1  138  0.8  0.00  0.22
 11 JAN  189 Maturity   18051   1.27  21.1  138  0.8  0.00  0.53
 11 JAN  189 Harvest    18051   1.27  21.1  138  0.8  0.00  0.00


*MAIN GROWTH AND DEVELOPMENT VARIABLES

@     VARIABLE                          SIMULATED     MEASURED
      --------                          ---------     --------
      Anthesis day (dap)                      132          -99
      Physiological maturity day (dap)        189          -99
      Yield at harvest maturity (kg [dm]/    8839          -99
      Number at maturity (no/m2)             3367          -99
      Unit wt at maturity (g [dm]/unit)    0.2626          -99
      Number at maturity (no/unit)          480.9          -99
      Tops weight at maturity (kg [dm]/ha   18051          -99
      By-product produced (stalk) at matu    9283          -99
      Leaf area index, maximum               3.40          -99
      Harvest index at maturity             0.490          -99
      Grain N at maturity (kg/ha)             101          -99
      Tops N at maturity (kg/ha)              138          -99
      Stem N at maturity (kg/ha)               37          -99
      Grain N at maturity (%)                 1.1          -99
      Tops weight at anthesis (kg [dm]/ha    7500          -99
      Tops N at anthesis (kg/ha)              106          -99
      Leaf number per stem at maturity      21.08          -99


*ENVIRONMENTAL AND STRESS FACTORS

 |-----Development Phase------|-------------Environment--------------|---------Stress----------|
                              |--------Average-------|---Cumulative--|  (0=Min, 1=Max Stress)  |
                         Time  Temp  Temp Solar Photop         Evapo |----Water---|--Nitrogen--|
                         Span   Max   Min   Rad  [day]   Rain  Trans  Photo         Photo
                         days    øC    øC MJ/m2     hr     mm     mm  synth Growth  synth Growth
------------------------------------------------------------------------------------------------
 Emergence-End Juvenile    61  16.6   7.4  10.6  10.82  194.6   91.0  0.000  0.000  0.003  0.001
 End Juvenil-Floral Init    4  18.0   8.0  14.8  11.79   52.0    9.7  0.000  0.000  0.001  0.000
 Floral Init-End Lf Grow   58  22.6  10.4  19.0  12.78   99.7  203.1  0.000  0.000  0.095  0.038
 End Lf Grth-Beg Grn Fil   14  24.8  13.7  21.1  13.76  175.9   64.3  0.000  0.000  0.146  0.058
 Grain Filling Phase       41  27.2  15.7  23.9  14.02  261.0  220.5  0.000  0.000  0.424  0.212

                     Maize YIELD :     8839 kg/ha    [Dry weight] 

************************************************************************************************

*DSSAT Cropping System Model Ver. 4.0.2.000               Aug 03, 2016; 14:38:54
                                                                                
*RUN   2        : UYMZ                                                          
 MODEL          : MZCER040 - MAIZE                                              
 EXPERIMENT     : UYMZ0122 SN late to create DSS                                
 TREATMENT  1   : UYMZ                                                          
                                                                                
 CROP           : MAIZE          CULTIVAR : CMEDIO UY        ECOTYPE :IB0001    
 STARTING DATE  : JUL  3 1987                                                   
 PLANTING DATE  : JUL  6 1987    PLANTS/m2 :  7.0     ROW SPACING :  15.cm      
 WEATHER        : UYTA   1987                                                   
 SOIL           : UYSS0N2002     TEXTURE :       -  N20-02    SNIA CLAY RISS    
 SOIL INITIAL C : DEPTH:125cm EXTR. H2O:186.3mm  NO3: 74.8kg/ha  NH4: 23.9kg/ha 
 WATER BALANCE  : AUTOMATIC IRRIGATION - REFILL PROFILE                         
 IRRIGATION     : AUTOMATIC - PLANTING -> MATURITY [ SOIL DEPTH:30.00m 50.%]    
 NITROGEN BAL.  : SOIL-N & N-UPTAKE SIMULATION; NO N-FIXATION                   
 N-FERTILIZER   :        3 kg/ha IN     3 APPLICATIONS                          
 RESIDUE/MANURE : INITIAL :     0 kg/ha ;       0 kg/ha IN     0 APPLICATIONS   
 ENVIRONM. OPT. : DAYL=    0.00  SRAD=    0.00  TMAX=    0.00  TMIN=    0.00    
                  RAIN=    0.00  CO2 = R330.00  DEW =    0.00  WIND=    0.00    
 SIMULATION OPT : WATER   :Y  NITROGEN:Y  N-FIX:N  PHOSPH :N  PESTS  :N         
                  PHOTO   :C  ET      :R  INFIL:S  HYDROL :R  SOM    :G         
 MANAGEMENT OPT : PLANTING:R  IRRIG   :A  FERT :D  RESIDUE:N  HARVEST:M  WTH:M  
                                                                                
*SUMMARY OF SOIL AND GENETIC INPUT PARAMETERS                                   
                                                                                
   SOIL LOWER UPPER   SAT  EXTR  INIT   ROOT   BULK     pH    NO3    NH4    ORG 
  DEPTH LIMIT LIMIT    SW    SW    SW   DIST   DENS                          C  
   cm   cm3/cm3    cm3/cm3    cm3/cm3         g/cm3         ugN/g  ugN/g     %  
------------------------------------------------------------------------------- 
  0-  5 0.331 0.542 0.585 0.211 0.394   1.00   1.11   6.50  15.00   1.50   2.74 
  5- 15 0.331 0.542 0.585 0.211 0.394   1.00   1.11   6.50  15.00   1.50   2.74 
 15- 30 0.331 0.542 0.585 0.211 0.394   1.00   1.11   6.50  15.00   1.50   2.74 
 30- 45 0.290 0.438 0.491 0.148 0.334   0.43   1.26   6.50   8.50   1.50   1.07 
 45- 60 0.292 0.431 0.480 0.138 0.375   0.39   1.29   6.27   4.53   1.50   0.90 
 60- 90 0.293 0.419 0.466 0.126 0.419   0.32   1.34   6.00   0.00   1.50   0.64 
 90-108 0.286 0.408 0.460 0.122 0.408   0.23   1.36   6.00   0.00   1.50   0.35 
108-125 0.276 0.395 0.456 0.119 0.395   0.12   1.38   6.00   0.00   1.50   0.14 
                                                                                
TOT-125  37.3  55.9  62.1  18.6  49.1  <--cm   -  kg/ha-->   74.8   23.9 166127 
SOIL ALBEDO    : 0.09      EVAPORATION LIMIT : 6.00         MIN. FACTOR  : 1.00 
RUNOFF CURVE # :10.00      DRAINAGE RATE     : 0.40         FERT. FACTOR : 1.00 
                                                                                
 MAIZE      CULTIVAR :UY0370-CMEDIO UY          ECOTYPE :IB0001                 
 P1     : 280.00  P2     : 0.0000  P5     : 750.00                              
 G2     : 800.00  G3     :  7.500  PHINT  : 38.900                              
                                                                                
                                                                                
                                                                                
*SIMULATED CROP AND SOIL STATUS AT MAIN DEVELOPMENT STAGES

 RUN NO.     2     UYMZ                    

        CROP GROWTH   BIOMASS         LEAF   CROP N     STRESS  
   DATE  AGE STAGE      kg/ha    LAI   NUM  kg/ha  %   H2O    N 
 ------  --- ---------- -----  -----  ----  ---  ---  ----  ----
  2 JUL    0 Start Sim      0   0.00   0.0    0  0.0  0.00  0.00
  5 JUL    0 Sowing         0   0.00   0.0    0  0.0  0.00  0.00
  6 JUL    1 Germinate      0   0.00   0.0    0  0.0  0.00  0.00
 27 JUL   22 Emergence     28   0.00   1.6    1  4.4  0.00  0.00
 13 SEP   70 End Juveni   272   0.25   9.6   10  3.5  0.00  0.00
 17 SEP   74 Floral Ini   301   0.13   9.8   12  3.9  0.00  0.01
 15 NOV  133 75% Silkin  7680   3.04  20.6  102  1.3  0.00  0.04
 29 NOV  147 Beg Gr Fil  9857   2.73  20.6  112  1.1  0.00  0.06
  3 JAN  182 End Gr Fil 18092   1.15  20.6  133  0.7  0.00  0.28
  5 JAN  184 Maturity   18092   1.15  20.6  133  0.7  0.00  0.58
  5 JAN  184 Harvest    18092   1.15  20.6  133  0.7  0.00  0.00


*MAIN GROWTH AND DEVELOPMENT VARIABLES

@     VARIABLE                          SIMULATED     MEASURED
      --------                          ---------     --------
      Anthesis day (dap)                      133          -99
      Physiological maturity day (dap)        184          -99
      Yield at harvest maturity (kg [dm]/    9142          -99
      Number at maturity (no/m2)             3736          -99
      Unit wt at maturity (g [dm]/unit)    0.2447          -99
      Number at maturity (no/unit)          533.7          -99
      Tops weight at maturity (kg [dm]/ha   18092          -99
      By-product produced (stalk) at matu    9023          -99
      Leaf area index, maximum               3.09          -99
      Harvest index at maturity             0.505          -99
      Grain N at maturity (kg/ha)              97          -99
      Tops N at maturity (kg/ha)              133          -99
      Stem N at maturity (kg/ha)               36          -99
      Grain N at maturity (%)                 1.1          -99
      Tops weight at anthesis (kg [dm]/ha    7548          -99
      Tops N at anthesis (kg/ha)              101          -99
      Leaf number per stem at maturity      20.64          -99


*ENVIRONMENTAL AND STRESS FACTORS

 |-----Development Phase------|-------------Environment--------------|---------Stress----------|
                              |--------Average-------|---Cumulative--|  (0=Min, 1=Max Stress)  |
                         Time  Temp  Temp Solar Photop         Evapo |----Water---|--Nitrogen--|
                         Span   Max   Min   Rad  [day]   Rain  Trans  Photo         Photo
                         days    øC    øC MJ/m2     hr     mm     mm  synth Growth  synth Growth
------------------------------------------------------------------------------------------------
 Emergence-End Juvenile    48  19.0   7.1  11.9  10.98  165.9   59.3  0.000  0.000  0.003  0.001
 End Juvenil-Floral Init    4  18.4   4.9  20.0  11.79    0.0    8.5  0.000  0.000  0.001  0.000
 Floral Init-End Lf Grow   59  22.8   9.7  20.6  12.80  205.9  236.9  0.000  0.000  0.108  0.043
 End Lf Grth-Beg Grn Fil   14  27.2  13.6  24.8  13.77   40.4   76.2  0.000  0.000  0.165  0.066
 Grain Filling Phase       35  30.5  15.3  27.1  14.03   41.0  222.2  0.000  0.000  0.491  0.270

                     Maize YIELD :     9142 kg/ha    [Dry weight] 

************************************************************************************************

*DSSAT Cropping System Model Ver. 4.0.2.000               Aug 03, 2016; 14:38:54
                                                                                
*RUN   3        : UYMZ                                                          
 MODEL          : MZCER040 - MAIZE                                              
 EXPERIMENT     : UYMZ0122 SN late to create DSS                                
 TREATMENT  1   : UYMZ                                                          
                                                                                
 CROP           : MAIZE          CULTIVAR : CMEDIO UY        ECOTYPE :IB0001    
 STARTING DATE  : JUL  3 1987                                                   
 PLANTING DATE  : JUL  6 1987    PLANTS/m2 :  7.0     ROW SPACING :  15.cm      
 WEATHER        : UYTA   1987                                                   
 SOIL           : UYSS0N2002     TEXTURE :       -  N20-02    SNIA CLAY RISS    
 SOIL INITIAL C : DEPTH:125cm EXTR. H2O:186.3mm  NO3: 74.8kg/ha  NH4: 23.9kg/ha 
 WATER BALANCE  : AUTOMATIC IRRIGATION - REFILL PROFILE                         
 IRRIGATION     : AUTOMATIC - PLANTING -> MATURITY [ SOIL DEPTH:30.00m 50.%]    
 NITROGEN BAL.  : SOIL-N & N-UPTAKE SIMULATION; NO N-FIXATION                   
 N-FERTILIZER   :        3 kg/ha IN     3 APPLICATIONS                          
 RESIDUE/MANURE : INITIAL :     0 kg/ha ;       0 kg/ha IN     0 APPLICATIONS   
 ENVIRONM. OPT. : DAYL=    0.00  SRAD=    0.00  TMAX=    0.00  TMIN=    0.00    
                  RAIN=    0.00  CO2 = R330.00  DEW =    0.00  WIND=    0.00    
 SIMULATION OPT : WATER   :Y  NITROGEN:Y  N-FIX:N  PHOSPH :N  PESTS  :N         
                  PHOTO   :C  ET      :R  INFIL:S  HYDROL :R  SOM    :G         
 MANAGEMENT OPT : PLANTING:R  IRRIG   :A  FERT :D  RESIDUE:N  HARVEST:M  WTH:M  
                                                                                
*SUMMARY OF SOIL AND GENETIC INPUT PARAMETERS                                   
                                                                                
   SOIL LOWER UPPER   SAT  EXTR  INIT   ROOT   BULK     pH    NO3    NH4    ORG 
  DEPTH LIMIT LIMIT    SW    SW    SW   DIST   DENS                          C  
   cm   cm3/cm3    cm3/cm3    cm3/cm3         g/cm3         ugN/g  ugN/g     %  
------------------------------------------------------------------------------- 
  0-  5 0.331 0.542 0.585 0.211 0.394   1.00   1.11   6.50  15.00   1.50   2.74 
  5- 15 0.331 0.542 0.585 0.211 0.394   1.00   1.11   6.50  15.00   1.50   2.74 
 15- 30 0.331 0.542 0.585 0.211 0.394   1.00   1.11   6.50  15.00   1.50   2.74 
 30- 45 0.290 0.438 0.491 0.148 0.334   0.43   1.26   6.50   8.50   1.50   1.07 
 45- 60 0.292 0.431 0.480 0.138 0.375   0.39   1.29   6.27   4.53   1.50   0.90 
 60- 90 0.293 0.419 0.466 0.126 0.419   0.32   1.34   6.00   0.00   1.50   0.64 
 90-108 0.286 0.408 0.460 0.122 0.408   0.23   1.36   6.00   0.00   1.50   0.35 
108-125 0.276 0.395 0.456 0.119 0.395   0.12   1.38   6.00   0.00   1.50   0.14 
                                                                                
TOT-125  37.3  55.9  62.1  18.6  49.1  <--cm   -  kg/ha-->   74.8   23.9 166127 
SOIL ALBEDO    : 0.09      EVAPORATION LIMIT : 6.00         MIN. FACTOR  : 1.00 
RUNOFF CURVE # :10.00      DRAINAGE RATE     : 0.40         FERT. FACTOR : 1.00 
                                                                                
 MAIZE      CULTIVAR :UY0370-CMEDIO UY          ECOTYPE :IB0001                 
 P1     : 280.00  P2     : 0.0000  P5     : 750.00                              
 G2     : 800.00  G3     :  7.500  PHINT  : 38.900                              
                                                                                
                                                                                
                                                                                
*SIMULATED CROP AND SOIL STATUS AT MAIN DEVELOPMENT STAGES

 RUN NO.     3     UYMZ                    

        CROP GROWTH   BIOMASS         LEAF   CROP N     STRESS  
   DATE  AGE STAGE      kg/ha    LAI   NUM  kg/ha  %   H2O    N 
 ------  --- ---------- -----  -----  ----  ---  ---  ----  ----
  3 JUL    0 Start Sim      0   0.00   0.0    0  0.0  0.00  0.00
  6 JUL    0 Sowing         0   0.00   0.0    0  0.0  0.00  0.00
  7 JUL    1 Germinate      0   0.00   0.0    0  0.0  0.00  0.00
 20 JUL   14 Emergence     28   0.00   1.8    1  4.4  0.00  0.00
  5 SEP   61 End Juveni   310   0.33   9.6   12  3.9  0.00  0.00
  9 SEP   65 Floral Ini   375   0.36  10.0   14  3.7  0.00  0.01
 14 NOV  131 75% Silkin  8089   3.41  21.1  114  1.4  0.00  0.04
 27 NOV  144 Beg Gr Fil 10553   3.10  21.1  121  1.1  0.00  0.06
  2 JAN  180 End Gr Fil 19139   1.25  21.1  141  0.7  0.00  0.29
  4 JAN  182 Maturity   19139   1.25  21.1  141  0.7  0.00  0.54
  4 JAN  182 Harvest    19139   1.25  21.1  141  0.7  0.00  0.00


*MAIN GROWTH AND DEVELOPMENT VARIABLES

@     VARIABLE                          SIMULATED     MEASURED
      --------                          ---------     --------
      Anthesis day (dap)                      131          -99
      Physiological maturity day (dap)        182          -99
      Yield at harvest maturity (kg [dm]/   10070          -99
      Number at maturity (no/m2)             4026          -99
      Unit wt at maturity (g [dm]/unit)    0.2501          -99
      Number at maturity (no/unit)          575.2          -99
      Tops weight at maturity (kg [dm]/ha   19139          -99
      By-product produced (stalk) at matu    9147          -99
      Leaf area index, maximum               3.49          -99
      Harvest index at maturity             0.526          -99
      Grain N at maturity (kg/ha)             106          -99
      Tops N at maturity (kg/ha)              141          -99
      Stem N at maturity (kg/ha)               35          -99
      Grain N at maturity (%)                 1.0          -99
      Tops weight at anthesis (kg [dm]/ha    7990          -99
      Tops N at anthesis (kg/ha)              113          -99
      Leaf number per stem at maturity      21.15          -99


*ENVIRONMENTAL AND STRESS FACTORS

 |-----Development Phase------|-------------Environment--------------|---------Stress----------|
                              |--------Average-------|---Cumulative--|  (0=Min, 1=Max Stress)  |
                         Time  Temp  Temp Solar Photop         Evapo |----Water---|--Nitrogen--|
                         Span   Max   Min   Rad  [day]   Rain  Trans  Photo         Photo
                         days    øC    øC MJ/m2     hr     mm     mm  synth Growth  synth Growth
------------------------------------------------------------------------------------------------
 Emergence-End Juvenile    47  19.3   7.4  12.0  10.75  164.4   80.6  0.000  0.000  0.002  0.001
 End Juvenil-Floral Init    4  18.9   8.1  16.6  11.50   12.0   12.0  0.000  0.000  0.001  0.000
 Floral Init-End Lf Grow   66  21.4   9.9  18.6  12.62  227.6  233.7  0.000  0.000  0.093  0.037
 End Lf Grth-Beg Grn Fil   13  26.9  14.0  26.4  13.73   41.4   75.5  0.000  0.000  0.155  0.062
 Grain Filling Phase       36  29.3  16.7  25.3  14.02   92.5  209.6  0.000  0.000  0.501  0.277

                     Maize YIELD :    10070 kg/ha    [Dry weight] 

************************************************************************************************

*DSSAT Cropping System Model Ver. 4.0.2.000               Aug 03, 2016; 14:38:54
                                                                                
*RUN   4        : UYMZ                                                          
 MODEL          : MZCER040 - MAIZE                                              
 EXPERIMENT     : UYMZ0122 SN late to create DSS                                
 TREATMENT  1   : UYMZ                                                          
                                                                                
 CROP           : MAIZE          CULTIVAR : CMEDIO UY        ECOTYPE :IB0001    
 STARTING DATE  : JUL  3 1987                                                   
 PLANTING DATE  : JUL  6 1987    PLANTS/m2 :  7.0     ROW SPACING :  15.cm      
 WEATHER        : UYTA   1987                                                   
 SOIL           : UYSS0N2002     TEXTURE :       -  N20-02    SNIA CLAY RISS    
 SOIL INITIAL C : DEPTH:125cm EXTR. H2O:186.3mm  NO3: 74.8kg/ha  NH4: 23.9kg/ha 
 WATER BALANCE  : AUTOMATIC IRRIGATION - REFILL PROFILE                         
 IRRIGATION     : AUTOMATIC - PLANTING -> MATURITY [ SOIL DEPTH:30.00m 50.%]    
 NITROGEN BAL.  : SOIL-N & N-UPTAKE SIMULATION; NO N-FIXATION                   
 N-FERTILIZER   :        3 kg/ha IN     3 APPLICATIONS                          
 RESIDUE/MANURE : INITIAL :     0 kg/ha ;       0 kg/ha IN     0 APPLICATIONS   
 ENVIRONM. OPT. : DAYL=    0.00  SRAD=    0.00  TMAX=    0.00  TMIN=    0.00    
                  RAIN=    0.00  CO2 = R330.00  DEW =    0.00  WIND=    0.00    
 SIMULATION OPT : WATER   :Y  NITROGEN:Y  N-FIX:N  PHOSPH :N  PESTS  :N         
                  PHOTO   :C  ET      :R  INFIL:S  HYDROL :R  SOM    :G         
 MANAGEMENT OPT : PLANTING:R  IRRIG   :A  FERT :D  RESIDUE:N  HARVEST:M  WTH:M  
                                                                                
*SUMMARY OF SOIL AND GENETIC INPUT PARAMETERS                                   
                                                                                
   SOIL LOWER UPPER   SAT  EXTR  INIT   ROOT   BULK     pH    NO3    NH4    ORG 
  DEPTH LIMIT LIMIT    SW    SW    SW   DIST   DENS                          C  
   cm   cm3/cm3    cm3/cm3    cm3/cm3         g/cm3         ugN/g  ugN/g     %  
------------------------------------------------------------------------------- 
  0-  5 0.331 0.542 0.585 0.211 0.394   1.00   1.11   6.50  15.00   1.50   2.74 
  5- 15 0.331 0.542 0.585 0.211 0.394   1.00   1.11   6.50  15.00   1.50   2.74 
 15- 30 0.331 0.542 0.585 0.211 0.394   1.00   1.11   6.50  15.00   1.50   2.74 
 30- 45 0.290 0.438 0.491 0.148 0.334   0.43   1.26   6.50   8.50   1.50   1.07 
 45- 60 0.292 0.431 0.480 0.138 0.375   0.39   1.29   6.27   4.53   1.50   0.90 
 60- 90 0.293 0.419 0.466 0.126 0.419   0.32   1.34   6.00   0.00   1.50   0.64 
 90-108 0.286 0.408 0.460 0.122 0.408   0.23   1.36   6.00   0.00   1.50   0.35 
108-125 0.276 0.395 0.456 0.119 0.395   0.12   1.38   6.00   0.00   1.50   0.14 
                                                                                
TOT-125  37.3  55.9  62.1  18.6  49.1  <--cm   -  kg/ha-->   74.8   23.9 166127 
SOIL ALBEDO    : 0.09      EVAPORATION LIMIT : 6.00         MIN. FACTOR  : 1.00 
RUNOFF CURVE # :10.00      DRAINAGE RATE     : 0.40         FERT. FACTOR : 1.00 
                                                                                
 MAIZE      CULTIVAR :UY0370-CMEDIO UY          ECOTYPE :IB0001                 
 P1     : 280.00  P2     : 0.0000  P5     : 750.00                              
 G2     : 800.00  G3     :  7.500  PHINT  : 38.900                              
                                                                                
                                                                                
                                                                                
*SIMULATED CROP AND SOIL STATUS AT MAIN DEVELOPMENT STAGES

 RUN NO.     4     UYMZ                    

        CROP GROWTH   BIOMASS         LEAF   CROP N     STRESS  
   DATE  AGE STAGE      kg/ha    LAI   NUM  kg/ha  %   H2O    N 
 ------  --- ---------- -----  -----  ----  ---  ---  ----  ----
  3 JUL    0 Start Sim      0   0.00   0.0    0  0.0  0.00  0.00
  6 JUL    0 Sowing         0   0.00   0.0    0  0.0  0.00  0.00
  7 JUL    1 Germinate      0   0.00   0.0    0  0.0  0.00  0.00
 31 JUL   25 Emergence     28   0.00   1.6    1  4.4  0.00  0.00
 10 SEP   66 End Juveni   249   0.15   9.5    9  3.6  0.00  0.00
 14 SEP   70 Floral Ini   281   0.13   9.9   11  3.9  0.00  0.01
  8 NOV  125 75% Silkin  7659   3.51  20.8  120  1.6  0.00  0.03
 20 NOV  137 Beg Gr Fil 10030   3.32  20.8  127  1.3  0.00  0.04
  3 JAN  181 End Gr Fil 18216   1.58  20.8  149  0.8  0.00  0.17
  5 JAN  183 Maturity   18216   1.58  20.8  149  0.8  0.00  0.45
  5 JAN  183 Harvest    18216   1.58  20.8  149  0.8  0.00  0.00


*MAIN GROWTH AND DEVELOPMENT VARIABLES

@     VARIABLE                          SIMULATED     MEASURED
      --------                          ---------     --------
      Anthesis day (dap)                      125          -99
      Physiological maturity day (dap)        183          -99
      Yield at harvest maturity (kg [dm]/    8464          -99
      Number at maturity (no/m2)             3161          -99
      Unit wt at maturity (g [dm]/unit)    0.2678          -99
      Number at maturity (no/unit)          451.6          -99
      Tops weight at maturity (kg [dm]/ha   18216          -99
      By-product produced (stalk) at matu    9822          -99
      Leaf area index, maximum               3.55          -99
      Harvest index at maturity             0.465          -99
      Grain N at maturity (kg/ha)             107          -99
      Tops N at maturity (kg/ha)              149          -99
      Stem N at maturity (kg/ha)               42          -99
      Grain N at maturity (%)                 1.3          -99
      Tops weight at anthesis (kg [dm]/ha    7577          -99
      Tops N at anthesis (kg/ha)              119          -99
      Leaf number per stem at maturity      20.84          -99


*ENVIRONMENTAL AND STRESS FACTORS

 |-----Development Phase------|-------------Environment--------------|---------Stress----------|
                              |--------Average-------|---Cumulative--|  (0=Min, 1=Max Stress)  |
                         Time  Temp  Temp Solar Photop         Evapo |----Water---|--Nitrogen--|
                         Span   Max   Min   Rad  [day]   Rain  Trans  Photo         Photo
                         days    øC    øC MJ/m2     hr     mm     mm  synth Growth  synth Growth
------------------------------------------------------------------------------------------------
 Emergence-End Juvenile    41  19.5   7.5  13.0  10.96  104.0   66.4  0.000  0.000  0.005  0.002
 End Juvenil-Floral Init    4  22.0   8.8  15.4  11.66   24.0   10.7  0.000  0.000  0.001  0.000
 Floral Init-End Lf Grow   55  22.1  11.8  18.6  12.62  212.9  185.1  0.000  0.000  0.076  0.030
 End Lf Grth-Beg Grn Fil   12  25.8  14.8  19.2  13.59   57.5   52.4  0.000  0.000  0.108  0.043
 Grain Filling Phase       44  26.5  14.8  24.2  13.98  285.7  231.0  0.000  0.000  0.335  0.158

                     Maize YIELD :     8464 kg/ha    [Dry weight] 

************************************************************************************************

*DSSAT Cropping System Model Ver. 4.0.2.000               Aug 03, 2016; 14:38:54
                                                                                
*RUN   5        : UYMZ                                                          
 MODEL          : MZCER040 - MAIZE                                              
 EXPERIMENT     : UYMZ0122 SN late to create DSS                                
 TREATMENT  1   : UYMZ                                                          
                                                                                
 CROP           : MAIZE          CULTIVAR : CMEDIO UY        ECOTYPE :IB0001    
 STARTING DATE  : JUL  3 1987                                                   
 PLANTING DATE  : JUL  6 1987    PLANTS/m2 :  7.0     ROW SPACING :  15.cm      
 WEATHER        : UYTA   1987                                                   
 SOIL           : UYSS0N2002     TEXTURE :       -  N20-02    SNIA CLAY RISS    
 SOIL INITIAL C : DEPTH:125cm EXTR. H2O:186.3mm  NO3: 74.8kg/ha  NH4: 23.9kg/ha 
 WATER BALANCE  : AUTOMATIC IRRIGATION - REFILL PROFILE                         
 IRRIGATION     : AUTOMATIC - PLANTING -> MATURITY [ SOIL DEPTH:30.00m 50.%]    
 NITROGEN BAL.  : SOIL-N & N-UPTAKE SIMULATION; NO N-FIXATION                   
 N-FERTILIZER   :        3 kg/ha IN     3 APPLICATIONS                          
 RESIDUE/MANURE : INITIAL :     0 kg/ha ;       0 kg/ha IN     0 APPLICATIONS   
 ENVIRONM. OPT. : DAYL=    0.00  SRAD=    0.00  TMAX=    0.00  TMIN=    0.00    
                  RAIN=    0.00  CO2 = R330.00  DEW =    0.00  WIND=    0.00    
 SIMULATION OPT : WATER   :Y  NITROGEN:Y  N-FIX:N  PHOSPH :N  PESTS  :N         
                  PHOTO   :C  ET      :R  INFIL:S  HYDROL :R  SOM    :G         
 MANAGEMENT OPT : PLANTING:R  IRRIG   :A  FERT :D  RESIDUE:N  HARVEST:M  WTH:M  
                                                                                
*SUMMARY OF SOIL AND GENETIC INPUT PARAMETERS                                   
                                                                                
   SOIL LOWER UPPER   SAT  EXTR  INIT   ROOT   BULK     pH    NO3    NH4    ORG 
  DEPTH LIMIT LIMIT    SW    SW    SW   DIST   DENS                          C  
   cm   cm3/cm3    cm3/cm3    cm3/cm3         g/cm3         ugN/g  ugN/g     %  
------------------------------------------------------------------------------- 
  0-  5 0.331 0.542 0.585 0.211 0.394   1.00   1.11   6.50  15.00   1.50   2.74 
  5- 15 0.331 0.542 0.585 0.211 0.394   1.00   1.11   6.50  15.00   1.50   2.74 
 15- 30 0.331 0.542 0.585 0.211 0.394   1.00   1.11   6.50  15.00   1.50   2.74 
 30- 45 0.290 0.438 0.491 0.148 0.334   0.43   1.26   6.50   8.50   1.50   1.07 
 45- 60 0.292 0.431 0.480 0.138 0.375   0.39   1.29   6.27   4.53   1.50   0.90 
 60- 90 0.293 0.419 0.466 0.126 0.419   0.32   1.34   6.00   0.00   1.50   0.64 
 90-108 0.286 0.408 0.460 0.122 0.408   0.23   1.36   6.00   0.00   1.50   0.35 
108-125 0.276 0.395 0.456 0.119 0.395   0.12   1.38   6.00   0.00   1.50   0.14 
                                                                                
TOT-125  37.3  55.9  62.1  18.6  49.1  <--cm   -  kg/ha-->   74.8   23.9 166127 
SOIL ALBEDO    : 0.09      EVAPORATION LIMIT : 6.00         MIN. FACTOR  : 1.00 
RUNOFF CURVE # :10.00      DRAINAGE RATE     : 0.40         FERT. FACTOR : 1.00 
                                                                                
 MAIZE      CULTIVAR :UY0370-CMEDIO UY          ECOTYPE :IB0001                 
 P1     : 280.00  P2     : 0.0000  P5     : 750.00                              
 G2     : 800.00  G3     :  7.500  PHINT  : 38.900                              
                                                                                
                                                                                
                                                                                
*SIMULATED CROP AND SOIL STATUS AT MAIN DEVELOPMENT STAGES

 RUN NO.     5     UYMZ                    

        CROP GROWTH   BIOMASS         LEAF   CROP N     STRESS  
   DATE  AGE STAGE      kg/ha    LAI   NUM  kg/ha  %   H2O    N 
 ------  --- ---------- -----  -----  ----  ---  ---  ----  ----
  3 JUL    0 Start Sim      0   0.00   0.0    0  0.0  0.00  0.00
  6 JUL    0 Sowing         0   0.00   0.0    0  0.0  0.00  0.00
  7 JUL    1 Germinate      0   0.00   0.0    0  0.0  0.00  0.00
 26 JUL   20 Emergence     28   0.00   1.9    1  4.4  0.00  0.00
  4 SEP   60 End Juveni   376   0.68  10.0   14  3.6  0.00  0.00
  8 SEP   64 Floral Ini   538   0.90  10.9   20  3.7  0.00  0.01
 10 NOV  127 75% Silkin  7528   2.65  22.8   87  1.2  0.00  0.08
 27 NOV  144 Beg Gr Fil  9334   2.14  22.8   98  1.0  0.00  0.10
  4 JAN  182 End Gr Fil 15933   0.91  22.8  118  0.7  0.00  0.22
  6 JAN  184 Maturity   15933   0.91  22.8  118  0.7  0.00  0.40
  6 JAN  184 Harvest    15933   0.91  22.8  118  0.7  0.00  0.00


*MAIN GROWTH AND DEVELOPMENT VARIABLES

@     VARIABLE                          SIMULATED     MEASURED
      --------                          ---------     --------
      Anthesis day (dap)                      127          -99
      Physiological maturity day (dap)        184          -99
      Yield at harvest maturity (kg [dm]/    6908          -99
      Number at maturity (no/m2)             2606          -99
      Unit wt at maturity (g [dm]/unit)    0.2651          -99
      Number at maturity (no/unit)          372.3          -99
      Tops weight at maturity (kg [dm]/ha   15933          -99
      By-product produced (stalk) at matu    9102          -99
      Leaf area index, maximum               3.20          -99
      Harvest index at maturity             0.434          -99
      Grain N at maturity (kg/ha)              77          -99
      Tops N at maturity (kg/ha)              118          -99
      Stem N at maturity (kg/ha)               41          -99
      Grain N at maturity (%)                 1.1          -99
      Tops weight at anthesis (kg [dm]/ha    7440          -99
      Tops N at anthesis (kg/ha)               87          -99
      Leaf number per stem at maturity      22.81          -99


*ENVIRONMENTAL AND STRESS FACTORS

 |-----Development Phase------|-------------Environment--------------|---------Stress----------|
                              |--------Average-------|---Cumulative--|  (0=Min, 1=Max Stress)  |
                         Time  Temp  Temp Solar Photop         Evapo |----Water---|--Nitrogen--|
                         Span   Max   Min   Rad  [day]   Rain  Trans  Photo         Photo
                         days    øC    øC MJ/m2     hr     mm     mm  synth Growth  synth Growth
------------------------------------------------------------------------------------------------
 Emergence-End Juvenile    40  19.4   9.1  10.8  10.81   97.3   50.7  0.000  0.000  0.002  0.001
 End Juvenil-Floral Init    4  24.6  14.3  13.2  11.46    0.0    9.1  0.000  0.000  0.002  0.001
 Floral Init-End Lf Grow   63  21.6  11.3  16.9  12.55  291.9  219.2  0.000  0.000  0.188  0.075
 End Lf Grth-Beg Grn Fil   17  23.8  12.2  20.5  13.68   82.0   71.2  0.000  0.000  0.263  0.105
 Grain Filling Phase       38  27.7  17.1  21.6  14.02  224.1  190.2  0.000  0.000  0.450  0.208

                     Maize YIELD :     6908 kg/ha    [Dry weight] 

************************************************************************************************

*DSSAT Cropping System Model Ver. 4.0.2.000               Aug 03, 2016; 14:38:54
                                                                                
*RUN   6        : UYMZ                                                          
 MODEL          : MZCER040 - MAIZE                                              
 EXPERIMENT     : UYMZ0122 SN late to create DSS                                
 TREATMENT  1   : UYMZ                                                          
                                                                                
 CROP           : MAIZE          CULTIVAR : CMEDIO UY        ECOTYPE :IB0001    
 STARTING DATE  : JUL  3 1987                                                   
 PLANTING DATE  : JUL  6 1987    PLANTS/m2 :  7.0     ROW SPACING :  15.cm      
 WEATHER        : UYTA   1987                                                   
 SOIL           : UYSS0N2002     TEXTURE :       -  N20-02    SNIA CLAY RISS    
 SOIL INITIAL C : DEPTH:125cm EXTR. H2O:186.3mm  NO3: 74.8kg/ha  NH4: 23.9kg/ha 
 WATER BALANCE  : AUTOMATIC IRRIGATION - REFILL PROFILE                         
 IRRIGATION     : AUTOMATIC - PLANTING -> MATURITY [ SOIL DEPTH:30.00m 50.%]    
 NITROGEN BAL.  : SOIL-N & N-UPTAKE SIMULATION; NO N-FIXATION                   
 N-FERTILIZER   :        3 kg/ha IN     3 APPLICATIONS                          
 RESIDUE/MANURE : INITIAL :     0 kg/ha ;       0 kg/ha IN     0 APPLICATIONS   
 ENVIRONM. OPT. : DAYL=    0.00  SRAD=    0.00  TMAX=    0.00  TMIN=    0.00    
                  RAIN=    0.00  CO2 = R330.00  DEW =    0.00  WIND=    0.00    
 SIMULATION OPT : WATER   :Y  NITROGEN:Y  N-FIX:N  PHOSPH :N  PESTS  :N         
                  PHOTO   :C  ET      :R  INFIL:S  HYDROL :R  SOM    :G         
 MANAGEMENT OPT : PLANTING:R  IRRIG   :A  FERT :D  RESIDUE:N  HARVEST:M  WTH:M  
                                                                                
*SUMMARY OF SOIL AND GENETIC INPUT PARAMETERS                                   
                                                                                
   SOIL LOWER UPPER   SAT  EXTR  INIT   ROOT   BULK     pH    NO3    NH4    ORG 
  DEPTH LIMIT LIMIT    SW    SW    SW   DIST   DENS                          C  
   cm   cm3/cm3    cm3/cm3    cm3/cm3         g/cm3         ugN/g  ugN/g     %  
------------------------------------------------------------------------------- 
  0-  5 0.331 0.542 0.585 0.211 0.394   1.00   1.11   6.50  15.00   1.50   2.74 
  5- 15 0.331 0.542 0.585 0.211 0.394   1.00   1.11   6.50  15.00   1.50   2.74 
 15- 30 0.331 0.542 0.585 0.211 0.394   1.00   1.11   6.50  15.00   1.50   2.74 
 30- 45 0.290 0.438 0.491 0.148 0.334   0.43   1.26   6.50   8.50   1.50   1.07 
 45- 60 0.292 0.431 0.480 0.138 0.375   0.39   1.29   6.27   4.53   1.50   0.90 
 60- 90 0.293 0.419 0.466 0.126 0.419   0.32   1.34   6.00   0.00   1.50   0.64 
 90-108 0.286 0.408 0.460 0.122 0.408   0.23   1.36   6.00   0.00   1.50   0.35 
108-125 0.276 0.395 0.456 0.119 0.395   0.12   1.38   6.00   0.00   1.50   0.14 
                                                                                
TOT-125  37.3  55.9  62.1  18.6  49.1  <--cm   -  kg/ha-->   74.8   23.9 166127 
SOIL ALBEDO    : 0.09      EVAPORATION LIMIT : 6.00         MIN. FACTOR  : 1.00 
RUNOFF CURVE # :10.00      DRAINAGE RATE     : 0.40         FERT. FACTOR : 1.00 
                                                                                
 MAIZE      CULTIVAR :UY0370-CMEDIO UY          ECOTYPE :IB0001                 
 P1     : 280.00  P2     : 0.0000  P5     : 750.00                              
 G2     : 800.00  G3     :  7.500  PHINT  : 38.900                              
                                                                                
                                                                                
                                                                                
*SIMULATED CROP AND SOIL STATUS AT MAIN DEVELOPMENT STAGES

 RUN NO.     6     UYMZ                    

        CROP GROWTH   BIOMASS         LEAF   CROP N     STRESS  
   DATE  AGE STAGE      kg/ha    LAI   NUM  kg/ha  %   H2O    N 
 ------  --- ---------- -----  -----  ----  ---  ---  ----  ----
  2 JUL    0 Start Sim      0   0.00   0.0    0  0.0  0.00  0.00
  5 JUL    0 Sowing         0   0.00   0.0    0  0.0  0.00  0.00
  6 JUL    1 Germinate      0   0.00   0.0    0  0.0  0.00  0.00
 29 JUL   24 Emergence     28   0.00   1.7    1  4.4  0.00  0.00
 16 SEP   73 End Juveni   323   0.60   9.6   12  3.7  0.00  0.00
 20 SEP   77 Floral Ini   464   0.80  10.5   17  3.7  0.00  0.01
 21 NOV  139 75% Silkin  8643   3.31  22.0  119  1.4  0.00  0.04
  6 DEC  154 Beg Gr Fil 10967   2.94  22.0  126  1.1  0.00  0.06
 12 JAN  191 End Gr Fil 18775   1.27  22.0  141  0.8  0.00  0.24
 15 JAN  194 Maturity   18775   1.27  22.0  141  0.8  0.00  0.52
 15 JAN  194 Harvest    18775   1.27  22.0  141  0.8  0.00  0.00


*MAIN GROWTH AND DEVELOPMENT VARIABLES

@     VARIABLE                          SIMULATED     MEASURED
      --------                          ---------     --------
      Anthesis day (dap)                      139          -99
      Physiological maturity day (dap)        194          -99
      Yield at harvest maturity (kg [dm]/    9284          -99
      Number at maturity (no/m2)             3572          -99
      Unit wt at maturity (g [dm]/unit)    0.2599          -99
      Number at maturity (no/unit)          510.2          -99
      Tops weight at maturity (kg [dm]/ha   18775          -99
      By-product produced (stalk) at matu    9573          -99
      Leaf area index, maximum               3.51          -99
      Harvest index at maturity             0.494          -99
      Grain N at maturity (kg/ha)             103          -99
      Tops N at maturity (kg/ha)              141          -99
      Stem N at maturity (kg/ha)               38          -99
      Grain N at maturity (%)                 1.1          -99
      Tops weight at anthesis (kg [dm]/ha    8545          -99
      Tops N at anthesis (kg/ha)              119          -99
      Leaf number per stem at maturity      22.04          -99


*ENVIRONMENTAL AND STRESS FACTORS

 |-----Development Phase------|-------------Environment--------------|---------Stress----------|
                              |--------Average-------|---Cumulative--|  (0=Min, 1=Max Stress)  |
                         Time  Temp  Temp Solar Photop         Evapo |----Water---|--Nitrogen--|
                         Span   Max   Min   Rad  [day]   Rain  Trans  Photo         Photo
                         days    øC    øC MJ/m2     hr     mm     mm  synth Growth  synth Growth
------------------------------------------------------------------------------------------------
 Emergence-End Juvenile    49  18.1   7.2  12.5  11.06   26.2   44.0  0.000  0.000  0.002  0.001
 End Juvenil-Floral Init    4  21.8  11.5  16.8  11.89    4.0    8.9  0.000  0.000  0.001  0.000
 Floral Init-End Lf Grow   62  22.9   9.6  21.6  12.93  148.4  265.7  0.000  0.000  0.099  0.040
 End Lf Grth-Beg Grn Fil   15  25.7  12.8  23.5  13.89   34.0   74.7  0.000  0.000  0.165  0.066
 Grain Filling Phase       37  27.8  16.8  21.9  14.03  275.1  189.1  0.000  0.000  0.451  0.226

                     Maize YIELD :     9284 kg/ha    [Dry weight] 

************************************************************************************************
