*PLANT N OUTPUT FILE

*DSSAT Cropping System Model Ver. 4.0.2.000               Aug 03, 2016; 14:38:54

*RUN   1        : UYMZ                    
 MODEL          : MZCER040 - Maize           
 EXPERIMENT     : UYMZ0122 MZ    late to create DSS                             
 TREATMENT  1   : UYMZ                    

@YEAR DOY   DAS   DAP   CNAD   GNAD   VNAD   GN%D   VN%D   NUPC   LNAD   SNAD   LN%D   SN%D   RN%D   SNN0C   SNN1C
 1987 187     3     0    0.0    0.0    0.0   0.00   0.00    0.0    0.0    0.0    0.0   0.00   0.00    0.00    0.00
 1987 188     4     1    0.0    0.0    0.0   0.00   0.00    0.0    0.0    0.0    0.0   0.00   0.00    0.00    0.00
 1987 189     5     2    0.0    0.0    0.0   0.00   0.00    0.0    0.0    0.0    0.0   0.00   0.00    0.00    0.00
 1987 190     6     3    0.0    0.0    0.0   0.00   0.00    0.0    0.0    0.0    0.0   0.00   0.00    0.00    0.00
 1987 191     7     4    0.0    0.0    0.0   0.00   0.00    0.0    0.0    0.0    0.0   0.00   0.00    0.00    0.00
 1987 192     8     5    0.0    0.0    0.0   0.00   0.00    0.0    0.0    0.0    0.0   0.00   0.00    0.00    0.00
 1987 193     9     6    0.0    0.0    0.0   0.00   0.00    0.0    0.0    0.0    0.0   0.00   0.00    0.00    0.00
 1987 194    10     7    0.0    0.0    0.0   0.00   0.00    0.0    0.0    0.0    0.0   0.00   0.00    0.00    0.00
 1987 195    11     8    0.0    0.0    0.0   0.00   0.00    0.0    0.0    0.0    0.0   0.00   0.00    0.00    0.00
 1987 196    12     9    1.2    0.0    1.2   0.00   4.40    0.0    0.6    0.6    4.4   4.40   0.00    0.00    0.00
 1987 197    13    10    1.3    0.0    1.3   0.00   4.52    0.2    0.6    0.6    4.5   4.52   1.08    0.00    0.00
 1987 198    14    11    1.3    0.0    1.3   0.00   4.52    0.2    0.6    0.6    4.5   4.52   1.08    0.00    0.00
 1987 199    15    12    1.3    0.0    1.3   0.00   4.51    0.2    0.6    0.6    4.5   4.51   1.17    0.00    0.00
 1987 200    16    13    1.3    0.0    1.3   0.00   4.51    0.2    0.6    0.6    4.5   4.51   1.18    0.00    0.00
 1987 201    17    14    1.3    0.0    1.3   0.00   4.51    0.2    0.6    0.6    4.5   4.51   1.18    0.00    0.00
 1987 202    18    15    1.3    0.0    1.3   0.00   4.51    0.2    0.6    0.6    4.5   4.51   1.18    0.00    0.00
 1987 203    19    16    1.3    0.0    1.3   0.00   4.51    0.2    0.6    0.6    4.5   4.51   1.19    0.00    0.00
 1987 204    20    17    1.3    0.0    1.3   0.00   4.51    0.2    0.6    0.6    4.5   4.51   1.19    0.00    0.00
 1987 205    21    18    1.3    0.0    1.3   0.00   4.51    0.2    0.6    0.6    4.5   4.51   1.19    0.00    0.00
 1987 206    22    19    1.3    0.0    1.3   0.00   4.51    0.2    0.6    0.6    4.5   4.51   1.17    0.00    0.00
 1987 207    23    20    1.3    0.0    1.3   0.00   4.51    0.2    0.6    0.6    4.5   4.51   1.16    0.00    0.00
 1987 208    24    21    1.3    0.0    1.3   0.00   4.51    0.2    0.6    0.6    4.5   4.51   1.13    0.00    0.00
 1987 209    25    22    1.3    0.0    1.3   0.00   4.51    0.2    0.6    0.6    4.5   4.51   1.04    0.00    0.00
 1987 210    26    23    1.3    0.0    1.3   0.00   4.51    0.2    0.6    0.6    4.5   4.51   1.01    0.00    0.00
 1987 211    27    24    1.2    0.0    1.2   0.00   4.37    0.2    0.6    0.6    4.4   4.37   1.37    0.00    0.00
 1987 212    28    25    1.2    0.0    1.2   0.00   4.37    0.2    0.6    0.6    4.4   4.37   1.31    0.00    0.00
 1987 213    29    26    1.2    0.0    1.2   0.00   4.35    0.3    0.6    0.6    4.4   4.35   1.27    0.00    0.00
 1987 214    30    27    1.2    0.0    1.2   0.00   4.23    0.3    0.6    0.6    4.2   4.23   1.22    0.00    0.00
 1987 215    31    28    1.2    0.0    1.2   0.00   4.12    0.4    0.7    0.6    4.1   4.12   1.25    0.00    0.01
 1987 216    32    29    1.3    0.0    1.3   0.00   4.21    0.4    0.7    0.6    4.2   4.21   1.17    0.00    0.01
 1987 217    33    30    1.3    0.0    1.3   0.00   4.11    0.4    0.8    0.6    4.1   4.11   1.09    0.00    0.01
 1987 218    34    31    1.4    0.0    1.4   0.00   4.27    0.5    0.8    0.6    4.3   4.27   1.13    0.00    0.01
 1987 219    35    32    1.4    0.0    1.4   0.00   4.19    0.6    0.8    0.6    4.2   4.19   1.20    0.00    0.01
 1987 220    36    33    1.5    0.0    1.5   0.00   4.11    0.6    0.9    0.6    4.1   4.11   1.15    0.00    0.01
 1987 221    37    34    1.5    0.0    1.5   0.00   3.96    0.7    1.0    0.6    4.0   3.96   1.19    0.00    0.02
 1987 222    38    35    1.6    0.0    1.6   0.00   3.87    0.8    1.1    0.5    3.9   3.87   1.10    0.00    0.02
 1987 223    39    36    1.8    0.0    1.8   0.00   3.71    1.0    1.3    0.5    3.7   3.71   1.15    0.00    0.02
 1987 224    40    37    2.1    0.0    2.1   0.00   3.80    1.3    1.5    0.5    3.8   3.80   1.09    0.00    0.02
 1987 225    41    38    2.3    0.0    2.3   0.00   3.87    1.5    1.7    0.5    3.9   3.87   1.09    0.00    0.03
 1987 226    42    39    2.5    0.0    2.5   0.00   3.98    1.8    1.9    0.6    4.0   3.98   1.18    0.00    0.03
 1987 227    43    40    2.6    0.0    2.6   0.00   4.03    2.0    2.1    0.6    4.0   4.03   1.19    0.00    0.03
 1987 228    44    41    2.7    0.0    2.7   0.00   4.09    2.4    2.1    0.6    4.1   4.09   1.47    0.00    0.03
 1987 229    45    42    2.7    0.0    2.7   0.00   4.09    2.4    2.1    0.6    4.1   4.09   1.46    0.00    0.03
 1987 230    46    43    2.7    0.0    2.7   0.00   4.07    2.4    2.1    0.6    4.1   4.07   1.43    0.00    0.03
 1987 231    47    44    2.8    0.0    2.8   0.00   4.16    2.5    2.2    0.6    4.2   4.16   1.46    0.00    0.04
 1987 232    48    45    2.8    0.0    2.8   0.00   4.12    2.5    2.2    0.6    4.1   4.12   1.41    0.00    0.04
 1987 233    49    46    2.8    0.0    2.8   0.00   3.95    2.5    2.2    0.6    3.9   3.95   1.38    0.00    0.04
 1987 234    50    47    2.9    0.0    2.9   0.00   3.87    2.8    2.4    0.5    3.9   3.87   1.30    0.00    0.04
 1987 235    51    48    3.2    0.0    3.2   0.00   3.85    3.1    2.6    0.5    3.8   3.85   1.25    0.00    0.05
 1987 236    52    49    3.4    0.0    3.4   0.00   3.78    3.4    2.9    0.5    3.8   3.78   1.16    0.00    0.05
 1987 237    53    50    3.7    0.0    3.7   0.00   3.55    3.8    3.2    0.5    3.6   3.55   1.18    0.00    0.06
 1987 238    54    51    4.3    0.0    4.3   0.00   3.70    4.7    3.7    0.5    3.7   3.70   1.22    0.00    0.07
 1987 239    55    52    4.7    0.0    4.7   0.00   3.59    5.2    4.2    0.5    3.6   3.59   1.17    0.00    0.08
 1987 240    56    53    5.3    0.0    5.3   0.00   3.71    5.7    4.8    0.5    3.7   3.71   1.09    0.00    0.08
 1987 241    57    54    5.8    0.0    5.8   0.00   3.91    6.3    5.2    0.5    3.9   3.91   1.12    0.00    0.09
 1987 242    58    55    6.0    0.0    6.0   0.00   3.99    7.2    5.4    0.6    4.0   3.99   1.39    0.00    0.10
 1987 243    59    56    6.1    0.0    6.1   0.00   3.95    7.4    5.5    0.6    4.0   3.95   1.36    0.00    0.11
 1987 244    60    57    6.1    0.0    6.1   0.00   3.76    7.4    5.6    0.5    3.8   3.76   1.27    0.00    0.11
 1987 245    61    58    6.5    0.0    6.5   0.00   3.84    7.5    6.0    0.5    3.8   3.84   1.10    0.00    0.13
 1987 246    62    59    6.8    0.0    6.8   0.00   3.80    8.5    6.3    0.5    3.8   3.80   1.26    0.00    0.14
 1987 247    63    60    7.2    0.0    7.2   0.00   3.89    9.3    6.6    0.5    3.9   3.89   1.29    0.00    0.15
 1987 248    64    61    7.4    0.0    7.4   0.00   3.91    9.3    6.8    0.5    3.9   3.91   1.18    0.00    0.17
 1987 249    65    62    7.6    0.0    7.6   0.00   3.89    9.8    7.0    0.5    3.9   3.89   1.24    0.00    0.18
 1987 250    66    63    7.7    0.0    7.7   0.00   3.81   10.0    7.2    0.5    3.8   3.81   1.16    0.00    0.20
 1987 251    67    64    8.1    0.0    8.1   0.00   3.63   10.2    7.6    0.5    3.6   3.63   1.09    0.00    0.22
 1987 252    68    65    8.8    0.0    8.8   0.00   3.56   10.9    8.3    0.5    3.6   3.56   1.08    0.00    0.23
 1987 253    69    66    9.7    0.0    9.7   0.00   3.75   12.3    9.2    0.5    3.7   3.75   1.17    0.00    0.25
 1987 254    70    67   10.2    0.0   10.2   0.00   3.74   13.3    9.7    0.5    3.7   3.74   1.20    0.00    0.27
 1987 255    71    68   10.7    0.0   10.7   0.00   3.76   14.2   10.2    0.5    3.8   3.76   1.21    0.00    0.29
 1987 256    72    69   11.1    0.0   11.1   0.00   3.54   14.7   10.6    0.5    3.5   3.54   1.15    0.00    0.31
 1987 257    73    70   12.2    0.0   12.2   0.00   3.77   15.6   11.7    0.5    3.8   3.77   1.09    0.00    0.34
 1987 258    74    71   12.6    0.0   12.6   0.00   3.70   16.5   12.1    0.5    3.7   3.70   1.14    0.00    0.36
 1987 259    75    72   13.0    0.0   13.0   0.00   3.77   17.8   12.5    0.5    3.8   3.77   1.29    0.00    0.39
 1987 260    76    73   13.7    0.0   13.7   0.00   3.83   18.2   13.2    0.5    3.8   3.83   1.16    0.00    0.42
 1987 261    77    74   13.9    0.0   13.9   0.00   3.71   18.6   13.4    0.5    3.7   3.71   1.15    0.00    0.45
 1987 262    78    75   14.0    0.0   14.0   0.00   3.66   19.6   13.5    0.5    3.7   3.66   1.24    0.00    0.48
 1987 263    79    76   14.3    0.0   14.3   0.00   3.63   20.2   13.8    0.5    3.6   3.63   1.21    0.00    0.51
 1987 264    80    77   14.3    0.0   14.3   0.00   3.58   20.2   13.8    0.5    3.6   3.58   1.18    0.00    0.51
 1987 265    81    78   14.9    0.0   14.9   0.00   3.63   20.8   14.4    0.5    3.6   3.63   1.17    0.00    0.54
 1987 266    82    79   15.3    0.0   15.3   0.00   3.59   21.2   14.8    0.5    3.6   3.59   1.12    0.00    0.58
 1987 267    83    80   16.1    0.0   16.1   0.00   3.54   22.5   15.5    0.5    3.5   3.54   1.13    0.00    0.62
 1987 268    84    81   17.4    0.0   17.4   0.00   3.51   24.0   16.8    0.5    3.5   3.51   1.12    0.00    0.65
 1987 269    85    82   19.3    0.0   19.3   0.00   3.48   26.0   18.8    0.6    3.5   3.48   1.10    0.00    0.69
 1987 270    86    83   20.6    0.0   20.6   0.00   3.45   27.9   20.0    0.6    3.4   3.45   1.12    0.00    0.73
 1987 271    87    84   21.6    0.0   21.6   0.00   3.43   29.8   21.0    0.6    3.4   3.43   1.15    0.00    0.77
 1987 272    88    85   23.2    0.0   23.2   0.00   3.40   31.8   22.5    0.7    3.4   3.40   1.13    0.00    0.82
 1987 273    89    86   24.8    0.0   24.8   0.00   3.38   32.8   24.0    0.8    3.4   3.38   1.07    0.00    0.87
 1987 274    90    87   26.2    0.0   26.2   0.00   3.36   36.0   25.2    0.9    3.4   3.36   1.16    0.00    0.92
 1987 275    91    88   27.4    0.0   27.4   0.00   3.38   38.0   26.4    1.0    3.4   3.38   1.17    0.00    0.97
 1987 276    92    89   28.4    0.0   28.4   0.00   3.33   39.2   27.3    1.1    3.3   3.33   1.12    0.00    1.03
 1987 277    93    90   30.6    0.0   30.6   0.00   3.31   42.6   29.3    1.3    3.3   3.31   1.15    0.00    1.09
 1987 278    94    91   33.1    0.0   33.1   0.00   3.28   46.0   31.5    1.7    3.3   3.28   1.15    0.00    1.15
 1987 279    95    92   35.6    0.0   35.6   0.00   3.25   48.5   33.6    2.0    3.2   3.25   1.11    0.00    1.22
 1987 280    96    93   38.1    0.0   38.1   0.00   3.22   50.6   35.7    2.4    3.2   3.22   1.07    0.00    1.29
 1987 281    97    94   40.3    0.0   40.3   0.00   3.20   53.9   37.5    2.9    3.2   3.20   1.11    0.00    1.36
 1987 282    98    95   42.3    0.0   42.3   0.00   3.18   57.9   39.1    3.3    3.2   3.18   1.16    0.00    1.43
 1987 283    99    96   46.4    0.0   46.4   0.00   3.14   62.0   42.2    4.2    3.1   3.14   1.12    0.00    1.52
 1987 284   100    97   49.9    0.0   49.9   0.00   3.10   65.7   44.7    5.2    3.1   3.10   1.10    0.00    1.60
 1987 285   101    98   52.7    0.0   52.7   0.00   3.07   70.5   46.7    6.0    3.1   3.07   1.14    0.00    1.69
 1987 286   102    99   54.5    0.0   54.5   0.00   3.07   73.7   48.0    6.5    3.1   3.07   1.15    0.00    1.78
 1987 287   103   100   56.0    0.0   56.0   0.00   3.06   75.1   49.0    7.0    3.1   3.06   1.11    0.00    1.88
 1987 288   104   101   58.1    0.0   58.1   0.00   3.03   76.8   50.4    7.7    3.0   3.03   1.08    0.00    1.98
 1987 289   105   102   60.4    0.0   60.4   0.00   3.01   80.9   51.9    8.5    3.0   3.01   1.12    0.00    2.08
 1987 290   106   103   62.5    0.0   62.5   0.00   2.99   85.5   53.3    9.3    3.0   2.99   1.15    0.00    2.19
 1987 291   107   104   64.8    0.0   64.8   0.00   2.97   89.8   54.7   10.2    3.0   2.97   1.15    0.00    2.31
 1987 292   108   105   67.5    0.0   67.5   0.00   2.95   93.2   56.3   11.2    2.9   2.95   1.12    0.00    2.44
 1987 293   109   106   70.5    0.0   70.5   0.00   2.91   98.0   58.0   12.5    2.9   2.91   1.13    0.00    2.57
 1987 294   110   107   73.8    0.0   73.8   0.00   2.86  102.0   59.6   14.1    2.9   2.86   1.11    0.00    2.71
 1987 295   111   108   76.5    0.0   76.5   0.00   2.79  105.4   60.9   15.7    2.8   2.79   1.09    0.00    2.86
 1987 296   112   109   78.9    0.0   78.9   0.00   2.66  108.2   61.3   17.6    2.7   2.66   1.07    0.00    3.01
 1987 297   113   110   81.2    0.0   81.2   0.00   2.54  110.7   61.6   19.6    2.5   2.54   1.06    0.00    3.16
 1987 298   114   111   83.2    0.0   83.2   0.00   2.46  112.7   62.0   21.2    2.5   2.46   1.06    0.00    3.31
 1987 299   115   112   84.9    0.0   84.9   0.00   2.40  114.5   62.6   22.4    2.4   2.40   1.07    0.00    3.46
 1987 300   116   113   86.5    0.0   86.5   0.00   2.34  116.0   62.8   23.7    2.3   2.34   1.07    0.00    3.62
 1987 301   117   114   87.7    0.0   87.7   0.00   2.21  117.3   61.8   25.9    2.2   2.21   1.06    0.00    3.77
 1987 302   118   115   88.7    0.0   88.7   0.00   2.09  118.4   60.6   28.2    2.1   2.09   1.03    0.00    3.92
 1987 303   119   116   89.7    0.0   89.7   0.00   1.96  119.5   59.1   30.6    2.0   1.96   1.01    0.00    4.07
 1987 304   120   117   90.4    0.0   90.4   0.00   1.85  120.3   57.6   32.8    1.9   1.85   0.98    0.00    4.23
 1987 305   121   118   91.3    0.0   91.3   0.00   1.78  121.3   56.7   34.6    1.8   1.78   0.98    0.00    4.38
 1987 306   122   119   92.2    0.0   92.2   0.00   1.73  122.2   56.0   36.2    1.7   1.73   0.99    0.00    4.53
 1987 307   123   120   93.0    0.0   93.0   0.00   1.67  123.0   55.3   37.7    1.7   1.67   0.99    0.00    4.69
 1987 308   124   121   93.7    0.0   93.7   0.00   1.64  123.8   55.0   38.7    1.6   1.64   0.99    0.00    4.84
 1987 309   125   122   94.2    0.0   94.2   0.00   1.61  124.4   54.6   39.7    1.6   1.61   1.00    0.00    5.00
 1987 310   126   123   95.0    0.0   95.0   0.00   1.58  125.2   54.1   41.0    1.6   1.58   1.00    0.00    5.15
 1987 311   127   124   96.2    0.0   96.2   0.00   1.55  126.6   53.9   42.3    1.6   1.55   0.95    0.00    5.30
 1987 312   128   125   98.3    0.0   98.3   0.00   1.55  128.9   54.3   44.0    1.5   1.55   0.93    0.00    5.46
 1987 313   129   126   99.9    0.0   99.9   0.00   1.55  130.8   54.7   45.2    1.5   1.55   0.88    0.00    5.62
 1987 314   130   127  101.4    0.0  101.4   0.00   1.54  132.6   54.9   46.5    1.5   1.54   0.85    0.00    5.77
 1987 315   131   128  102.7    0.0  102.7   0.00   1.51  134.2   54.8   48.0    1.5   1.51   0.83    0.00    5.93
 1987 316   132   129  104.0    0.0  104.0   0.00   1.49  135.7   54.5   49.4    1.5   1.49   0.82    0.00    6.09
 1987 317   133   130  105.1    0.0  105.1   0.00   1.45  137.1   54.2   51.0    1.5   1.45   0.81    0.00    6.26
 1987 318   134   131  106.2    0.0  106.2   0.00   1.42  138.4   53.8   52.4    1.4   1.42   0.80    0.00    6.42
 1987 319   135   132  107.1    0.0  107.1   0.00   1.55  139.5   58.3   48.8    1.6   1.55   0.78    0.00    6.58
 1987 320   136   133  107.8    0.0  107.8   0.00   1.56  140.5   58.0   49.8    1.6   1.56   0.76    0.00    6.75
 1987 321   137   134  108.6    0.0  108.6   0.00   1.57  141.5   57.5   51.0    1.6   1.57   0.74    0.00    6.91
 1987 322   138   135  109.5    0.0  109.5   0.00   1.58  142.8   57.1   52.3    1.6   1.58   0.75    0.00    7.08
 1987 323   139   136  110.0    0.0  110.0   0.00   1.58  143.5   56.5   53.5    1.6   1.58   0.76    0.00    7.25
 1987 324   140   137  110.5    0.0  110.5   0.00   1.59  144.2   55.9   54.5    1.6   1.59   0.76    0.00    7.42
 1987 325   141   138  110.9    0.0  110.9   0.00   1.60  144.9   55.4   55.5    1.6   1.60   0.74    0.00    7.59
 1987 326   142   139  111.5    0.0  111.5   0.00   1.61  145.8   55.0   56.5    1.6   1.61   0.71    0.00    7.76
 1987 327   143   140  112.2    0.0  112.2   0.00   1.62  147.1   54.5   57.7    1.6   1.62   0.72    0.00    7.94
 1987 328   144   141  113.0    0.0  113.0   0.00   1.63  148.3   53.9   59.1    1.6   1.63   0.73    0.00    8.11
 1987 329   145   142  113.6    0.0  113.6   0.00   1.64  149.4   53.1   60.5    1.6   1.64   0.74    0.00    8.29
 1987 330   146   143  114.2    0.0  114.2   0.00   1.65  150.4   52.4   61.9    1.6   1.65   0.74    0.00    8.47
 1987 331   147   144  114.8    0.0  114.8   0.00   1.66  151.5   51.5   63.2    1.7   1.66   0.74    0.00    8.66
 1987 332   148   145  115.2    0.0  115.2   0.00   1.66  152.6   50.6   64.7    1.7   1.66   0.73    0.00    8.84
 1987 333   149   146  115.8    4.0  111.8   1.57   1.61  153.6   49.1   62.8    1.6   1.61   0.73    0.00    9.03
 1987 334   150   147  116.3    7.9  108.4   1.56   1.56  154.6   47.6   60.9    1.6   1.56   0.73    0.00    9.22
 1987 335   151   148  116.9   11.9  105.0   1.57   1.51  155.7   46.1   58.9    1.5   1.51   0.74    0.00    9.41
 1987 336   152   149  117.5   15.8  101.8   1.56   1.47  156.8   44.6   57.1    1.5   1.47   0.75    0.00    9.61
 1987 337   153   150  118.1   19.3   98.8   1.54   1.44  157.9   43.8   55.0    1.4   1.44   0.76    0.00    9.81
 1987 338   154   151  118.6   21.4   97.2   1.53   1.41  158.7   42.9   54.2    1.4   1.41   0.77    0.00   10.01
 1987 339   155   152  119.0   24.0   95.0   1.53   1.37  159.4   41.7   53.3    1.4   1.37   0.76    0.00   10.21
 1987 340   156   153  119.3   26.9   92.4   1.52   1.33  160.1   40.6   51.9    1.3   1.33   0.76    0.00   10.41
 1987 341   157   154  119.9   29.7   90.2   1.50   1.30  161.0   39.6   50.6    1.3   1.30   0.77    0.00   10.62
 1987 342   158   155  120.4   32.3   88.1   1.49   1.27  161.8   38.7   49.4    1.3   1.27   0.77    0.00   10.82
 1987 343   159   156  120.9   34.8   86.1   1.48   1.24  162.6   37.8   48.3    1.2   1.24   0.77    0.00   11.03
 1987 344   160   157  121.5   38.1   83.4   1.47   1.20  163.7   36.6   46.8    1.2   1.20   0.77    0.00   11.24
 1987 345   161   158  122.1   41.3   80.8   1.46   1.16  164.7   35.5   45.4    1.2   1.16   0.78    0.00   11.45
 1987 346   162   159  122.7   43.5   79.2   1.45   1.14  165.6   34.7   44.4    1.1   1.14   0.78    0.00   11.67
 1987 347   163   160  123.2   45.7   77.5   1.44   1.12  166.5   34.0   43.5    1.1   1.12   0.77    0.00   11.88
 1987 348   164   161  123.8   48.4   75.4   1.43   1.09  167.3   33.1   42.3    1.1   1.09   0.78    0.00   12.10
 1987 349   165   162  124.3   51.6   72.8   1.42   1.05  168.2   31.9   40.9    1.0   1.05   0.79    0.00   12.32
 1987 350   166   163  124.9   54.5   70.4   1.41   1.02  169.0   31.2   39.2    1.0   1.02   0.79    0.00   12.53
 1987 351   167   164  125.2   56.8   68.4   1.40   0.99  169.6   30.0   38.4    1.0   0.99   0.79    0.00   12.76
 1987 352   168   165  125.6   58.8   66.9   1.39   0.96  170.3   29.3   37.5    1.0   0.96   0.79    0.00   12.98
 1987 353   169   166  126.2   60.7   65.4   1.38   0.94  171.1   28.7   36.7    0.9   0.94   0.79    0.00   13.20
 1987 354   170   167  126.8   63.0   63.8   1.37   0.92  172.1   28.0   35.8    0.9   0.92   0.80    0.00   13.42
 1987 355   171   168  127.4   64.8   62.6   1.36   0.90  173.0   27.5   35.1    0.9   0.90   0.79    0.00   13.65
 1987 356   172   169  127.9   66.6   61.4   1.35   0.88  173.8   26.9   34.5    0.9   0.88   0.80    0.00   13.88
 1987 357   173   170  128.5   68.5   59.9   1.34   0.86  174.7   26.3   33.6    0.9   0.86   0.80    0.00   14.11
 1987 358   174   171  129.0   70.7   58.3   1.33   0.84  175.5   25.6   32.7    0.8   0.84   0.80    0.00   14.34
 1987 359   175   172  129.6   72.9   56.7   1.32   0.83  176.3   25.1   31.6    0.8   0.83   0.81    0.00   14.57
 1987 360   176   173  130.1   75.4   54.7   1.31   0.80  177.1   24.4   30.2    0.8   0.80   0.82    0.00   14.80
 1987 361   177   174  130.6   78.0   52.7   1.29   0.77  177.9   23.5   29.2    0.8   0.77   0.82    0.00   15.03
 1987 362   178   175  131.0   80.4   50.6   1.28   0.74  178.5   22.6   28.0    0.7   0.74   0.83    0.00   15.27
 1987 363   179   176  131.5   82.7   48.8   1.27   0.73  179.2   22.2   26.6    0.7   0.73   0.84    0.00   15.50
 1987 364   180   177  132.0   85.0   47.0   1.26   0.71  179.8   21.7   25.3    0.7   0.71   0.84    0.00   15.74
 1987 365   181   178  132.4   87.2   45.2   1.24   0.68  180.5   20.9   24.3    0.7   0.68   0.85    0.00   15.98
 1988 001   182   179  133.1   89.4   43.6   1.23   0.66  181.4   20.1   23.6    0.7   0.66   0.86    0.00   16.22
 1988 002   183   180  133.7   91.6   42.2   1.22   0.63  182.3   19.3   22.8    0.6   0.63   0.86    0.00   16.46
 1988 003   184   181  134.5   93.6   40.9   1.20   0.62  183.3   18.7   22.2    0.6   0.62   0.87    0.00   16.70
 1988 004   185   182  135.3   95.6   39.7   1.19   0.60  184.4   18.2   21.5    0.6   0.60   0.88    0.00   16.94
 1988 005   186   183  136.0   97.4   38.5   1.18   0.59  185.3   17.9   20.6    0.6   0.59   0.89    0.00   17.18
 1988 006   187   184  136.5   98.5   38.0   1.17   0.58  186.0   17.6   20.4    0.6   0.58   0.89    0.00   17.43
 1988 007   188   185  137.2   99.7   37.5   1.16   0.57  187.0   17.3   20.2    0.6   0.57   0.90    0.00   17.67
 1988 008   189   186  138.0  101.4   36.6   1.15   0.56  187.9   17.0   19.6    0.6   0.56   0.91    0.00   17.92
 1988 009   190   187  138.0  101.4   36.6   1.15   0.56  188.9   17.0   19.6    0.6   0.56   0.91    0.00   17.92
 1988 010   191   188  138.0  101.4   36.6   1.15   0.56  189.8   17.0   19.6    0.6   0.56   0.91    0.00   17.92
 1988 011   192   189  138.0  101.4   36.6   1.15   0.56  190.8   17.0   19.6    0.6   0.56   0.91    0.00   17.92

*DSSAT Cropping System Model Ver. 4.0.2.000               Aug 03, 2016; 14:38:54

*RUN   2        : UYMZ                    
 MODEL          : MZCER040 - Maize           
 EXPERIMENT     : UYMZ0122 MZ    late to create DSS                             
 TREATMENT  1   : UYMZ                    

@YEAR DOY   DAS   DAP   CNAD   GNAD   VNAD   GN%D   VN%D   NUPC   LNAD   SNAD   LN%D   SN%D   RN%D   SNN0C   SNN1C
 1988 187     3     0    0.0    0.0    0.0   0.00   0.00    0.0    0.0    0.0    0.0   0.00   0.00    0.00    0.00
 1988 188     4     1    0.0    0.0    0.0   0.00   0.00    0.0    0.0    0.0    0.0   0.00   0.00    0.00    0.00
 1988 189     5     2    0.0    0.0    0.0   0.00   0.00    0.0    0.0    0.0    0.0   0.00   0.00    0.00    0.00
 1988 190     6     3    0.0    0.0    0.0   0.00   0.00    0.0    0.0    0.0    0.0   0.00   0.00    0.00    0.00
 1988 191     7     4    0.0    0.0    0.0   0.00   0.00    0.0    0.0    0.0    0.0   0.00   0.00    0.00    0.00
 1988 192     8     5    0.0    0.0    0.0   0.00   0.00    0.0    0.0    0.0    0.0   0.00   0.00    0.00    0.00
 1988 193     9     6    0.0    0.0    0.0   0.00   0.00    0.0    0.0    0.0    0.0   0.00   0.00    0.00    0.00
 1988 194    10     7    0.0    0.0    0.0   0.00   0.00    0.0    0.0    0.0    0.0   0.00   0.00    0.00    0.00
 1988 195    11     8    0.0    0.0    0.0   0.00   0.00    0.0    0.0    0.0    0.0   0.00   0.00    0.00    0.00
 1988 196    12     9    0.0    0.0    0.0   0.00   0.00    0.0    0.0    0.0    0.0   0.00   0.00    0.00    0.00
 1988 197    13    10    0.0    0.0    0.0   0.00   0.00    0.0    0.0    0.0    0.0   0.00   0.00    0.00    0.00
 1988 198    14    11    0.0    0.0    0.0   0.00   0.00    0.0    0.0    0.0    0.0   0.00   0.00    0.00    0.00
 1988 199    15    12    0.0    0.0    0.0   0.00   0.00    0.0    0.0    0.0    0.0   0.00   0.00    0.00    0.00
 1988 200    16    13    0.0    0.0    0.0   0.00   0.00    0.0    0.0    0.0    0.0   0.00   0.00    0.00    0.00
 1988 201    17    14    0.0    0.0    0.0   0.00   0.00    0.0    0.0    0.0    0.0   0.00   0.00    0.00    0.00
 1988 202    18    15    0.0    0.0    0.0   0.00   0.00    0.0    0.0    0.0    0.0   0.00   0.00    0.00    0.00
 1988 203    19    16    0.0    0.0    0.0   0.00   0.00    0.0    0.0    0.0    0.0   0.00   0.00    0.00    0.00
 1988 204    20    17    0.0    0.0    0.0   0.00   0.00    0.0    0.0    0.0    0.0   0.00   0.00    0.00    0.00
 1988 205    21    18    0.0    0.0    0.0   0.00   0.00    0.0    0.0    0.0    0.0   0.00   0.00    0.00    0.00
 1988 206    22    19    0.0    0.0    0.0   0.00   0.00    0.0    0.0    0.0    0.0   0.00   0.00    0.00    0.00
 1988 207    23    20    0.0    0.0    0.0   0.00   0.00    0.0    0.0    0.0    0.0   0.00   0.00    0.00    0.00
 1988 208    24    21    0.0    0.0    0.0   0.00   0.00    0.0    0.0    0.0    0.0   0.00   0.00    0.00    0.00
 1988 209    25    22    1.2    0.0    1.2   0.00   4.40    0.0    0.6    0.6    4.4   4.40   0.00    0.00    0.00
 1988 210    26    23    1.3    0.0    1.3   0.00   4.56    0.2    0.6    0.6    4.6   4.56   1.07    0.00    0.00
 1988 211    27    24    1.3    0.0    1.3   0.00   4.56    0.2    0.6    0.6    4.6   4.56   1.07    0.00    0.00
 1988 212    28    25    1.3    0.0    1.3   0.00   4.56    0.2    0.6    0.6    4.6   4.56   1.04    0.00    0.00
 1988 213    29    26    1.3    0.0    1.3   0.00   4.56    0.2    0.6    0.6    4.6   4.56   1.02    0.00    0.00
 1988 214    30    27    1.3    0.0    1.3   0.00   4.56    0.2    0.6    0.6    4.6   4.56   1.01    0.00    0.00
 1988 215    31    28    1.3    0.0    1.3   0.00   4.56    0.2    0.6    0.6    4.6   4.56   1.01    0.00    0.00
 1988 216    32    29    1.3    0.0    1.3   0.00   4.56    0.2    0.6    0.6    4.6   4.56   1.01    0.00    0.00
 1988 217    33    30    1.3    0.0    1.3   0.00   4.56    0.2    0.6    0.6    4.6   4.56   0.99    0.00    0.00
 1988 218    34    31    1.2    0.0    1.2   0.00   4.44    0.2    0.6    0.6    4.4   4.44   1.16    0.00    0.00
 1988 219    35    32    1.2    0.0    1.2   0.00   4.43    0.2    0.6    0.6    4.4   4.43   1.15    0.00    0.00
 1988 220    36    33    1.2    0.0    1.2   0.00   4.41    0.2    0.6    0.6    4.4   4.41   1.12    0.00    0.00
 1988 221    37    34    1.2    0.0    1.2   0.00   4.40    0.2    0.6    0.6    4.4   4.40   1.13    0.00    0.00
 1988 222    38    35    1.2    0.0    1.2   0.00   4.40    0.2    0.6    0.6    4.4   4.40   1.14    0.00    0.00
 1988 223    39    36    1.2    0.0    1.2   0.00   4.40    0.3    0.6    0.6    4.4   4.40   1.28    0.00    0.01
 1988 224    40    37    1.2    0.0    1.2   0.00   4.39    0.3    0.6    0.6    4.4   4.39   1.20    0.00    0.01
 1988 225    41    38    1.2    0.0    1.2   0.00   4.37    0.3    0.6    0.6    4.4   4.37   1.17    0.00    0.01
 1988 226    42    39    1.2    0.0    1.2   0.00   4.37    0.3    0.6    0.6    4.4   4.37   1.13    0.00    0.01
 1988 227    43    40    1.2    0.0    1.2   0.00   4.37    0.3    0.6    0.6    4.4   4.37   1.08    0.00    0.01
 1988 228    44    41    1.2    0.0    1.2   0.00   3.98    0.3    0.7    0.6    4.0   3.98   1.13    0.00    0.01
 1988 229    45    42    1.3    0.0    1.3   0.00   3.97    0.5    0.7    0.6    4.0   3.97   1.25    0.00    0.01
 1988 230    46    43    1.4    0.0    1.4   0.00   4.00    0.6    0.9    0.6    4.0   4.00   1.24    0.00    0.01
 1988 231    47    44    1.5    0.0    1.5   0.00   3.68    0.8    1.0    0.5    3.7   3.68   1.21    0.00    0.02
 1988 232    48    45    1.7    0.0    1.7   0.00   3.44    1.0    1.3    0.5    3.4   3.44   1.09    0.00    0.02
 1988 233    49    46    2.1    0.0    2.1   0.00   3.74    1.5    1.6    0.5    3.7   3.74   1.22    0.00    0.02
 1988 234    50    47    2.4    0.0    2.4   0.00   3.82    2.0    1.9    0.5    3.8   3.82   1.30    0.00    0.02
 1988 235    51    48    2.6    0.0    2.6   0.00   3.80    2.4    2.1    0.5    3.8   3.80   1.28    0.00    0.03
 1988 236    52    49    2.9    0.0    2.9   0.00   3.34    2.7    2.4    0.5    3.3   3.34   1.19    0.00    0.03
 1988 237    53    50    3.6    0.0    3.6   0.00   3.61    3.5    3.1    0.5    3.6   3.61   1.20    0.00    0.04
 1988 238    54    51    4.1    0.0    4.1   0.00   3.90    4.4    3.5    0.5    3.9   3.90   1.33    0.00    0.04
 1988 239    55    52    4.3    0.0    4.3   0.00   4.09    4.9    3.7    0.6    4.1   4.09   1.46    0.00    0.05
 1988 240    56    53    4.3    0.0    4.3   0.00   4.02    4.9    3.7    0.6    4.0   4.02   1.40    0.00    0.05
 1988 241    57    54    4.3    0.0    4.3   0.00   3.94    4.9    3.7    0.6    3.9   3.94   1.40    0.00    0.05
 1988 242    58    55    4.3    0.0    4.3   0.00   3.51    4.9    3.8    0.5    3.5   3.51   1.39    0.00    0.05
 1988 243    59    56    5.0    0.0    5.0   0.00   3.77    5.2    4.5    0.5    3.8   3.77   1.09    0.00    0.06
 1988 244    60    57    5.4    0.0    5.4   0.00   3.76    5.7    4.9    0.5    3.8   3.76   1.11    0.00    0.07
 1988 245    61    58    5.8    0.0    5.8   0.00   3.96    6.2    5.2    0.6    4.0   3.96   1.18    0.00    0.07
 1988 246    62    59    5.9    0.0    5.9   0.00   4.02    6.4    5.4    0.6    4.0   4.02   1.20    0.00    0.08
 1988 247    63    60    5.9    0.0    5.9   0.00   3.93    6.4    5.4    0.6    3.9   3.93   1.19    0.00    0.08
 1988 248    64    61    6.1    0.0    6.1   0.00   3.85    6.5    5.6    0.5    3.8   3.85   1.08    0.00    0.09
 1988 249    65    62    6.4    0.0    6.4   0.00   3.95    6.7    5.8    0.6    4.0   3.95   1.07    0.00    0.10
 1988 250    66    63    6.5    0.0    6.5   0.00   3.90    6.8    5.9    0.5    3.9   3.90   1.07    0.00    0.11
 1988 251    67    64    6.6    0.0    6.6   0.00   3.87    7.0    6.1    0.5    3.9   3.87   1.07    0.00    0.11
 1988 252    68    65    6.8    0.0    6.8   0.00   3.68    7.2    6.3    0.5    3.7   3.68   1.08    0.00    0.12
 1988 253    69    66    7.3    0.0    7.3   0.00   3.77    7.6    6.7    0.5    3.8   3.77   1.08    0.00    0.13
 1988 254    70    67    7.6    0.0    7.6   0.00   3.88    8.0    7.0    0.5    3.9   3.88   1.08    0.00    0.14
 1988 255    71    68    7.7    0.0    7.7   0.00   3.60    8.1    7.2    0.5    3.6   3.60   1.09    0.00    0.15
 1988 256    72    69    8.3    0.0    8.3   0.00   3.37    8.8    7.9    0.5    3.4   3.37   1.11    0.00    0.15
 1988 257    73    70    9.6    0.0    9.6   0.00   3.53   10.5    9.1    0.5    3.5   3.53   1.19    0.00    0.16
 1988 258    74    71   10.6    0.0   10.6   0.00   3.71   11.9   10.1    0.5    3.7   3.71   1.28    0.00    0.17
 1988 259    75    72   10.9    0.0   10.9   0.00   3.75   12.5   10.4    0.5    3.8   3.75   1.36    0.00    0.19
 1988 260    76    73   11.6    0.0   11.6   0.00   3.92   13.0   11.1    0.5    3.9   3.92   1.21    0.00    0.20
 1988 261    77    74   11.6    0.0   11.6   0.00   3.85   13.0   11.1    0.5    3.9   3.85   1.18    0.00    0.20
 1988 262    78    75   11.6    0.0   11.6   0.00   3.59   13.0   11.1    0.5    3.6   3.59   1.18    0.00    0.20
 1988 263    79    76   12.7    0.0   12.7   0.00   3.55   13.9   12.2    0.5    3.6   3.55   1.09    0.00    0.21
 1988 264    80    77   13.7    0.0   13.7   0.00   3.52   15.0   13.2    0.5    3.5   3.52   1.07    0.00    0.23
 1988 265    81    78   14.5    0.0   14.5   0.00   3.49   15.7   14.0    0.5    3.5   3.49   1.07    0.00    0.24
 1988 266    82    79   15.3    0.0   15.3   0.00   3.45   16.6   14.8    0.5    3.5   3.45   1.07    0.00    0.25
 1988 267    83    80   16.9    0.0   16.9   0.00   3.42   18.2   16.3    0.6    3.4   3.42   1.08    0.00    0.26
 1988 268    84    81   17.6    0.0   17.6   0.00   3.42   19.3   17.0    0.6    3.4   3.42   1.19    0.00    0.27
 1988 269    85    82   18.3    0.0   18.3   0.00   3.41   19.9   17.6    0.7    3.4   3.41   1.11    0.00    0.29
 1988 270    86    83   18.9    0.0   18.9   0.00   3.43   20.6   18.2    0.7    3.4   3.43   1.14    0.00    0.30
 1988 271    87    84   19.2    0.0   19.2   0.00   3.36   21.2   18.5    0.7    3.4   3.36   1.15    0.00    0.32
 1988 272    88    85   19.9    0.0   19.9   0.00   3.35   23.0   19.2    0.8    3.3   3.35   1.28    0.00    0.33
 1988 273    89    86   21.4    0.0   21.4   0.00   3.32   25.2   20.5    0.9    3.3   3.32   1.25    0.00    0.36
 1988 274    90    87   23.1    0.0   23.1   0.00   3.30   27.7   22.0    1.1    3.3   3.30   1.23    0.00    0.38
 1988 275    91    88   25.9    0.0   25.9   0.00   3.27   30.6   24.5    1.5    3.3   3.27   1.16    0.00    0.41
 1988 276    92    89   28.9    0.0   28.9   0.00   3.23   33.2   27.0    1.9    3.2   3.23   1.09    0.00    0.44
 1988 277    93    90   30.4    0.0   30.4   0.00   3.25   36.1   28.3    2.1    3.3   3.25   1.22    0.00    0.47
 1988 278    94    91   31.8    0.0   31.8   0.00   3.19   38.9   29.4    2.4    3.2   3.19   1.24    0.00    0.50
 1988 279    95    92   33.3    0.0   33.3   0.00   3.18   41.9   30.7    2.7    3.2   3.18   1.24    0.00    0.54
 1988 280    96    93   35.1    0.0   35.1   0.00   3.16   44.9   32.1    3.1    3.2   3.16   1.21    0.00    0.59
 1988 281    97    94   37.4    0.0   37.4   0.00   3.14   48.3   33.8    3.6    3.1   3.14   1.19    0.00    0.65
 1988 282    98    95   40.2    0.0   40.2   0.00   3.11   51.8   36.0    4.3    3.1   3.11   1.16    0.00    0.71
 1988 283    99    96   42.5    0.0   42.5   0.00   3.08   53.8   37.7    4.9    3.1   3.08   1.10    0.00    0.77
 1988 284   100    97   44.6    0.0   44.6   0.00   3.06   58.1   39.1    5.5    3.1   3.06   1.17    0.00    0.83
 1988 285   101    98   47.7    0.0   47.7   0.00   3.03   61.8   41.3    6.4    3.0   3.03   1.14    0.00    0.90
 1988 286   102    99   50.6    0.0   50.6   0.00   3.01   66.5   43.2    7.4    3.0   3.01   1.16    0.00    0.98
 1988 287   103   100   52.6    0.0   52.6   0.00   2.99   69.5   44.5    8.1    3.0   2.99   1.15    0.00    1.07
 1988 288   104   101   55.2    0.0   55.2   0.00   2.97   73.0   46.2    9.0    3.0   2.97   1.13    0.00    1.16
 1988 289   105   102   56.9    0.0   56.9   0.00   2.98   76.3   47.3    9.6    3.0   2.98   1.16    0.00    1.25
 1988 290   106   103   58.2    0.0   58.2   0.00   2.96   79.5   48.1   10.1    3.0   2.96   1.17    0.00    1.35
 1988 291   107   104   60.1    0.0   60.1   0.00   2.93   81.8   49.2   10.9    2.9   2.93   1.13    0.00    1.46
 1988 292   108   105   63.4    0.0   63.4   0.00   2.89   86.2   51.0   12.3    2.9   2.89   1.12    0.00    1.58
 1988 293   109   106   66.9    0.0   66.9   0.00   2.88   88.9   53.1   13.8    2.9   2.88   1.08    0.00    1.70
 1988 294   110   107   69.1    0.0   69.1   0.00   2.81   92.9   54.0   15.1    2.8   2.81   1.09    0.00    1.81
 1988 295   111   108   71.6    0.0   71.6   0.00   2.74   96.4   55.0   16.5    2.7   2.74   1.08    0.00    1.94
 1988 296   112   109   74.6    0.0   74.6   0.00   2.64   99.3   56.1   18.6    2.6   2.64   1.08    0.00    2.07
 1988 297   113   110   76.6    0.0   76.6   0.00   2.54  101.8   56.4   20.2    2.5   2.54   1.05    0.00    2.20
 1988 298   114   111   78.6    0.0   78.6   0.00   2.30  104.0   57.0   21.7    2.3   2.30   1.05    0.00    2.33
 1988 299   115   112   80.4    0.0   80.4   0.00   2.21  105.8   57.3   23.0    2.2   2.21   1.05    0.00    2.46
 1988 300   116   113   81.6    0.0   81.6   0.00   2.17  107.3   57.6   24.0    2.2   2.17   1.00    0.00    2.59
 1988 301   117   114   82.8    0.0   82.8   0.00   2.09  108.7   57.3   25.5    2.1   2.09   0.96    0.00    2.72
 1988 302   118   115   83.7    0.0   83.7   0.00   1.98  109.8   56.5   27.3    2.0   1.98   0.93    0.00    2.86
 1988 303   119   116   84.6    0.0   84.6   0.00   1.86  110.9   55.2   29.5    1.9   1.86   0.92    0.00    2.99
 1988 304   120   117   85.5    0.0   85.5   0.00   1.82  111.8   54.8   30.7    1.8   1.82   0.93    0.00    3.13
 1988 305   121   118   86.2    0.0   86.2   0.00   1.77  112.6   54.4   31.8    1.8   1.77   0.89    0.00    3.27
 1988 306   122   119   86.7    0.0   86.7   0.00   1.74  113.3   54.1   32.7    1.7   1.74   0.85    0.00    3.40
 1988 307   123   120   87.4    0.0   87.4   0.00   1.71  114.1   53.8   33.5    1.7   1.71   0.81    0.00    3.54
 1988 308   124   121   87.9    0.0   87.9   0.00   1.66  114.8   53.2   34.7    1.7   1.66   0.78    0.00    3.68
 1988 309   125   122   88.4    0.0   88.4   0.00   1.61  115.4   52.5   35.9    1.6   1.61   0.75    0.00    3.82
 1988 310   126   123   88.8    0.0   88.8   0.00   1.56  116.1   51.6   37.2    1.6   1.56   0.73    0.00    3.96
 1988 311   127   124   89.4    0.0   89.4   0.00   1.50  116.7   50.8   38.6    1.5   1.50   0.71    0.00    4.10
 1988 312   128   125   89.9    0.0   89.9   0.00   1.45  117.4   49.9   40.0    1.4   1.45   0.70    0.00    4.24
 1988 313   129   126   92.1    0.0   92.1   0.00   1.43  120.2   50.2   41.9    1.4   1.43   0.70    0.00    4.38
 1988 314   130   127   94.0    0.0   94.0   0.00   1.42  122.7   50.5   43.6    1.4   1.42   0.69    0.00    4.52
 1988 315   131   128   95.8    0.0   95.8   0.00   1.42  125.0   50.8   45.0    1.4   1.42   0.69    0.00    4.67
 1988 316   132   129   97.4    0.0   97.4   0.00   1.40  127.0   50.9   46.5    1.4   1.40   0.69    0.00    4.82
 1988 317   133   130   98.7    0.0   98.7   0.00   1.38  128.7   50.8   47.8    1.4   1.38   0.69    0.00    4.97
 1988 318   134   131   99.9    0.0   99.9   0.00   1.35  130.2   50.7   49.2    1.4   1.35   0.67    0.00    5.13
 1988 319   135   132  101.1    0.0  101.1   0.00   1.34  131.9   50.7   50.4    1.3   1.34   0.66    0.00    5.28
 1988 320   136   133  102.3    0.0  102.3   0.00   1.48  133.5   55.3   47.0    1.5   1.48   0.65    0.00    5.44
 1988 321   137   134  103.3    0.0  103.3   0.00   1.49  135.0   55.0   48.3    1.5   1.49   0.65    0.00    5.60
 1988 322   138   135  104.2    0.0  104.2   0.00   1.49  136.3   54.5   49.8    1.5   1.49   0.65    0.00    5.76
 1988 323   139   136  105.1    0.0  105.1   0.00   1.50  137.7   54.2   50.9    1.5   1.50   0.66    0.00    5.92
 1988 324   140   137  105.9    0.0  105.9   0.00   1.51  138.9   53.6   52.4    1.5   1.51   0.66    0.00    6.09
 1988 325   141   138  106.6    0.0  106.6   0.00   1.51  139.9   52.9   53.7    1.5   1.51   0.66    0.00    6.26
 1988 326   142   139  107.3    0.0  107.3   0.00   1.52  141.1   52.5   54.8    1.5   1.52   0.67    0.00    6.43
 1988 327   143   140  107.8    0.0  107.8   0.00   1.53  142.0   51.9   55.9    1.5   1.53   0.66    0.00    6.60
 1988 328   144   141  108.6    0.0  108.6   0.00   1.55  143.3   51.5   57.1    1.5   1.55   0.65    0.00    6.77
 1988 329   145   142  109.5    0.0  109.5   0.00   1.56  145.1   50.9   58.5    1.6   1.56   0.65    0.00    6.95
 1988 330   146   143  110.2    0.0  110.2   0.00   1.57  146.6   50.3   59.9    1.6   1.57   0.65    0.00    7.13
 1988 331   147   144  110.9    0.0  110.9   0.00   1.58  148.0   49.5   61.4    1.6   1.58   0.66    0.00    7.32
 1988 332   148   145  111.4    0.0  111.4   0.00   1.59  149.3   48.8   62.6    1.6   1.59   0.65    0.00    7.50
 1988 333   149   146  111.9    0.0  111.9   0.00   1.61  150.6   48.1   63.8    1.6   1.61   0.65    0.00    7.70
 1988 334   150   147  112.5    2.8  109.7   1.52   1.58  151.9   47.2   62.5    1.6   1.58   0.65    0.00    7.89
 1988 335   151   148  113.0    6.2  106.9   1.51   1.54  153.1   45.9   60.9    1.5   1.54   0.65    0.00    8.09
 1988 336   152   149  113.6    9.9  103.6   1.50   1.49  154.2   44.6   59.1    1.5   1.49   0.66    0.00    8.29
 1988 337   153   150  114.1   13.8  100.3   1.49   1.44  155.3   43.1   57.2    1.4   1.44   0.67    0.00    8.50
 1988 338   154   151  114.6   17.8   96.8   1.47   1.39  156.3   41.6   55.2    1.4   1.39   0.67    0.00    8.71
 1988 339   155   152  115.2   21.8   93.4   1.46   1.34  157.4   40.2   53.2    1.3   1.34   0.68    0.00    8.92
 1988 340   156   153  115.6   25.7   89.9   1.46   1.29  158.2   38.7   51.2    1.3   1.29   0.68    0.00    9.13
 1988 341   157   154  116.3   29.6   86.7   1.45   1.25  159.4   37.3   49.4    1.2   1.25   0.69    0.00    9.34
 1988 342   158   155  116.8   33.3   83.5   1.43   1.20  160.4   36.0   47.5    1.2   1.20   0.70    0.00    9.56
 1988 343   159   156  117.5   36.5   81.0   1.42   1.16  161.6   34.8   46.2    1.2   1.16   0.71    0.00    9.78
 1988 344   160   157  118.0   39.5   78.6   1.41   1.13  162.5   33.8   44.8    1.1   1.13   0.71    0.00   10.00
 1988 345   161   158  118.6   42.4   76.2   1.39   1.09  163.5   32.8   43.4    1.1   1.09   0.71    0.00   10.22
 1988 346   162   159  119.2   45.8   73.3   1.38   1.05  164.5   31.5   41.8    1.1   1.05   0.72    0.00   10.45
 1988 347   163   160  119.6   48.6   70.9   1.36   1.03  165.1   30.9   40.0    1.0   1.03   0.73    0.00   10.68
 1988 348   164   161  120.1   51.9   68.2   1.35   0.98  166.0   29.5   38.7    1.0   0.98   0.73    0.00   10.91
 1988 349   165   162  120.5   54.7   65.8   1.34   0.95  166.7   28.3   37.5    0.9   0.95   0.73    0.00   11.14
 1988 350   166   163  121.2   57.8   63.4   1.32   0.91  167.8   27.3   36.1    0.9   0.91   0.74    0.00   11.37
 1988 351   167   164  121.7   60.6   61.1   1.31   0.88  168.7   26.3   34.8    0.9   0.88   0.74    0.00   11.60
 1988 352   168   165  122.3   63.5   58.8   1.29   0.85  169.5   25.3   33.5    0.8   0.85   0.75    0.00   11.84
 1988 353   169   166  122.9   66.3   56.6   1.27   0.81  170.4   24.3   32.3    0.8   0.81   0.75    0.00   12.07
 1988 354   170   167  123.4   69.0   54.5   1.26   0.78  171.3   23.5   31.0    0.8   0.78   0.76    0.00   12.31
 1988 355   171   168  124.0   70.6   53.4   1.25   0.77  172.2   23.0   30.4    0.8   0.77   0.76    0.00   12.55
 1988 356   172   169  124.5   72.6   52.0   1.23   0.75  173.0   22.3   29.6    0.7   0.75   0.77    0.00   12.79
 1988 357   173   170  125.0   75.0   50.0   1.22   0.72  173.8   21.7   28.3    0.7   0.72   0.78    0.00   13.03
 1988 358   174   171  125.4   77.4   48.0   1.20   0.70  174.3   20.9   27.2    0.7   0.70   0.78    0.00   13.28
 1988 359   175   172  126.1   79.7   46.3   1.19   0.67  175.3   20.1   26.2    0.7   0.67   0.79    0.00   13.52
 1988 360   176   173  126.6   82.0   44.6   1.17   0.65  176.1   19.3   25.2    0.6   0.65   0.80    0.00   13.77
 1988 361   177   174  127.2   84.2   43.0   1.16   0.63  177.0   18.8   24.2    0.6   0.63   0.81    0.00   14.01
 1988 362   178   175  127.8   86.3   41.5   1.14   0.62  177.8   18.6   22.9    0.6   0.62   0.81    0.00   14.26
 1988 363   179   176  128.4   88.2   40.2   1.12   0.61  178.7   18.3   21.8    0.6   0.61   0.82    0.00   14.51
 1988 364   180   177  128.8   89.7   39.1   1.11   0.60  179.3   17.8   21.2    0.6   0.60   0.83    0.00   14.76
 1988 365   181   178  129.5   91.4   38.1   1.10   0.58  180.3   17.5   20.6    0.6   0.58   0.84    0.00   15.01
 1988 366   182   179  130.3   93.3   37.1   1.09   0.58  181.0   17.2   19.8    0.6   0.58   0.84    0.00   15.26
 1989 001   183   180  131.4   95.1   36.3   1.07   0.57  181.8   17.1   19.1    0.6   0.57   0.84    0.00   15.51
 1989 002   184   181  132.5   97.0   35.5   1.06   0.57  182.7   17.0   18.5    0.6   0.57   0.84    0.00   15.76
 1989 003   185   182  132.5   97.0   35.5   1.06   0.57  183.5   17.0   18.5    0.6   0.57   0.84    0.00   15.76
 1989 004   186   183  132.5   97.0   35.5   1.06   0.57  184.3   17.0   18.5    0.6   0.57   0.84    0.00   15.76
 1989 005   187   184  132.5   97.0   35.5   1.06   0.57  185.1   17.0   18.5    0.6   0.57   0.84    0.00   15.76

*DSSAT Cropping System Model Ver. 4.0.2.000               Aug 03, 2016; 14:38:54

*RUN   3        : UYMZ                    
 MODEL          : MZCER040 - Maize           
 EXPERIMENT     : UYMZ0122 MZ    late to create DSS                             
 TREATMENT  1   : UYMZ                    

@YEAR DOY   DAS   DAP   CNAD   GNAD   VNAD   GN%D   VN%D   NUPC   LNAD   SNAD   LN%D   SN%D   RN%D   SNN0C   SNN1C
 1989 187     3     0    0.0    0.0    0.0   0.00   0.00    0.0    0.0    0.0    0.0   0.00   0.00    0.00    0.00
 1989 188     4     1    0.0    0.0    0.0   0.00   0.00    0.0    0.0    0.0    0.0   0.00   0.00    0.00    0.00
 1989 189     5     2    0.0    0.0    0.0   0.00   0.00    0.0    0.0    0.0    0.0   0.00   0.00    0.00    0.00
 1989 190     6     3    0.0    0.0    0.0   0.00   0.00    0.0    0.0    0.0    0.0   0.00   0.00    0.00    0.00
 1989 191     7     4    0.0    0.0    0.0   0.00   0.00    0.0    0.0    0.0    0.0   0.00   0.00    0.00    0.00
 1989 192     8     5    0.0    0.0    0.0   0.00   0.00    0.0    0.0    0.0    0.0   0.00   0.00    0.00    0.00
 1989 193     9     6    0.0    0.0    0.0   0.00   0.00    0.0    0.0    0.0    0.0   0.00   0.00    0.00    0.00
 1989 194    10     7    0.0    0.0    0.0   0.00   0.00    0.0    0.0    0.0    0.0   0.00   0.00    0.00    0.00
 1989 195    11     8    0.0    0.0    0.0   0.00   0.00    0.0    0.0    0.0    0.0   0.00   0.00    0.00    0.00
 1989 196    12     9    0.0    0.0    0.0   0.00   0.00    0.0    0.0    0.0    0.0   0.00   0.00    0.00    0.00
 1989 197    13    10    0.0    0.0    0.0   0.00   0.00    0.0    0.0    0.0    0.0   0.00   0.00    0.00    0.00
 1989 198    14    11    0.0    0.0    0.0   0.00   0.00    0.0    0.0    0.0    0.0   0.00   0.00    0.00    0.00
 1989 199    15    12    0.0    0.0    0.0   0.00   0.00    0.0    0.0    0.0    0.0   0.00   0.00    0.00    0.00
 1989 200    16    13    0.0    0.0    0.0   0.00   0.00    0.0    0.0    0.0    0.0   0.00   0.00    0.00    0.00
 1989 201    17    14    1.2    0.0    1.2   0.00   4.40    0.0    0.6    0.6    4.4   4.40   0.00    0.00    0.00
 1989 202    18    15    1.3    0.0    1.3   0.00   4.54    0.2    0.6    0.6    4.5   4.54   1.09    0.00    0.00
 1989 203    19    16    1.3    0.0    1.3   0.00   4.54    0.2    0.6    0.6    4.5   4.54   1.09    0.00    0.00
 1989 204    20    17    1.3    0.0    1.3   0.00   4.54    0.2    0.6    0.6    4.5   4.54   1.09    0.00    0.00
 1989 205    21    18    1.3    0.0    1.3   0.00   4.54    0.2    0.6    0.6    4.5   4.54   1.07    0.00    0.00
 1989 206    22    19    1.3    0.0    1.3   0.00   4.52    0.2    0.6    0.6    4.5   4.52   1.13    0.00    0.00
 1989 207    23    20    1.3    0.0    1.3   0.00   4.52    0.2    0.6    0.6    4.5   4.52   1.11    0.00    0.00
 1989 208    24    21    1.3    0.0    1.3   0.00   4.52    0.2    0.6    0.6    4.5   4.52   1.09    0.00    0.00
 1989 209    25    22    1.3    0.0    1.3   0.00   4.52    0.2    0.6    0.6    4.5   4.52   1.08    0.00    0.00
 1989 210    26    23    1.3    0.0    1.3   0.00   4.52    0.2    0.6    0.6    4.5   4.52   1.07    0.00    0.00
 1989 211    27    24    1.3    0.0    1.3   0.00   4.48    0.2    0.6    0.6    4.5   4.48   1.15    0.00    0.00
 1989 212    28    25    1.3    0.0    1.3   0.00   4.48    0.2    0.6    0.6    4.5   4.48   1.16    0.00    0.00
 1989 213    29    26    1.3    0.0    1.3   0.00   4.48    0.2    0.6    0.6    4.5   4.48   1.11    0.00    0.00
 1989 214    30    27    1.2    0.0    1.2   0.00   4.45    0.2    0.6    0.6    4.4   4.45   1.12    0.00    0.00
 1989 215    31    28    1.2    0.0    1.2   0.00   4.45    0.2    0.6    0.6    4.4   4.45   1.07    0.00    0.00
 1989 216    32    29    1.2    0.0    1.2   0.00   4.40    0.2    0.6    0.6    4.4   4.40   1.13    0.00    0.00
 1989 217    33    30    1.2    0.0    1.2   0.00   4.38    0.3    0.6    0.6    4.4   4.38   1.19    0.00    0.01
 1989 218    34    31    1.2    0.0    1.2   0.00   4.37    0.3    0.6    0.6    4.4   4.37   1.17    0.00    0.01
 1989 219    35    32    1.2    0.0    1.2   0.00   4.35    0.3    0.6    0.6    4.4   4.35   1.20    0.00    0.01
 1989 220    36    33    1.2    0.0    1.2   0.00   4.35    0.3    0.6    0.6    4.4   4.35   1.15    0.00    0.01
 1989 221    37    34    1.2    0.0    1.2   0.00   4.26    0.3    0.6    0.6    4.3   4.26   1.12    0.00    0.01
 1989 222    38    35    1.2    0.0    1.2   0.00   3.81    0.4    0.7    0.5    3.8   3.81   1.12    0.00    0.01
 1989 223    39    36    1.4    0.0    1.4   0.00   3.88    0.5    0.8    0.5    3.9   3.88   1.11    0.00    0.01
 1989 224    40    37    1.5    0.0    1.5   0.00   3.93    0.8    1.0    0.6    3.9   3.93   1.27    0.00    0.01
 1989 225    41    38    1.7    0.0    1.7   0.00   3.65    1.0    1.1    0.5    3.7   3.65   1.21    0.00    0.02
 1989 226    42    39    1.9    0.0    1.9   0.00   3.60    1.3    1.4    0.5    3.6   3.60   1.24    0.00    0.02
 1989 227    43    40    2.2    0.0    2.2   0.00   3.62    1.8    1.7    0.5    3.6   3.62   1.25    0.00    0.02
 1989 228    44    41    2.6    0.0    2.6   0.00   3.47    2.3    2.1    0.5    3.5   3.47   1.23    0.00    0.03
 1989 229    45    42    3.1    0.0    3.1   0.00   3.51    2.9    2.6    0.5    3.5   3.51   1.20    0.00    0.03
 1989 230    46    43    3.6    0.0    3.6   0.00   3.38    3.5    3.1    0.5    3.4   3.38   1.19    0.00    0.04
 1989 231    47    44    4.4    0.0    4.4   0.00   3.55    4.2    3.9    0.5    3.5   3.55   1.09    0.00    0.04
 1989 232    48    45    5.0    0.0    5.0   0.00   3.67    4.9    4.5    0.5    3.7   3.67   1.10    0.00    0.05
 1989 233    49    46    5.5    0.0    5.5   0.00   3.65    5.4    5.0    0.5    3.7   3.65   1.09    0.00    0.05
 1989 234    50    47    6.1    0.0    6.1   0.00   4.02    6.3    5.6    0.6    4.0   4.02   1.24    0.00    0.06
 1989 235    51    48    6.2    0.0    6.2   0.00   3.92    6.7    5.6    0.5    3.9   3.92   1.35    0.00    0.07
 1989 236    52    49    6.3    0.0    6.3   0.00   3.87    6.8    5.8    0.5    3.9   3.87   1.21    0.00    0.07
 1989 237    53    50    6.6    0.0    6.6   0.00   3.85    7.6    6.0    0.5    3.8   3.85   1.37    0.00    0.08
 1989 238    54    51    6.9    0.0    6.9   0.00   3.82    7.9    6.3    0.5    3.8   3.82   1.21    0.00    0.09
 1989 239    55    52    7.2    0.0    7.2   0.00   3.92    8.8    6.7    0.5    3.9   3.92   1.39    0.00    0.11
 1989 240    56    53    7.3    0.0    7.3   0.00   3.85    9.1    6.8    0.5    3.8   3.85   1.27    0.00    0.12
 1989 241    57    54    7.6    0.0    7.6   0.00   3.57    9.4    7.1    0.5    3.6   3.57   1.17    0.00    0.13
 1989 242    58    55    8.4    0.0    8.4   0.00   3.69   10.3    7.9    0.5    3.7   3.69   1.13    0.00    0.15
 1989 243    59    56    9.0    0.0    9.0   0.00   3.80   10.7    8.5    0.5    3.8   3.80   1.08    0.00    0.16
 1989 244    60    57    9.4    0.0    9.4   0.00   3.79   11.6    8.9    0.5    3.8   3.79   1.18    0.00    0.18
 1989 245    61    58    9.7    0.0    9.7   0.00   3.83   12.2    9.2    0.5    3.8   3.83   1.19    0.00    0.20
 1989 246    62    59   10.0    0.0   10.0   0.00   3.62   12.4    9.5    0.5    3.6   3.62   1.13    0.00    0.21
 1989 247    63    60   10.8    0.0   10.8   0.00   3.44   13.3   10.3    0.5    3.4   3.44   1.12    0.00    0.23
 1989 248    64    61   12.1    0.0   12.1   0.00   3.92   15.0   11.6    0.5    3.9   3.92   1.14    0.00    0.25
 1989 249    65    62   12.1    0.0   12.1   0.00   3.75   15.4   11.5    0.5    3.7   3.75   1.20    0.00    0.27
 1989 250    66    63   12.3    0.0   12.3   0.00   3.64   16.0   11.8    0.5    3.6   3.64   1.20    0.00    0.29
 1989 251    67    64   13.4    0.0   13.4   0.00   3.83   17.3   12.9    0.5    3.8   3.83   1.17    0.00    0.32
 1989 252    68    65   13.8    0.0   13.8   0.00   3.68   17.7   13.3    0.5    3.7   3.68   1.13    0.00    0.34
 1989 253    69    66   14.4    0.0   14.4   0.00   3.58   18.4   13.9    0.5    3.6   3.58   1.10    0.00    0.37
 1989 254    70    67   15.4    0.0   15.4   0.00   3.56   19.3   14.9    0.5    3.6   3.56   1.07    0.00    0.40
 1989 255    71    68   16.6    0.0   16.6   0.00   3.53   20.5   16.1    0.5    3.5   3.53   1.07    0.00    0.42
 1989 256    72    69   17.7    0.0   17.7   0.00   3.53   21.6   17.2    0.5    3.5   3.53   1.08    0.00    0.45
 1989 257    73    70   18.7    0.0   18.7   0.00   3.52   22.9   18.1    0.6    3.5   3.52   1.11    0.00    0.47
 1989 258    74    71   19.4    0.0   19.4   0.00   3.53   24.8   18.9    0.6    3.5   3.53   1.24    0.00    0.50
 1989 259    75    72   20.0    0.0   20.0   0.00   3.48   25.4   19.4    0.6    3.5   3.48   1.17    0.00    0.53
 1989 260    76    73   20.7    0.0   20.7   0.00   3.45   27.3   20.1    0.6    3.5   3.45   1.21    0.00    0.56
 1989 261    77    74   21.8    0.0   21.8   0.00   3.43   29.1   21.1    0.7    3.4   3.43   1.19    0.00    0.60
 1989 262    78    75   23.6    0.0   23.6   0.00   3.40   31.6   22.9    0.8    3.4   3.40   1.16    0.00    0.65
 1989 263    79    76   25.4    0.0   25.4   0.00   3.37   34.3   24.5    0.9    3.4   3.37   1.17    0.00    0.69
 1989 264    80    77   28.0    0.0   28.0   0.00   3.34   37.3   26.9    1.1    3.3   3.34   1.14    0.00    0.74
 1989 265    81    78   30.1    0.0   30.1   0.00   3.31   38.8   28.8    1.4    3.3   3.31   1.07    0.00    0.79
 1989 266    82    79   31.8    0.0   31.8   0.00   3.31   40.8   30.2    1.6    3.3   3.31   1.09    0.00    0.84
 1989 267    83    80   32.5    0.0   32.5   0.00   3.35   42.3   30.9    1.6    3.3   3.35   1.16    0.00    0.89
 1989 268    84    81   32.9    0.0   32.9   0.00   3.33   43.3   31.2    1.7    3.3   3.33   1.19    0.00    0.95
 1989 269    85    82   33.5    0.0   33.5   0.00   3.33   44.6   31.7    1.8    3.3   3.33   1.20    0.00    1.01
 1989 270    86    83   34.1    0.0   34.1   0.00   3.33   46.6   32.2    1.8    3.3   3.33   1.26    0.00    1.07
 1989 271    87    84   34.8    0.0   34.8   0.00   3.29   46.7   32.8    2.0    3.3   3.29   1.16    0.00    1.14
 1989 272    88    85   35.7    0.0   35.7   0.00   3.27   49.2   33.6    2.1    3.3   3.27   1.19    0.00    1.20
 1989 273    89    86   37.5    0.0   37.5   0.00   3.23   51.3   35.0    2.4    3.2   3.23   1.14    0.00    1.27
 1989 274    90    87   40.2    0.0   40.2   0.00   3.20   54.4   37.2    3.0    3.2   3.20   1.12    0.00    1.35
 1989 275    91    88   43.3    0.0   43.3   0.00   3.17   56.9   39.6    3.7    3.2   3.17   1.07    0.00    1.43
 1989 276    92    89   45.5    0.0   45.5   0.00   3.14   61.5   41.3    4.2    3.1   3.14   1.15    0.00    1.50
 1989 277    93    90   47.5    0.0   47.5   0.00   3.12   65.0   42.8    4.7    3.1   3.12   1.16    0.00    1.58
 1989 278    94    91   50.3    0.0   50.3   0.00   3.10   68.9   44.8    5.5    3.1   3.10   1.14    0.00    1.68
 1989 279    95    92   53.1    0.0   53.1   0.00   3.07   72.4   46.8    6.3    3.1   3.07   1.12    0.00    1.77
 1989 280    96    93   56.2    0.0   56.2   0.00   3.05   76.0   48.9    7.4    3.0   3.05   1.11    0.00    1.88
 1989 281    97    94   58.6    0.0   58.6   0.00   3.02   79.9   50.4    8.2    3.0   3.02   1.13    0.00    1.98
 1989 282    98    95   60.5    0.0   60.5   0.00   3.01   83.9   51.7    8.9    3.0   3.01   1.15    0.00    2.09
 1989 283    99    96   63.0    0.0   63.0   0.00   2.99   86.6   53.2    9.8    3.0   2.99   1.11    0.00    2.21
 1989 284   100    97   66.1    0.0   66.1   0.00   2.97   89.5   55.1   11.0    3.0   2.97   1.09    0.00    2.34
 1989 285   101    98   67.7    0.0   67.7   0.00   3.00   92.0   56.2   11.4    3.0   3.00   1.12    0.00    2.46
 1989 286   102    99   68.6    0.0   68.6   0.00   2.96   93.7   56.7   11.9    3.0   2.96   1.12    0.00    2.58
 1989 287   103   100   70.4    0.0   70.4   0.00   2.93   97.6   57.6   12.8    2.9   2.93   1.13    0.00    2.72
 1989 288   104   101   73.5    0.0   73.5   0.00   2.91  101.7   59.3   14.1    2.9   2.91   1.12    0.00    2.86
 1989 289   105   102   76.5    0.0   76.5   0.00   2.89  106.6   61.0   15.5    2.9   2.89   1.13    0.00    3.00
 1989 290   106   103   79.1    0.0   79.1   0.00   2.87  109.1   62.4   16.8    2.9   2.87   1.10    0.00    3.16
 1989 291   107   104   82.3    0.0   82.3   0.00   2.84  113.4   63.9   18.3    2.8   2.84   1.10    0.00    3.31
 1989 292   108   105   85.5    0.0   85.5   0.00   2.77  117.6   65.1   20.4    2.8   2.77   1.09    0.00    3.47
 1989 293   109   106   88.3    0.0   88.3   0.00   2.67  121.1   65.8   22.5    2.7   2.67   1.08    0.00    3.64
 1989 294   110   107   91.1    0.0   91.1   0.00   2.58  123.9   66.4   24.7    2.6   2.58   1.07    0.00    3.80
 1989 295   111   108   93.5    0.0   93.5   0.00   2.35  126.3   67.4   26.0    2.4   2.35   1.07    0.00    3.97
 1989 296   112   109   95.3    0.0   95.3   0.00   2.18  128.2   66.7   28.6    2.2   2.18   1.06    0.00    4.14
 1989 297   113   110   97.2    0.0   97.2   0.00   2.16  130.1   67.3   29.9    2.2   2.16   1.06    0.00    4.31
 1989 298   114   111   98.5    0.0   98.5   0.00   2.12  131.5   67.2   31.3    2.1   2.12   1.07    0.00    4.48
 1989 299   115   112   99.2    0.0   99.2   0.00   2.06  132.3   66.7   32.6    2.1   2.06   1.04    0.00    4.65
 1989 300   116   113  100.1    0.0  100.1   0.00   2.02  133.3   66.4   33.7    2.0   2.02   0.99    0.00    4.82
 1989 301   117   114  101.0    0.0  101.0   0.00   1.97  134.3   65.9   35.1    2.0   1.97   0.95    0.00    4.99
 1989 302   118   115  101.8    0.0  101.8   0.00   1.89  135.4   64.8   37.0    1.9   1.89   0.92    0.00    5.16
 1989 303   119   116  102.6    0.0  102.6   0.00   1.84  136.3   64.2   38.4    1.8   1.84   0.93    0.00    5.33
 1989 304   120   117  103.2    0.0  103.2   0.00   1.81  137.0   63.7   39.5    1.8   1.81   0.90    0.00    5.50
 1989 305   121   118  103.7    0.0  103.7   0.00   1.78  137.7   63.3   40.4    1.8   1.78   0.86    0.00    5.67
 1989 306   122   119  104.3    0.0  104.3   0.00   1.74  138.4   62.8   41.5    1.7   1.74   0.87    0.00    5.85
 1989 307   123   120  104.8    0.0  104.8   0.00   1.70  138.9   62.2   42.6    1.7   1.70   0.87    0.00    6.02
 1989 308   124   121  105.2    0.0  105.2   0.00   1.66  139.5   61.4   43.8    1.7   1.66   0.84    0.00    6.19
 1989 309   125   122  106.3    0.0  106.3   0.00   1.63  140.8   61.1   45.1    1.6   1.63   0.81    0.00    6.37
 1989 310   126   123  107.4    0.0  107.4   0.00   1.61  142.2   60.9   46.5    1.6   1.61   0.79    0.00    6.54
 1989 311   127   124  108.4    0.0  108.4   0.00   1.57  143.5   60.5   47.9    1.6   1.57   0.79    0.00    6.72
 1989 312   128   125  109.4    0.0  109.4   0.00   1.54  144.7   60.0   49.3    1.5   1.54   0.78    0.00    6.90
 1989 313   129   126  110.3    0.0  110.3   0.00   1.50  145.9   59.5   50.8    1.5   1.50   0.77    0.00    7.08
 1989 314   130   127  111.2    0.0  111.2   0.00   1.46  147.0   58.9   52.3    1.5   1.46   0.76    0.00    7.26
 1989 315   131   128  112.1    0.0  112.1   0.00   1.45  148.1   58.8   53.3    1.4   1.45   0.77    0.00    7.44
 1989 316   132   129  112.9    0.0  112.9   0.00   1.43  149.1   58.7   54.1    1.4   1.43   0.77    0.00    7.62
 1989 317   133   130  113.4    0.0  113.4   0.00   1.42  149.8   58.6   54.8    1.4   1.42   0.75    0.00    7.81
 1989 318   134   131  113.9    0.0  113.9   0.00   1.55  150.5   63.4   50.5    1.6   1.55   0.73    0.00    7.99
 1989 319   135   132  114.6    0.0  114.6   0.00   1.56  151.4   63.0   51.6    1.6   1.56   0.71    0.00    8.18
 1989 320   136   133  115.2    0.0  115.2   0.00   1.57  152.3   62.6   52.6    1.6   1.57   0.70    0.00    8.36
 1989 321   137   134  115.8    0.0  115.8   0.00   1.57  153.2   62.2   53.6    1.6   1.57   0.68    0.00    8.55
 1989 322   138   135  116.3    0.0  116.3   0.00   1.58  154.1   61.5   54.8    1.6   1.58   0.67    0.00    8.74
 1989 323   139   136  116.9    0.0  116.9   0.00   1.58  155.0   60.8   56.1    1.6   1.58   0.67    0.00    8.93
 1989 324   140   137  117.4    0.0  117.4   0.00   1.58  155.9   60.0   57.4    1.6   1.58   0.68    0.00    9.12
 1989 325   141   138  117.9    0.0  117.9   0.00   1.58  156.8   59.1   58.8    1.6   1.58   0.68    0.00    9.32
 1989 326   142   139  118.5    0.0  118.5   0.00   1.59  157.8   58.1   60.4    1.6   1.59   0.68    0.00    9.51
 1989 327   143   140  119.1    0.0  119.1   0.00   1.59  158.9   57.2   61.9    1.6   1.59   0.68    0.00    9.71
 1989 328   144   141  119.6    0.0  119.6   0.00   1.60  159.9   56.4   63.2    1.6   1.60   0.67    0.00    9.91
 1989 329   145   142  120.1    0.0  120.1   0.00   1.60  160.9   55.5   64.6    1.6   1.60   0.67    0.00   10.11
 1989 330   146   143  120.7    0.0  120.7   0.00   1.61  162.2   54.6   66.0    1.6   1.61   0.68    0.00   10.32
 1989 331   147   144  121.1    3.4  117.7   1.52   1.57  163.3   53.3   64.4    1.6   1.57   0.68    0.00   10.53
 1989 332   148   145  121.6    6.5  115.2   1.51   1.54  164.3   52.1   63.0    1.5   1.54   0.69    0.00   10.74
 1989 333   149   146  122.1   10.3  111.8   1.49   1.49  165.2   50.6   61.2    1.5   1.49   0.69    0.00   10.95
 1989 334   150   147  122.6   14.7  107.9   1.48   1.44  166.1   48.9   59.1    1.4   1.44   0.70    0.00   11.17
 1989 335   151   148  123.1   19.0  104.1   1.47   1.39  167.0   47.1   57.0    1.4   1.39   0.70    0.00   11.39
 1989 336   152   149  123.6   23.2  100.4   1.46   1.34  167.9   45.4   55.0    1.3   1.34   0.71    0.00   11.61
 1989 337   153   150  124.1   27.1   97.1   1.44   1.30  168.8   43.9   53.1    1.3   1.30   0.72    0.00   11.83
 1989 338   154   151  124.6   30.2   94.4   1.43   1.26  169.6   42.7   51.7    1.3   1.26   0.72    0.00   12.05
 1989 339   155   152  125.2   34.1   91.1   1.42   1.22  170.6   41.2   49.8    1.2   1.22   0.72    0.00   12.28
 1989 340   156   153  125.8   38.0   87.7   1.40   1.17  171.6   39.7   48.0    1.2   1.17   0.73    0.00   12.50
 1989 341   157   154  126.3   41.9   84.5   1.39   1.13  172.5   38.2   46.2    1.1   1.13   0.74    0.00   12.73
 1989 342   158   155  126.9   45.6   81.3   1.38   1.09  173.4   36.8   44.5    1.1   1.09   0.74    0.00   12.96
 1989 343   159   156  127.4   49.2   78.2   1.36   1.05  174.3   35.5   42.8    1.0   1.05   0.75    0.00   13.20
 1989 344   160   157  128.0   52.8   75.2   1.35   1.00  175.1   34.0   41.2    1.0   1.00   0.75    0.00   13.43
 1989 345   161   158  128.6   56.4   72.2   1.34   0.96  176.0   32.7   39.5    1.0   0.96   0.76    0.00   13.66
 1989 346   162   159  129.1   59.8   69.3   1.32   0.93  176.8   31.4   37.9    0.9   0.93   0.76    0.00   13.90
 1989 347   163   160  129.5   63.1   66.4   1.31   0.89  177.5   30.0   36.3    0.9   0.89   0.76    0.00   14.14
 1989 348   164   161  130.2   66.3   63.9   1.29   0.85  178.5   28.9   35.0    0.9   0.85   0.77    0.00   14.38
 1989 349   165   162  130.8   69.4   61.4   1.28   0.82  179.3   27.8   33.6    0.8   0.82   0.77    0.00   14.62
 1989 350   166   163  131.5   72.4   59.1   1.26   0.79  180.3   26.7   32.3    0.8   0.79   0.78    0.00   14.86
 1989 351   167   164  131.9   74.4   57.5   1.25   0.77  181.0   26.0   31.5    0.8   0.77   0.79    0.00   15.10
 1989 352   168   165  132.3   76.0   56.3   1.24   0.75  181.6   25.5   30.8    0.8   0.75   0.79    0.00   15.35
 1989 353   169   166  132.9   78.4   54.6   1.23   0.73  182.5   24.7   29.9    0.7   0.73   0.79    0.00   15.59
 1989 354   170   167  133.5   80.5   53.0   1.22   0.71  183.3   24.0   29.0    0.7   0.71   0.80    0.00   15.84
 1989 355   171   168  134.1   82.3   51.7   1.20   0.69  184.2   23.4   28.3    0.7   0.69   0.80    0.00   16.09
 1989 356   172   169  134.6   84.4   50.2   1.19   0.67  184.9   22.7   27.5    0.7   0.67   0.80    0.00   16.33
 1989 357   173   170  135.2   86.7   48.4   1.17   0.65  185.7   21.9   26.5    0.6   0.65   0.81    0.00   16.58
 1989 358   174   171  135.7   89.0   46.7   1.16   0.63  186.5   21.3   25.5    0.6   0.63   0.82    0.00   16.83
 1989 359   175   172  136.3   91.2   45.1   1.14   0.62  187.3   21.1   23.9    0.6   0.62   0.83    0.00   17.09
 1989 360   176   173  136.8   93.3   43.5   1.13   0.61  188.0   20.8   22.7    0.6   0.61   0.83    0.00   17.34
 1989 361   177   174  137.4   95.5   41.9   1.11   0.61  188.8   20.6   21.3    0.6   0.61   0.84    0.00   17.59
 1989 362   178   175  137.9   97.6   40.3   1.10   0.60  189.6   20.2   20.1    0.6   0.60   0.85    0.00   17.85
 1989 363   179   176  138.5   99.7   38.8   1.08   0.59  190.2   20.0   18.8    0.6   0.59   0.85    0.00   18.10
 1989 364   180   177  139.4  101.7   37.6   1.07   0.59  191.0   19.9   17.8    0.6   0.59   0.86    0.00   18.35
 1989 365   181   178  140.3  103.8   36.5   1.06   0.58  191.8   19.6   16.9    0.6   0.58   0.86    0.00   18.61
 1990 001   182   179  141.1  105.6   35.5   1.05   0.57  192.6   19.3   16.2    0.6   0.57   0.86    0.00   18.86
 1990 002   183   180  141.1  105.6   35.5   1.05   0.57  193.4   19.3   16.2    0.6   0.57   0.86    0.00   18.86
 1990 003   184   181  141.1  105.6   35.5   1.05   0.57  194.1   19.3   16.2    0.6   0.57   0.86    0.00   18.86
 1990 004   185   182  141.1  105.6   35.5   1.05   0.57  194.9   19.3   16.2    0.6   0.57   0.86    0.00   18.86

*DSSAT Cropping System Model Ver. 4.0.2.000               Aug 03, 2016; 14:38:54

*RUN   4        : UYMZ                    
 MODEL          : MZCER040 - Maize           
 EXPERIMENT     : UYMZ0122 MZ    late to create DSS                             
 TREATMENT  1   : UYMZ                    

@YEAR DOY   DAS   DAP   CNAD   GNAD   VNAD   GN%D   VN%D   NUPC   LNAD   SNAD   LN%D   SN%D   RN%D   SNN0C   SNN1C
 1990 187     3     0    0.0    0.0    0.0   0.00   0.00    0.0    0.0    0.0    0.0   0.00   0.00    0.00    0.00
 1990 188     4     1    0.0    0.0    0.0   0.00   0.00    0.0    0.0    0.0    0.0   0.00   0.00    0.00    0.00
 1990 189     5     2    0.0    0.0    0.0   0.00   0.00    0.0    0.0    0.0    0.0   0.00   0.00    0.00    0.00
 1990 190     6     3    0.0    0.0    0.0   0.00   0.00    0.0    0.0    0.0    0.0   0.00   0.00    0.00    0.00
 1990 191     7     4    0.0    0.0    0.0   0.00   0.00    0.0    0.0    0.0    0.0   0.00   0.00    0.00    0.00
 1990 192     8     5    0.0    0.0    0.0   0.00   0.00    0.0    0.0    0.0    0.0   0.00   0.00    0.00    0.00
 1990 193     9     6    0.0    0.0    0.0   0.00   0.00    0.0    0.0    0.0    0.0   0.00   0.00    0.00    0.00
 1990 194    10     7    0.0    0.0    0.0   0.00   0.00    0.0    0.0    0.0    0.0   0.00   0.00    0.00    0.00
 1990 195    11     8    0.0    0.0    0.0   0.00   0.00    0.0    0.0    0.0    0.0   0.00   0.00    0.00    0.00
 1990 196    12     9    0.0    0.0    0.0   0.00   0.00    0.0    0.0    0.0    0.0   0.00   0.00    0.00    0.00
 1990 197    13    10    0.0    0.0    0.0   0.00   0.00    0.0    0.0    0.0    0.0   0.00   0.00    0.00    0.00
 1990 198    14    11    0.0    0.0    0.0   0.00   0.00    0.0    0.0    0.0    0.0   0.00   0.00    0.00    0.00
 1990 199    15    12    0.0    0.0    0.0   0.00   0.00    0.0    0.0    0.0    0.0   0.00   0.00    0.00    0.00
 1990 200    16    13    0.0    0.0    0.0   0.00   0.00    0.0    0.0    0.0    0.0   0.00   0.00    0.00    0.00
 1990 201    17    14    0.0    0.0    0.0   0.00   0.00    0.0    0.0    0.0    0.0   0.00   0.00    0.00    0.00
 1990 202    18    15    0.0    0.0    0.0   0.00   0.00    0.0    0.0    0.0    0.0   0.00   0.00    0.00    0.00
 1990 203    19    16    0.0    0.0    0.0   0.00   0.00    0.0    0.0    0.0    0.0   0.00   0.00    0.00    0.00
 1990 204    20    17    0.0    0.0    0.0   0.00   0.00    0.0    0.0    0.0    0.0   0.00   0.00    0.00    0.00
 1990 205    21    18    0.0    0.0    0.0   0.00   0.00    0.0    0.0    0.0    0.0   0.00   0.00    0.00    0.00
 1990 206    22    19    0.0    0.0    0.0   0.00   0.00    0.0    0.0    0.0    0.0   0.00   0.00    0.00    0.00
 1990 207    23    20    0.0    0.0    0.0   0.00   0.00    0.0    0.0    0.0    0.0   0.00   0.00    0.00    0.00
 1990 208    24    21    0.0    0.0    0.0   0.00   0.00    0.0    0.0    0.0    0.0   0.00   0.00    0.00    0.00
 1990 209    25    22    0.0    0.0    0.0   0.00   0.00    0.0    0.0    0.0    0.0   0.00   0.00    0.00    0.00
 1990 210    26    23    0.0    0.0    0.0   0.00   0.00    0.0    0.0    0.0    0.0   0.00   0.00    0.00    0.00
 1990 211    27    24    0.0    0.0    0.0   0.00   0.00    0.0    0.0    0.0    0.0   0.00   0.00    0.00    0.00
 1990 212    28    25    1.2    0.0    1.2   0.00   4.40    0.0    0.6    0.6    4.4   4.40   0.00    0.00    0.00
 1990 213    29    26    1.3    0.0    1.3   0.00   4.56    0.2    0.6    0.6    4.6   4.56   1.07    0.00    0.00
 1990 214    30    27    1.3    0.0    1.3   0.00   4.56    0.2    0.6    0.6    4.6   4.56   1.07    0.00    0.00
 1990 215    31    28    1.3    0.0    1.3   0.00   4.56    0.2    0.6    0.6    4.6   4.56   1.05    0.00    0.00
 1990 216    32    29    1.3    0.0    1.3   0.00   4.56    0.2    0.6    0.6    4.6   4.56   1.03    0.00    0.00
 1990 217    33    30    1.3    0.0    1.3   0.00   4.56    0.2    0.6    0.6    4.6   4.56   1.00    0.00    0.00
 1990 218    34    31    1.2    0.0    1.2   0.00   4.46    0.2    0.6    0.6    4.5   4.46   1.13    0.00    0.00
 1990 219    35    32    1.2    0.0    1.2   0.00   4.43    0.2    0.6    0.6    4.4   4.43   1.15    0.00    0.00
 1990 220    36    33    1.2    0.0    1.2   0.00   4.40    0.2    0.6    0.6    4.4   4.40   1.16    0.00    0.00
 1990 221    37    34    1.2    0.0    1.2   0.00   4.38    0.2    0.6    0.6    4.4   4.38   1.19    0.00    0.00
 1990 222    38    35    1.2    0.0    1.2   0.00   4.36    0.3    0.6    0.6    4.4   4.36   1.22    0.00    0.00
 1990 223    39    36    1.2    0.0    1.2   0.00   4.03    0.3    0.6    0.6    4.0   4.03   1.21    0.00    0.01
 1990 224    40    37    1.3    0.0    1.3   0.00   3.41    0.4    0.8    0.5    3.4   3.41   1.18    0.00    0.01
 1990 225    41    38    1.6    0.0    1.6   0.00   3.42    0.8    1.1    0.5    3.4   3.42   1.20    0.00    0.01
 1990 226    42    39    2.0    0.0    2.0   0.00   3.48    1.2    1.5    0.5    3.5   3.48   1.10    0.00    0.01
 1990 227    43    40    2.4    0.0    2.4   0.00   3.91    1.7    1.9    0.5    3.9   3.91   1.21    0.00    0.01
 1990 228    44    41    2.6    0.0    2.6   0.00   3.84    2.1    2.1    0.5    3.8   3.84   1.33    0.00    0.02
 1990 229    45    42    2.8    0.0    2.8   0.00   3.80    2.5    2.3    0.5    3.8   3.80   1.32    0.00    0.02
 1990 230    46    43    3.1    0.0    3.1   0.00   3.83    3.0    2.6    0.5    3.8   3.83   1.28    0.00    0.02
 1990 231    47    44    3.4    0.0    3.4   0.00   3.71    3.3    2.8    0.5    3.7   3.71   1.20    0.00    0.03
 1990 232    48    45    3.7    0.0    3.7   0.00   3.69    4.0    3.2    0.5    3.7   3.69   1.25    0.00    0.04
 1990 233    49    46    4.2    0.0    4.2   0.00   3.77    4.6    3.6    0.5    3.8   3.77   1.22    0.00    0.04
 1990 234    50    47    4.5    0.0    4.5   0.00   3.81    5.2    4.0    0.5    3.8   3.81   1.20    0.00    0.05
 1990 235    51    48    4.9    0.0    4.9   0.00   3.96    5.9    4.3    0.6    4.0   3.96   1.31    0.00    0.06
 1990 236    52    49    5.0    0.0    5.0   0.00   3.92    6.0    4.5    0.5    3.9   3.92   1.19    0.00    0.07
 1990 237    53    50    5.2    0.0    5.2   0.00   3.59    6.3    4.7    0.5    3.6   3.59   1.15    0.00    0.08
 1990 238    54    51    5.9    0.0    5.9   0.00   3.51    7.3    5.4    0.5    3.5   3.51   1.18    0.00    0.10
 1990 239    55    52    6.7    0.0    6.7   0.00   3.86    8.1    6.2    0.5    3.9   3.86   1.12    0.00    0.11
 1990 240    56    53    7.0    0.0    7.0   0.00   4.03    9.2    6.5    0.6    4.0   4.03   1.41    0.00    0.12
 1990 241    57    54    7.0    0.0    7.0   0.00   3.97    9.2    6.5    0.6    4.0   3.97   1.34    0.00    0.12
 1990 242    58    55    7.0    0.0    7.0   0.00   3.74    9.2    6.5    0.5    3.7   3.74   1.28    0.00    0.12
 1990 243    59    56    7.0    0.0    7.0   0.00   3.71    9.2    6.5    0.5    3.7   3.71   1.28    0.00    0.12
 1990 244    60    57    7.6    0.0    7.6   0.00   4.01    9.3    7.0    0.6    4.0   4.01   1.12    0.00    0.14
 1990 245    61    58    7.6    0.0    7.6   0.00   4.00    9.4    7.0    0.6    4.0   4.00   1.14    0.00    0.15
 1990 246    62    59    7.6    0.0    7.6   0.00   3.87    9.4    7.1    0.5    3.9   3.87   1.14    0.00    0.15
 1990 247    63    60    7.8    0.0    7.8   0.00   3.98    9.4    7.3    0.6    4.0   3.98   1.07    0.00    0.17
 1990 248    64    61    7.8    0.0    7.8   0.00   3.92    9.4    7.3    0.5    3.9   3.92   1.07    0.00    0.17
 1990 249    65    62    7.9    0.0    7.9   0.00   3.91    9.5    7.4    0.5    3.9   3.91   1.07    0.00    0.18
 1990 250    66    63    8.0    0.0    8.0   0.00   3.89    9.6    7.5    0.5    3.9   3.89   1.07    0.00    0.20
 1990 251    67    64    8.1    0.0    8.1   0.00   3.89    9.7    7.6    0.5    3.9   3.89   1.07    0.00    0.21
 1990 252    68    65    8.2    0.0    8.2   0.00   3.58    9.8    7.7    0.5    3.6   3.58   1.08    0.00    0.23
 1990 253    69    66    8.9    0.0    8.9   0.00   3.56   10.5    8.4    0.5    3.6   3.56   1.08    0.00    0.24
 1990 254    70    67    9.7    0.0    9.7   0.00   3.66   11.4    9.2    0.5    3.7   3.66   1.08    0.00    0.25
 1990 255    71    68   10.1    0.0   10.1   0.00   3.73   12.2    9.6    0.5    3.7   3.73   1.17    0.00    0.27
 1990 256    72    69   10.8    0.0   10.8   0.00   3.94   13.0   10.3    0.6    3.9   3.94   1.20    0.00    0.28
 1990 257    73    70   10.8    0.0   10.8   0.00   3.85   13.0   10.3    0.5    3.9   3.85   1.16    0.00    0.28
 1990 258    74    71   10.8    0.0   10.8   0.00   3.65   13.0   10.3    0.5    3.7   3.65   1.12    0.00    0.28
 1990 259    75    72   11.6    0.0   11.6   0.00   3.56   13.7   11.1    0.5    3.6   3.56   1.09    0.00    0.30
 1990 260    76    73   12.5    0.0   12.5   0.00   3.55   14.6   12.0    0.5    3.6   3.55   1.08    0.00    0.32
 1990 261    77    74   13.4    0.0   13.4   0.00   3.52   15.5   12.9    0.5    3.5   3.52   1.07    0.00    0.33
 1990 262    78    75   14.3    0.0   14.3   0.00   3.51   16.7   13.8    0.5    3.5   3.51   1.12    0.00    0.35
 1990 263    79    76   15.1    0.0   15.1   0.00   3.47   17.4   14.6    0.5    3.5   3.47   1.07    0.00    0.37
 1990 264    80    77   16.0    0.0   16.0   0.00   3.44   18.3   15.5    0.6    3.4   3.44   1.07    0.00    0.39
 1990 265    81    78   17.0    0.0   17.0   0.00   3.42   20.2   16.4    0.6    3.4   3.42   1.20    0.00    0.40
 1990 266    82    79   17.7    0.0   17.7   0.00   3.48   21.4   17.1    0.6    3.5   3.48   1.27    0.00    0.42
 1990 267    83    80   18.2    0.0   18.2   0.00   3.47   22.4   17.5    0.6    3.5   3.47   1.29    0.00    0.45
 1990 268    84    81   18.6    0.0   18.6   0.00   3.45   23.2   18.0    0.7    3.4   3.45   1.26    0.00    0.48
 1990 269    85    82   19.3    0.0   19.3   0.00   3.38   24.2   18.6    0.7    3.4   3.38   1.19    0.00    0.50
 1990 270    86    83   21.0    0.0   21.0   0.00   3.35   26.2   20.2    0.8    3.4   3.35   1.15    0.00    0.54
 1990 271    87    84   22.3    0.0   22.3   0.00   3.33   27.1   21.4    1.0    3.3   3.33   1.07    0.00    0.57
 1990 272    88    85   24.5    0.0   24.5   0.00   3.30   30.1   23.3    1.2    3.3   3.30   1.14    0.00    0.60
 1990 273    89    86   26.8    0.0   26.8   0.00   3.27   33.0   25.3    1.5    3.3   3.27   1.15    0.00    0.63
 1990 274    90    87   30.1    0.0   30.1   0.00   3.24   36.8   28.2    2.0    3.2   3.24   1.15    0.00    0.67
 1990 275    91    88   32.8    0.0   32.8   0.00   3.20   40.8   30.4    2.4    3.2   3.20   1.19    0.00    0.71
 1990 276    92    89   36.2    0.0   36.2   0.00   3.17   44.7   33.1    3.1    3.2   3.17   1.16    0.00    0.75
 1990 277    93    90   40.8    0.0   40.8   0.00   3.12   49.2   36.6    4.2    3.1   3.12   1.10    0.00    0.80
 1990 278    94    91   43.1    0.0   43.1   0.00   3.09   51.1   38.2    4.8    3.1   3.09   1.07    0.00    0.85
 1990 279    95    92   46.2    0.0   46.2   0.00   3.06   54.3   40.4    5.8    3.1   3.06   1.07    0.00    0.89
 1990 280    96    93   48.5    0.0   48.5   0.00   3.02   56.6   41.9    6.6    3.0   3.02   1.07    0.00    0.94
 1990 281    97    94   51.3    0.0   51.3   0.00   3.00   60.0   43.8    7.5    3.0   3.00   1.10    0.00    0.99
 1990 282    98    95   54.0    0.0   54.0   0.00   2.97   65.0   45.5    8.5    3.0   2.97   1.20    0.00    1.04
 1990 283    99    96   57.1    0.0   57.1   0.00   2.95   69.0   47.4    9.7    2.9   2.95   1.17    0.00    1.10
 1990 284   100    97   60.3    0.0   60.3   0.00   2.92   71.1   49.3   11.1    2.9   2.92   1.07    0.00    1.16
 1990 285   101    98   62.8    0.0   62.8   0.00   2.90   76.9   50.7   12.2    2.9   2.90   1.20    0.00    1.22
 1990 286   102    99   65.3    0.0   65.3   0.00   2.88   81.1   52.1   13.2    2.9   2.88   1.19    0.00    1.30
 1990 287   103   100   68.9    0.0   68.9   0.00   2.86   85.8   54.0   14.9    2.9   2.86   1.16    0.00    1.38
 1990 288   104   101   71.4    0.0   71.4   0.00   2.84   90.3   55.3   16.1    2.8   2.84   1.17    0.00    1.47
 1990 289   105   102   73.5    0.0   73.5   0.00   2.83   94.5   56.4   17.1    2.8   2.83   1.17    0.00    1.57
 1990 290   106   103   76.5    0.0   76.5   0.00   2.81   96.9   57.9   18.6    2.8   2.81   1.10    0.00    1.68
 1990 291   107   104   81.2    0.0   81.2   0.00   2.77  103.0   60.1   21.1    2.8   2.77   1.12    0.00    1.79
 1990 292   108   105   87.2    0.0   87.2   0.00   2.72  108.3   65.3   21.9    2.7   2.72   1.08    0.00    1.90
 1990 293   109   106   91.5    0.0   91.5   0.00   2.63  112.5   66.9   24.6    2.6   2.63   1.07    0.00    2.01
 1990 294   110   107   94.8    0.0   94.8   0.00   2.50  116.0   67.0   27.8    2.5   2.50   1.07    0.00    2.12
 1990 295   111   108   97.3    0.0   97.3   0.00   2.39  119.0   66.7   30.6    2.4   2.39   1.04    0.00    2.23
 1990 296   112   109   99.6    0.0   99.6   0.00   2.29  121.5   66.2   33.4    2.3   2.29   1.02    0.00    2.35
 1990 297   113   110  101.5    0.0  101.5   0.00   2.21  123.6   65.7   35.7    2.2   2.21   1.01    0.00    2.46
 1990 298   114   111  103.1    0.0  103.1   0.00   2.14  125.4   65.2   37.9    2.1   2.14   1.01    0.00    2.58
 1990 299   115   112  104.6    0.0  104.6   0.00   2.04  127.0   64.1   40.4    2.0   2.04   0.98    0.00    2.69
 1990 300   116   113  105.8    0.0  105.8   0.00   1.95  128.3   63.0   42.9    1.9   1.95   0.98    0.00    2.81
 1990 301   117   114  106.9    0.0  106.9   0.00   1.91  129.5   62.7   44.2    1.9   1.91   0.98    0.00    2.93
 1990 302   118   115  107.9    0.0  107.9   0.00   1.86  130.6   62.1   45.9    1.9   1.86   0.99    0.00    3.05
 1990 303   119   116  109.0    0.0  109.0   0.00   1.79  131.8   61.0   48.0    1.8   1.79   0.96    0.00    3.16
 1990 304   120   117  110.8    0.0  110.8   0.00   1.75  133.8   60.8   50.0    1.8   1.75   0.92    0.00    3.28
 1990 305   121   118  112.3    0.0  112.3   0.00   1.71  135.6   60.4   51.9    1.7   1.71   0.90    0.00    3.40
 1990 306   122   119  113.7    0.0  113.7   0.00   1.67  137.1   60.0   53.7    1.7   1.67   0.89    0.00    3.52
 1990 307   123   120  115.1    0.0  115.1   0.00   1.65  138.7   59.9   55.2    1.6   1.65   0.89    0.00    3.64
 1990 308   124   121  116.3    0.0  116.3   0.00   1.63  140.1   59.8   56.5    1.6   1.63   0.87    0.00    3.77
 1990 309   125   122  117.2    0.0  117.2   0.00   1.62  141.2   59.9   57.3    1.6   1.62   0.81    0.00    3.89
[...]
 1992 209    25    22    0.0    0.0    0.0   0.00   0.00    0.0    0.0    0.0    0.0   0.00   0.00    0.00    0.00
 1992 210    26    23    0.0    0.0    0.0   0.00   0.00    0.0    0.0    0.0    0.0   0.00   0.00    0.00    0.00
 1992 211    27    24    1.2    0.0    1.2   0.00   4.40    0.0    0.6    0.6    4.4   4.40   0.00    0.00    0.00
 1992 212    28    25    1.3    0.0    1.3   0.00   4.55    0.2    0.6    0.6    4.6   4.55   1.07    0.00    0.00
 1992 213    29    26    1.3    0.0    1.3   0.00   4.55    0.2    0.6    0.6    4.6   4.55   1.08    0.00    0.00
 1992 214    30    27    1.3    0.0    1.3   0.00   4.55    0.2    0.6    0.6    4.6   4.55   1.10    0.00    0.00
 1992 215    31    28    1.3    0.0    1.3   0.00   4.55    0.2    0.6    0.6    4.6   4.55   1.10    0.00    0.00
 1992 216    32    29    1.3    0.0    1.3   0.00   4.55    0.2    0.6    0.6    4.6   4.55   1.11    0.00    0.00
 1992 217    33    30    1.3    0.0    1.3   0.00   4.55    0.2    0.6    0.6    4.6   4.55   1.11    0.00    0.00
 1992 218    34    31    1.3    0.0    1.3   0.00   4.55    0.2    0.6    0.6    4.6   4.55   1.11    0.00    0.00
 1992 219    35    32    1.3    0.0    1.3   0.00   4.55    0.2    0.6    0.6    4.6   4.55   1.11    0.00    0.00
 1992 220    36    33    1.3    0.0    1.3   0.00   4.55    0.2    0.6    0.6    4.6   4.55   1.11    0.00    0.00
 1992 221    37    34    1.3    0.0    1.3   0.00   4.55    0.2    0.6    0.6    4.6   4.55   1.10    0.00    0.00
 1992 222    38    35    1.3    0.0    1.3   0.00   4.55    0.2    0.6    0.6    4.6   4.55   1.10    0.00    0.00
 1992 223    39    36    1.3    0.0    1.3   0.00   4.55    0.2    0.6    0.6    4.6   4.55   1.10    0.00    0.00
 1992 224    40    37    1.3    0.0    1.3   0.00   4.55    0.2    0.6    0.6    4.6   4.55   1.08    0.00    0.00
 1992 225    41    38    1.3    0.0    1.3   0.00   4.55    0.2    0.6    0.6    4.6   4.55   1.07    0.00    0.00
 1992 226    42    39    1.3    0.0    1.3   0.00   4.55    0.2    0.6    0.6    4.6   4.55   1.04    0.00    0.00
 1992 227    43    40    1.3    0.0    1.3   0.00   4.55    0.2    0.6    0.6    4.6   4.55   1.01    0.00    0.00
 1992 228    44    41    1.3    0.0    1.3   0.00   4.55    0.2    0.6    0.6    4.6   4.55   0.99    0.00    0.00
 1992 229    45    42    1.3    0.0    1.3   0.00   4.55    0.2    0.6    0.6    4.6   4.55   0.94    0.00    0.00
 1992 230    46    43    1.3    0.0    1.3   0.00   4.55    0.2    0.6    0.6    4.6   4.55   0.89    0.00    0.00
 1992 231    47    44    1.2    0.0    1.2   0.00   4.38    0.2    0.6    0.6    4.4   4.38   1.15    0.00    0.00
 1992 232    48    45    1.2    0.0    1.2   0.00   4.37    0.2    0.6    0.6    4.4   4.37   1.16    0.00    0.00
 1992 233    49    46    1.2    0.0    1.2   0.00   4.35    0.3    0.6    0.6    4.4   4.35   1.19    0.00    0.00
 1992 234    50    47    1.2    0.0    1.2   0.00   4.33    0.3    0.6    0.6    4.3   4.33   1.23    0.00    0.01
 1992 235    51    48    1.2    0.0    1.2   0.00   3.82    0.3    0.7    0.5    3.8   3.82   1.20    0.00    0.01
 1992 236    52    49    1.4    0.0    1.4   0.00   3.80    0.5    0.8    0.5    3.8   3.80   1.25    0.00    0.01
 1992 237    53    50    1.5    0.0    1.5   0.00   3.80    0.8    1.0    0.5    3.8   3.80   1.26    0.00    0.01
 1992 238    54    51    1.7    0.0    1.7   0.00   3.82    1.1    1.2    0.5    3.8   3.82   1.26    0.00    0.01
 1992 239    55    52    1.9    0.0    1.9   0.00   3.84    1.4    1.4    0.5    3.8   3.84   1.26    0.00    0.02
 1992 240    56    53    2.1    0.0    2.1   0.00   3.65    1.7    1.6    0.5    3.7   3.65   1.23    0.00    0.02
 1992 241    57    54    2.4    0.0    2.4   0.00   3.76    2.1    1.9    0.5    3.8   3.76   1.17    0.00    0.02
 1992 242    58    55    2.7    0.0    2.7   0.00   3.59    2.5    2.2    0.5    3.6   3.59   1.19    0.00    0.03
 1992 243    59    56    3.1    0.0    3.1   0.00   3.60    2.8    2.6    0.5    3.6   3.60   1.09    0.00    0.03
 1992 244    60    57    3.6    0.0    3.6   0.00   3.94    3.4    3.0    0.6    3.9   3.94   1.17    0.00    0.04
 1992 245    61    58    3.8    0.0    3.8   0.00   3.99    3.7    3.2    0.6    4.0   3.99   1.19    0.00    0.04
 1992 246    62    59    3.9    0.0    3.9   0.00   3.93    3.8    3.3    0.5    3.9   3.93   1.14    0.00    0.05
 1992 247    63    60    4.1    0.0    4.1   0.00   3.86    4.3    3.5    0.5    3.9   3.86   1.28    0.00    0.05
 1992 248    64    61    4.3    0.0    4.3   0.00   3.81    4.9    3.8    0.5    3.8   3.81   1.29    0.00    0.06
 1992 249    65    62    4.7    0.0    4.7   0.00   3.75    5.6    4.1    0.5    3.7   3.75   1.24    0.00    0.07
 1992 250    66    63    5.1    0.0    5.1   0.00   3.75    6.3    4.5    0.5    3.8   3.75   1.23    0.00    0.08
 1992 251    67    64    5.5    0.0    5.5   0.00   3.67    7.0    5.0    0.5    3.7   3.67   1.21    0.00    0.09
 1992 252    68    65    6.0    0.0    6.0   0.00   3.62    7.3    5.5    0.5    3.6   3.62   1.09    0.00    0.11
 1992 253    69    66    6.7    0.0    6.7   0.00   3.61    8.3    6.2    0.5    3.6   3.61   1.14    0.00    0.12
 1992 254    70    67    7.4    0.0    7.4   0.00   3.57    9.3    6.9    0.5    3.6   3.57   1.15    0.00    0.14
 1992 255    71    68    8.2    0.0    8.2   0.00   3.54   10.1    7.7    0.5    3.5   3.54   1.11    0.00    0.15
 1992 256    72    69    9.2    0.0    9.2   0.00   3.61   11.8    8.7    0.5    3.6   3.61   1.20    0.00    0.17
 1992 257    73    70   10.0    0.0   10.0   0.00   3.73   12.8    9.5    0.5    3.7   3.73   1.16    0.00    0.19
 1992 258    74    71   10.5    0.0   10.5   0.00   3.68   14.0   10.0    0.5    3.7   3.68   1.20    0.00    0.21
 1992 259    75    72   11.1    0.0   11.1   0.00   3.59   15.4   10.6    0.5    3.6   3.59   1.20    0.00    0.23
 1992 260    76    73   12.1    0.0   12.1   0.00   3.74   16.5   11.5    0.5    3.7   3.74   1.16    0.00    0.26
 1992 261    77    74   12.6    0.0   12.6   0.00   3.34   17.3   12.1    0.5    3.3   3.34   1.14    0.00    0.28
 1992 262    78    75   14.4    0.0   14.4   0.00   3.60   20.3   13.9    0.5    3.6   3.60   1.23    0.00    0.31
 1992 263    79    76   16.1    0.0   16.1   0.00   3.80   22.9   15.5    0.5    3.8   3.80   1.22    0.00    0.35
 1992 264    80    77   17.1    0.0   17.1   0.00   3.68   24.7   16.6    0.5    3.7   3.68   1.19    0.00    0.39
 1992 265    81    78   18.9    0.0   18.9   0.00   3.56   27.2   18.4    0.5    3.6   3.56   1.17    0.00    0.43
 1992 266    82    79   19.7    0.0   19.7   0.00   3.62   27.7   19.2    0.5    3.6   3.62   1.11    0.00    0.48
 1992 267    83    80   20.2    0.0   20.2   0.00   3.54   29.4   19.7    0.5    3.5   3.54   1.16    0.00    0.53
 1992 268    84    81   21.3    0.0   21.3   0.00   3.59   30.0   20.7    0.5    3.6   3.59   1.10    0.00    0.58
 1992 269    85    82   21.5    0.0   21.5   0.00   3.58   32.3   20.9    0.5    3.6   3.58   1.27    0.00    0.63
 1992 270    86    83   21.8    0.0   21.8   0.00   3.58   33.0   21.3    0.6    3.6   3.58   1.25    0.00    0.69
 1992 271    87    84   22.3    0.0   22.3   0.00   3.49   33.5   21.7    0.6    3.5   3.49   1.16    0.00    0.75
 1992 272    88    85   23.4    0.0   23.4   0.00   3.47   35.5   22.8    0.6    3.5   3.47   1.15    0.00    0.81
 1992 273    89    86   24.7    0.0   24.7   0.00   3.45   37.8   24.0    0.6    3.5   3.45   1.15    0.00    0.88
 1992 274    90    87   26.8    0.0   26.8   0.00   3.42   40.7   26.0    0.8    3.4   3.42   1.13    0.00    0.95
 1992 275    91    88   29.5    0.0   29.5   0.00   3.39   43.0   28.6    1.0    3.4   3.39   1.09    0.00    1.03
 1992 276    92    89   31.9    0.0   31.9   0.00   3.36   45.7   30.8    1.2    3.4   3.36   1.09    0.00    1.10
 1992 277    93    90   34.0    0.0   34.0   0.00   3.34   49.0   32.6    1.4    3.3   3.34   1.13    0.00    1.17
 1992 278    94    91   36.9    0.0   36.9   0.00   3.31   52.5   35.1    1.7    3.3   3.31   1.12    0.00    1.25
 1992 279    95    92   38.8    0.0   38.8   0.00   3.28   53.9   36.7    2.0    3.3   3.28   1.08    0.00    1.34
 1992 280    96    93   40.2    0.0   40.2   0.00   3.30   58.3   38.0    2.2    3.3   3.30   1.19    0.00    1.42
 1992 281    97    94   41.1    0.0   41.1   0.00   3.30   59.9   38.7    2.3    3.3   3.30   1.18    0.00    1.51
 1992 282    98    95   42.0    0.0   42.0   0.00   3.26   62.0   39.5    2.5    3.3   3.26   1.17    0.00    1.61
 1992 283    99    96   43.5    0.0   43.5   0.00   3.23   64.7   40.7    2.8    3.2   3.23   1.14    0.00    1.72
 1992 284   100    97   46.0    0.0   46.0   0.00   3.21   68.4   42.7    3.3    3.2   3.21   1.14    0.00    1.83
 1992 285   101    98   49.1    0.0   49.1   0.00   3.18   71.4   45.1    4.0    3.2   3.18   1.10    0.00    1.95
 1992 286   102    99   52.2    0.0   52.2   0.00   3.15   76.2   47.4    4.8    3.2   3.15   1.12    0.00    2.06
 1992 287   103   100   55.1    0.0   55.1   0.00   3.13   80.8   49.5    5.6    3.1   3.13   1.13    0.00    2.19
 1992 288   104   101   59.2    0.0   59.2   0.00   3.09   85.9   52.4    6.9    3.1   3.09   1.12    0.00    2.32
 1992 289   105   102   61.8    0.0   61.8   0.00   3.05   87.1   53.9    7.9    3.0   3.05   1.07    0.00    2.46
 1992 290   106   103   65.4    0.0   65.4   0.00   3.02   90.7   56.2    9.2    3.0   3.02   1.07    0.00    2.59
 1992 291   107   104   68.5    0.0   68.5   0.00   3.00   96.6   58.1   10.4    3.0   3.00   1.12    0.00    2.72
 1992 292   108   105   70.9    0.0   70.9   0.00   2.98  101.1   59.5   11.4    3.0   2.98   1.14    0.00    2.87
 1992 293   109   106   73.7    0.0   73.7   0.00   2.96  102.4   61.2   12.6    3.0   2.96   1.07    0.00    3.03
 1992 294   110   107   76.2    0.0   76.2   0.00   2.94  108.0   62.6   13.7    2.9   2.94   1.13    0.00    3.17
 1992 295   111   108   78.5    0.0   78.5   0.00   2.93  112.4   63.8   14.7    2.9   2.93   1.13    0.00    3.34
 1992 296   112   109   81.8    0.0   81.8   0.00   2.91  116.9   65.6   16.2    2.9   2.91   1.12    0.00    3.51
 1992 297   113   110   86.7    0.0   86.7   0.00   2.87  122.6   68.0   18.6    2.9   2.87   1.11    0.00    3.69
 1992 298   114   111   90.9    0.0   90.9   0.00   2.77  127.0   69.4   21.5    2.8   2.77   1.09    0.00    3.87
 1992 299   115   112   95.0    0.0   95.0   0.00   2.76  130.5   71.4   23.6    2.8   2.76   1.07    0.00    4.06
 1992 300   116   113   97.4    0.0   97.4   0.00   2.61  133.4   71.0   26.3    2.6   2.61   1.06    0.00    4.24
 1992 301   117   114   99.5    0.0   99.5   0.00   2.45  135.9   70.4   29.1    2.4   2.45   1.05    0.00    4.43
 1992 302   118   115  101.5    0.0  101.5   0.00   2.43  138.0   72.0   29.5    2.4   2.43   1.05    0.00    4.61
 1992 303   119   116  102.9    0.0  102.9   0.00   2.34  139.7   72.5   30.4    2.3   2.34   1.02    0.00    4.80
 1992 304   120   117  104.1    0.0  104.1   0.00   2.26  141.1   72.5   31.6    2.3   2.26   0.99    0.00    4.98
 1992 305   121   118  105.1    0.0  105.1   0.00   2.18  142.4   72.1   33.0    2.2   2.18   0.97    0.00    5.17
 1992 306   122   119  105.9    0.0  105.9   0.00   2.08  143.3   71.2   34.7    2.1   2.08   0.94    0.00    5.36
 1992 307   123   120  106.6    0.0  106.6   0.00   1.97  144.2   69.8   36.8    2.0   1.97   0.93    0.00    5.55
 1992 308   124   121  107.1    0.0  107.1   0.00   1.92  144.8   69.3   37.8    1.9   1.92   0.91    0.00    5.75
 1992 309   125   122  107.4    0.0  107.4   0.00   1.91  145.3   69.2   38.3    1.9   1.91   0.89    0.00    5.94
 1992 310   126   123  108.0    0.0  108.0   0.00   1.90  146.1   69.2   38.8    1.9   1.90   0.87    0.00    6.13
 1992 311   127   124  108.5    0.0  108.5   0.00   1.88  146.7   69.0   39.6    1.9   1.88   0.84    0.00    6.32
 1992 312   128   125  108.9    0.0  108.9   0.00   1.84  147.3   68.5   40.5    1.8   1.84   0.82    0.00    6.52
 1992 313   129   126  109.3    0.0  109.3   0.00   1.79  147.8   67.7   41.6    1.8   1.79   0.79    0.00    6.71
 1992 314   130   127  110.1    0.0  110.1   0.00   1.74  148.9   66.9   43.2    1.7   1.74   0.78    0.00    6.91
 1992 315   131   128  111.1    0.0  111.1   0.00   1.72  150.1   66.7   44.3    1.7   1.72   0.79    0.00    7.10
 1992 316   132   129  112.0    0.0  112.0   0.00   1.66  151.3   65.9   46.2    1.7   1.66   0.79    0.00    7.30
 1992 317   133   130  112.9    0.0  112.9   0.00   1.61  152.5   65.0   47.9    1.6   1.61   0.78    0.00    7.50
 1992 318   134   131  113.8    0.0  113.8   0.00   1.57  153.7   64.4   49.4    1.6   1.57   0.76    0.00    7.70
 1992 319   135   132  114.6    0.0  114.6   0.00   1.53  154.7   63.6   51.0    1.5   1.53   0.77    0.00    7.90
 1992 320   136   133  115.4    0.0  115.4   0.00   1.49  155.7   63.0   52.4    1.5   1.49   0.76    0.00    8.11
 1992 321   137   134  116.0    0.0  116.0   0.00   1.47  156.5   62.8   53.2    1.5   1.47   0.74    0.00    8.31
 1992 322   138   135  116.7    0.0  116.7   0.00   1.46  157.5   62.7   54.0    1.5   1.46   0.72    0.00    8.51
 1992 323   139   136  117.4    0.0  117.4   0.00   1.45  158.5   62.6   54.9    1.4   1.45   0.71    0.00    8.72
 1992 324   140   137  118.1    0.0  118.1   0.00   1.42  159.4   62.2   55.9    1.4   1.42   0.69    0.00    8.93
 1992 325   141   138  118.7    0.0  118.7   0.00   1.39  160.2   61.6   57.1    1.4   1.39   0.69    0.00    9.13
 1992 326   142   139  119.3    0.0  119.3   0.00   1.52  161.0   66.7   52.6    1.5   1.52   0.70    0.00    9.34
 1992 327   143   140  119.9    0.0  119.9   0.00   1.53  161.8   66.5   53.4    1.5   1.53   0.69    0.00    9.55
 1992 328   144   141  120.4    0.0  120.4   0.00   1.54  162.6   66.2   54.2    1.5   1.54   0.68    0.00    9.76
 1992 329   145   142  120.9    0.0  120.9   0.00   1.54  163.3   65.7   55.2    1.5   1.54   0.67    0.00    9.98
 1992 330   146   143  121.3    0.0  121.3   0.00   1.55  164.0   65.1   56.2    1.5   1.55   0.67    0.00   10.19
 1992 331   147   144  121.7    0.0  121.7   0.00   1.55  164.6   64.4   57.3    1.6   1.55   0.67    0.00   10.40
 1992 332   148   145  122.1    0.0  122.1   0.00   1.56  165.3   63.7   58.4    1.6   1.56   0.66    0.00   10.62
 1992 333   149   146  122.6    0.0  122.6   0.00   1.56  166.2   62.9   59.6    1.6   1.56   0.66    0.00   10.84
 1992 334   150   147  123.0    0.0  123.0   0.00   1.56  166.9   62.0   61.0    1.6   1.56   0.66    0.00   11.06
 1992 335   151   148  123.5    0.0  123.5   0.00   1.57  167.8   61.1   62.4    1.6   1.57   0.66    0.00   11.28
 1992 336   152   149  123.9    0.0  123.9   0.00   1.57  168.6   60.3   63.6    1.6   1.57   0.66    0.00   11.50
 1992 337   153   150  124.4    0.0  124.4   0.00   1.58  169.7   59.6   64.8    1.6   1.58   0.65    0.00   11.72
 1992 338   154   151  124.8    0.0  124.8   0.00   1.59  170.6   58.8   66.0    1.6   1.59   0.65    0.00   11.95
 1992 339   155   152  125.2    0.0  125.2   0.00   1.60  171.6   57.8   67.4    1.6   1.60   0.64    0.00   12.18
 1992 340   156   153  125.6    0.0  125.6   0.00   1.60  172.5   56.8   68.8    1.6   1.60   0.65    0.00   12.41
 1992 341   157   154  126.0    4.1  121.9   1.52   1.56  173.4   55.1   66.8    1.6   1.56   0.65    0.00   12.65
 1992 342   158   155  126.3    7.5  118.8   1.50   1.52  174.1   53.7   65.1    1.5   1.52   0.66    0.00   12.88
 1992 343   159   156  126.8   11.1  115.7   1.49   1.48  175.1   52.3   63.4    1.5   1.48   0.66    0.00   13.12
 1992 344   160   157  127.3   14.7  112.6   1.48   1.44  176.1   50.9   61.7    1.4   1.44   0.67    0.00   13.36
 1992 345   161   158  127.7   18.5  109.2   1.47   1.39  177.0   49.4   59.8    1.4   1.39   0.68    0.00   13.61
 1992 346   162   159  128.1   21.8  106.3   1.46   1.36  177.9   48.1   58.3    1.4   1.36   0.68    0.00   13.85
 1992 347   163   160  128.6   24.9  103.7   1.45   1.32  178.7   46.9   56.8    1.3   1.32   0.68    0.00   14.10
 1992 348   164   161  129.0   28.5  100.5   1.44   1.28  179.5   45.4   55.0    1.3   1.28   0.69    0.00   14.35
 1992 349   165   162  129.4   32.0   97.4   1.43   1.24  180.4   44.1   53.4    1.2   1.24   0.69    0.00   14.60
 1992 350   166   163  129.9   34.5   95.3   1.42   1.22  181.2   43.1   52.2    1.2   1.22   0.69    0.00   14.85
 1992 351   167   164  130.3   37.6   92.6   1.41   1.18  181.9   41.9   50.8    1.2   1.18   0.70    0.00   15.11
 1992 352   168   165  130.7   41.1   89.6   1.40   1.14  182.7   40.5   49.1    1.1   1.14   0.70    0.00   15.37
 1992 353   169   166  131.0   44.5   86.6   1.39   1.10  183.3   39.1   47.4    1.1   1.10   0.70    0.00   15.62
 1992 354   170   167  131.5   47.8   83.8   1.37   1.07  184.2   37.9   45.9    1.1   1.07   0.71    0.00   15.88
 1992 355   171   168  132.0   51.0   80.9   1.36   1.03  185.0   36.6   44.3    1.0   1.03   0.71    0.00   16.15
 1992 356   172   169  132.5   54.2   78.3   1.35   1.00  185.9   35.4   42.9    1.0   1.00   0.72    0.00   16.41
 1992 357   173   170  132.9   57.3   75.6   1.34   0.98  186.6   34.6   41.0    1.0   0.98   0.73    0.00   16.67
 1992 358   174   171  133.3   60.3   73.0   1.33   0.96  187.4   33.8   39.1    1.0   0.96   0.73    0.00   16.94
 1992 359   175   172  133.8   63.3   70.5   1.32   0.91  188.2   32.4   38.1    0.9   0.91   0.74    0.00   17.21
 1992 360   176   173  134.2   66.0   68.2   1.31   0.88  188.8   31.1   37.1    0.9   0.88   0.74    0.00   17.48
 1992 361   177   174  134.7   68.3   66.4   1.29   0.85  189.7   30.0   36.4    0.8   0.85   0.75    0.00   17.75
 1992 362   178   175  135.2   70.6   64.6   1.28   0.82  190.4   29.2   35.4    0.8   0.82   0.75    0.00   18.02
 1992 363   179   176  135.6   73.3   62.4   1.27   0.80  191.2   28.2   34.2    0.8   0.80   0.75    0.00   18.29
 1992 364   180   177  136.1   75.9   60.2   1.26   0.78  192.0   27.8   32.5    0.8   0.78   0.76    0.00   18.57
 1992 365   181   178  136.5   78.1   58.4   1.24   0.77  192.7   27.4   31.0    0.8   0.77   0.77    0.00   18.85
 1992 366   182   179  136.9   80.1   56.8   1.23   0.76  193.3   27.0   29.8    0.8   0.76   0.77    0.00   19.12
 1993 001   183   180  137.0   82.1   54.9   1.22   0.75  193.6   26.5   28.4    0.7   0.75   0.78    0.00   19.40
 1993 002   184   181  137.3   84.2   53.1   1.21   0.74  194.0   26.1   27.0    0.7   0.74   0.79    0.00   19.68
 1993 003   185   182  137.5   86.3   51.2   1.20   0.72  194.4   25.7   25.5    0.7   0.72   0.79    0.00   19.96
 1993 004   186   183  137.7   88.7   49.0   1.19   0.70  194.7   24.9   24.0    0.7   0.70   0.80    0.00   20.24
 1993 005   187   184  138.0   91.1   46.9   1.18   0.68  195.2   24.0   22.9    0.7   0.68   0.80    0.00   20.52
 1993 006   188   185  138.5   93.4   45.1   1.17   0.65  196.1   23.0   22.1    0.7   0.65   0.81    0.00   20.80
 1993 007   189   186  139.0   95.6   43.4   1.16   0.64  196.7   22.6   20.7    0.6   0.64   0.82    0.00   21.09
 1993 008   190   187  139.3   97.7   41.7   1.15   0.62  197.3   22.1   19.6    0.6   0.62   0.82    0.00   21.37
 1993 009   191   188  139.6   99.5   40.1   1.14   0.60  197.8   21.3   18.9    0.6   0.60   0.83    0.00   21.66
 1993 010   192   189  140.3  101.5   38.8   1.13   0.58  198.8   20.6   18.2    0.6   0.58   0.84    0.00   21.94
 1993 011   193   190  141.0  103.4   37.7   1.11   0.57  199.7   20.1   17.5    0.6   0.57   0.85    0.00   22.23
 1993 012   194   191  141.0  103.4   37.7   1.11   0.57  200.6   20.1   17.5    0.6   0.57   0.85    0.00   22.23
 1993 013   195   192  141.0  103.4   37.7   1.11   0.57  201.5   20.1   17.5    0.6   0.57   0.85    0.00   22.23
 1993 014   196   193  141.0  103.4   37.7   1.11   0.57  202.5   20.1   17.5    0.6   0.57   0.85    0.00   22.23
 1993 015   197   194  141.0  103.4   37.7   1.11   0.57  203.4   20.1   17.5    0.6   0.57   0.85    0.00   22.23
