*SOIL N BALANCE - CERES SOIL N&C ROUTINES

*DSSAT Cropping System Model Ver. 4.0.2.000               Aug 03, 2016; 14:38:54

*RUN   1        : UYMZ                    
 MODEL          : MZCER040 - Maize           
 EXPERIMENT     : UYMZ0122 MZ    late to create DSS                             
 TREATMENT  1   : UYMZ                    



                                         INITIAL Year/Doy      FINAL Year/Doy
                                                 1987/184            1988/011
SOIL N BALANCE                                  -----------kg N/ha-----------

   Soil Humus N                                  16646.04            16534.59
   Soil Litter N                                     0.00               11.93
   N in Surface Residue                              0.00                0.00
   Soil NO3                                         74.81                6.11
   Soil NH4                                         23.95                8.14
   Soil Urea                                         0.00                0.00

   Added to / Removed from Soil:
   N in Harvest Residues from Previous Crop          0.00
   N from Organic Applications                       0.00
   N from senesced plant matter                     17.92
   Fertilizer N                                      3.00
   Leached NO3                                                          12.06
   N Denitrified                                                         4.09
   N Uptake From Soil                                                  187.92
   Ammonia volatilization                                                0.88

   Total N balance                               16765.72            16765.71

================================================================================

*DSSAT Cropping System Model Ver. 4.0.2.000               Aug 03, 2016; 14:38:54

*RUN   2        : UYMZ                    
 MODEL          : MZCER040 - Maize           
 EXPERIMENT     : UYMZ0122 MZ    late to create DSS                             
 TREATMENT  1   : UYMZ                    



                                         INITIAL Year/Doy      FINAL Year/Doy
                                                 1988/184            1989/005
SOIL N BALANCE                                  -----------kg N/ha-----------

   Soil Humus N                                  16646.04            16538.40
   Soil Litter N                                     0.00               13.57
   N in Surface Residue                              0.00                0.00
   Soil NO3                                         74.81                6.36
   Soil NH4                                         23.95                6.06
   Soil Urea                                         0.00                0.00

   Added to / Removed from Soil:
   N in Harvest Residues from Previous Crop          0.00
   N from Organic Applications                       0.00
   N from senesced plant matter                     15.76
   Fertilizer N                                      3.00
   Leached NO3                                                          12.57
   N Denitrified                                                         3.01
   N Uptake From Soil                                                  182.65
   Ammonia volatilization                                                0.94

   Total N balance                               16763.56            16763.57

================================================================================

*DSSAT Cropping System Model Ver. 4.0.2.000               Aug 03, 2016; 14:38:54

*RUN   3        : UYMZ                    
 MODEL          : MZCER040 - Maize           
 EXPERIMENT     : UYMZ0122 MZ    late to create DSS                             
 TREATMENT  1   : UYMZ                    



                                         INITIAL Year/Doy      FINAL Year/Doy
                                                 1989/184            1990/004
SOIL N BALANCE                                  -----------kg N/ha-----------

   Soil Humus N                                  16646.04            16539.60
   Soil Litter N                                     0.00               14.17
   N in Surface Residue                              0.00                0.00
   Soil NO3                                         74.81                5.84
   Soil NH4                                         23.95                6.56
   Soil Urea                                         0.00                0.00

   Added to / Removed from Soil:
   N in Harvest Residues from Previous Crop          0.00
   N from Organic Applications                       0.00
   N from senesced plant matter                     18.86
   Fertilizer N                                      3.00
   Leached NO3                                                           6.13
   N Denitrified                                                         0.77
   N Uptake From Soil                                                  192.59
   Ammonia volatilization                                                1.00

   Total N balance                               16766.66            16766.66

================================================================================

*DSSAT Cropping System Model Ver. 4.0.2.000               Aug 03, 2016; 14:38:54

*RUN   4        : UYMZ                    
 MODEL          : MZCER040 - Maize           
 EXPERIMENT     : UYMZ0122 MZ    late to create DSS                             
 TREATMENT  1   : UYMZ                    



                                         INITIAL Year/Doy      FINAL Year/Doy
                                                 1990/184            1991/005
SOIL N BALANCE                                  -----------kg N/ha-----------

   Soil Humus N                                  16646.04            16537.04
   Soil Litter N                                     0.00                9.81
   N in Surface Residue                              0.00                0.00
   Soil NO3                                         74.81                5.94
   Soil NH4                                         23.95                7.67
   Soil Urea                                         0.00                0.00

   Added to / Removed from Soil:
   N in Harvest Residues from Previous Crop          0.00
   N from Organic Applications                       0.00
   N from senesced plant matter                     13.77
   Fertilizer N                                      3.00
   Leached NO3                                                           7.15
   N Denitrified                                                         1.74
   N Uptake From Soil                                                  191.38
   Ammonia volatilization                                                0.86

   Total N balance                               16761.58            16761.58

================================================================================

*DSSAT Cropping System Model Ver. 4.0.2.000               Aug 03, 2016; 14:38:54

*RUN   5        : UYMZ                    
 MODEL          : MZCER040 - Maize           
 EXPERIMENT     : UYMZ0122 MZ    late to create DSS                             
 TREATMENT  1   : UYMZ                    



                                         INITIAL Year/Doy      FINAL Year/Doy
                                                 1991/184            1992/006
SOIL N BALANCE                                  -----------kg N/ha-----------

   Soil Humus N                                  16646.04            16537.37
   Soil Litter N                                     0.00               12.73
   N in Surface Residue                              0.00                0.00
   Soil NO3                                         74.81                5.92
   Soil NH4                                         23.95                8.13
   Soil Urea                                         0.00                0.00

   Added to / Removed from Soil:
   N in Harvest Residues from Previous Crop          0.00
   N from Organic Applications                       0.00
   N from senesced plant matter                     17.60
   Fertilizer N                                      3.00
   Leached NO3                                                          31.17
   N Denitrified                                                         3.16
   N Uptake From Soil                                                  166.01
   Ammonia volatilization                                                0.92

   Total N balance                               16765.40            16765.40

================================================================================

*DSSAT Cropping System Model Ver. 4.0.2.000               Aug 03, 2016; 14:38:54

*RUN   6        : UYMZ                    
 MODEL          : MZCER040 - Maize           
 EXPERIMENT     : UYMZ0122 MZ    late to create DSS                             
 TREATMENT  1   : UYMZ                    



                                         INITIAL Year/Doy      FINAL Year/Doy
                                                 1992/184            1993/015
SOIL N BALANCE                                  -----------kg N/ha-----------

   Soil Humus N                                  16646.04            16536.92
   Soil Litter N                                     0.00               16.61
   N in Surface Residue                              0.00                0.00
   Soil NO3                                         74.81                7.06
   Soil NH4                                         23.95                7.87
   Soil Urea                                         0.00                0.00

   Added to / Removed from Soil:
   N in Harvest Residues from Previous Crop          0.00
   N from Organic Applications                       0.00
   N from senesced plant matter                     22.23
   Fertilizer N                                      3.00
   Leached NO3                                                           0.43
   N Denitrified                                                         0.08
   N Uptake From Soil                                                  199.71
   Ammonia volatilization                                                1.35

   Total N balance                               16770.03            16770.04
