*SOIL TEMPERATURE OUTPUT FILE (DAILY)

*DSSAT Cropping System Model Ver. 4.0.2.000               Aug 11, 2016; 14:44:11

*RUN   1        : UYMZ                    
 MODEL          : MZCER040 - Maize           
 EXPERIMENT     : UYMZ0135 MZ    late to create DSS                             
 TREATMENT  1   : UYMZ                    

@YEAR DOY   DAS  TS1D  TS2D  TS3D  TS4D  TS5D  TS6D  TS7D  TS8D  TS9D  TS10
 2000 220     0  21.7  21.0  20.3  19.6  19.2  18.8  18.5  18.3   0.0   0.0
 2000 221     1  21.9  21.2  20.4  19.7  19.3  18.9  18.5  18.3   0.0   0.0
 2000 222     2  20.4  19.9  19.3  18.9  18.7  18.5  18.3  18.1   0.0   0.0
 2000 223     3  18.0  17.8  17.7  17.7  17.8  17.9  17.9  17.9   0.0   0.0
 2000 224     4  15.5  15.7  16.0  16.4  16.8  17.2  17.5  17.6   0.0   0.0
 2000 225     5  12.8  13.3  14.1  15.0  15.7  16.5  17.1  17.3   0.0   0.0
 2000 226     6  11.3  12.0  13.1  14.2  15.1  16.1  16.8  17.1   0.0   0.0
 2000 227     7  11.2  11.9  13.0  14.1  15.1  16.1  16.8  17.1   0.0   0.0
 2000 228     8  12.3  12.9  13.7  14.7  15.5  16.4  16.9  17.2   0.0   0.0
 2000 229     9  13.8  14.1  14.8  15.4  16.0  16.7  17.2  17.3   0.0   0.0
 2000 230    10  15.4  15.6  15.8  16.3  16.7  17.1  17.4  17.5   0.0   0.0
 2000 231    11  16.2  16.2  16.4  16.6  16.9  17.3  17.5  17.6   0.0   0.0
 2000 232    12  18.2  18.0  17.7  17.7  17.7  17.8  17.8  17.8   0.0   0.0
 2000 233    13  18.7  18.4  18.0  17.9  17.9  17.9  17.9  17.9   0.0   0.0
 2000 234    14  19.6  19.2  18.7  18.3  18.2  18.1  18.0  18.0   0.0   0.0
 2000 235    15  20.7  20.0  19.4  18.9  18.6  18.3  18.2  18.1   0.0   0.0
 2000 236    16  21.0  20.3  19.5  19.0  18.7  18.4  18.2  18.1   0.0   0.0
 2000 237    17  19.7  19.2  18.7  18.3  18.2  18.1  18.0  18.0   0.0   0.0
 2000 238    18  19.2  18.8  18.3  18.1  18.0  17.9  17.9  17.9   0.0   0.0
 2000 239    19  18.0  17.7  17.5  17.4  17.5  17.6  17.7  17.7   0.0   0.0
 2000 240    20  16.9  16.7  16.7  16.8  17.0  17.3  17.5  17.6   0.0   0.0
 2000 241    21  15.0  15.1  15.4  15.9  16.3  16.8  17.2  17.4   0.0   0.0
 2000 242    22  14.4  14.6  15.0  15.5  16.0  16.7  17.1  17.3   0.0   0.0
 2000 243    23  15.1  15.2  15.4  15.9  16.3  16.8  17.2  17.4   0.0   0.0
 2000 244    24  14.8  14.9  15.2  15.7  16.2  16.7  17.1  17.3   0.0   0.0
 2000 245    25  14.0  14.2  14.7  15.3  15.8  16.5  17.0  17.2   0.0   0.0
 2000 246    26  14.6  14.7  15.1  15.5  16.0  16.6  17.1  17.3   0.0   0.0
 2000 247    27  14.6  14.7  15.1  15.6  16.0  16.6  17.1  17.3   0.0   0.0
 2000 248    28  14.6  14.7  15.0  15.5  16.0  16.6  17.0  17.3   0.0   0.0
 2000 249    29  15.4  15.4  15.6  15.9  16.3  16.8  17.2  17.3   0.0   0.0
 2000 250    30  16.7  16.5  16.5  16.6  16.8  17.1  17.4  17.5   0.0   0.0
 2000 251    31  18.5  18.1  17.7  17.5  17.5  17.6  17.6  17.7   0.0   0.0
 2000 252    32  20.5  19.8  19.1  18.5  18.2  18.0  17.9  17.9   0.0   0.0
 2000 253    33  20.9  20.2  19.3  18.7  18.4  18.1  18.0  17.9   0.0   0.0
 2000 254    34  21.7  20.8  19.8  19.1  18.6  18.3  18.1  18.0   0.0   0.0
 2000 255    35  21.7  20.9  19.9  19.1  18.6  18.3  18.1  18.0   0.0   0.0
 2000 256    36  19.8  19.2  18.5  18.1  17.9  17.8  17.8  17.8   0.0   0.0
 2000 257    37  16.7  16.5  16.4  16.5  16.7  17.0  17.3  17.4   0.0   0.0
 2000 258    38  14.7  14.8  15.0  15.4  15.9  16.5  16.9  17.2   0.0   0.0
 2000 259    39  13.0  13.3  13.8  14.5  15.2  16.0  16.6  16.9   0.0   0.0
 2000 260    40  12.2  12.6  13.3  14.1  14.8  15.8  16.5  16.8   0.0   0.0
 2000 261    41  12.9  13.2  13.8  14.4  15.1  15.9  16.6  16.9   0.0   0.0
 2000 262    42  14.4  14.5  14.8  15.2  15.7  16.3  16.8  17.1   0.0   0.0
 2000 263    43  16.3  16.2  16.1  16.2  16.4  16.8  17.1  17.3   0.0   0.0
 2000 264    44  17.6  17.3  17.0  16.8  16.9  17.1  17.3  17.4   0.0   0.0
 2000 265    45  17.9  17.5  17.1  17.0  17.0  17.1  17.3  17.4   0.0   0.0
 2000 266    46  18.0  17.6  17.2  17.0  17.0  17.2  17.4  17.5   0.0   0.0
 2000 267    47  18.4  17.9  17.5  17.2  17.2  17.3  17.4  17.5   0.0   0.0
 2000 268    48  17.0  16.7  16.5  16.5  16.6  16.9  17.2  17.3   0.0   0.0
 2000 269    49  15.6  15.5  15.6  15.8  16.1  16.5  16.9  17.2   0.0   0.0
 2000 270    50  15.2  15.2  15.3  15.6  15.9  16.4  16.9  17.1   0.0   0.0
 2000 271    51  16.0  15.9  15.8  15.9  16.2  16.6  17.0  17.2   0.0   0.0
 2000 272    52  17.0  16.8  16.5  16.5  16.6  16.8  17.1  17.3   0.0   0.0
 2000 273    53  19.4  18.8  18.1  17.7  17.5  17.4  17.5  17.5   0.0   0.0
 2000 274    54  21.6  20.7  19.6  18.8  18.3  18.0  17.8  17.8   0.0   0.0
 2000 275    55  23.3  22.2  20.8  19.6  19.0  18.4  18.1  18.0   0.0   0.0
 2000 276    56  22.6  21.6  20.3  19.3  18.7  18.2  18.0  17.9   0.0   0.0
 2000 277    57  21.5  20.7  19.6  18.7  18.3  17.9  17.8  17.8   0.0   0.0
 2000 278    58  20.2  19.5  18.6  18.0  17.7  17.6  17.6  17.6   0.0   0.0
 2000 279    59  18.9  18.4  17.8  17.4  17.2  17.2  17.3  17.4   0.0   0.0
 2000 280    60  17.9  17.5  17.0  16.8  16.8  16.9  17.2  17.3   0.0   0.0
 2000 281    61  18.2  17.8  17.3  17.0  16.9  17.0  17.2  17.3   0.0   0.0
 2000 282    62  18.7  18.2  17.6  17.2  17.1  17.1  17.3  17.4   0.0   0.0
 2000 283    63  18.6  18.1  17.5  17.2  17.0  17.1  17.2  17.4   0.0   0.0
 2000 284    64  18.6  18.1  17.5  17.1  17.0  17.1  17.2  17.3   0.0   0.0
 2000 285    65  19.1  18.5  17.8  17.4  17.2  17.2  17.3  17.4   0.0   0.0
 2000 286    66  20.1  19.4  18.5  17.9  17.6  17.4  17.5  17.5   0.0   0.0
 2000 287    67  20.1  19.3  18.5  17.9  17.6  17.4  17.4  17.5   0.0   0.0
 2000 288    68  20.3  19.6  18.7  18.0  17.7  17.5  17.5  17.5   0.0   0.0
 2000 289    69  20.4  19.7  18.7  18.0  17.7  17.5  17.5  17.5   0.0   0.0
 2000 290    70  20.6  19.8  18.9  18.1  17.7  17.5  17.5  17.5   0.0   0.0
 2000 291    71  19.7  19.0  18.2  17.7  17.4  17.3  17.3  17.4   0.0   0.0
 2000 292    72  19.7  19.1  18.3  17.7  17.4  17.3  17.3  17.4   0.0   0.0
 2000 293    73  19.9  19.2  18.4  17.8  17.5  17.3  17.4  17.4   0.0   0.0
 2000 294    74  20.9  20.1  19.1  18.3  17.8  17.6  17.5  17.5   0.0   0.0
 2000 295    75  21.8  20.9  19.7  18.8  18.2  17.8  17.6  17.6   0.0   0.0
 2000 296    76  21.6  20.7  19.5  18.6  18.1  17.7  17.6  17.6   0.0   0.0
 2000 297    77  20.9  20.0  19.0  18.2  17.8  17.5  17.5  17.5   0.0   0.0
 2000 298    78  21.0  20.1  19.1  18.3  17.8  17.5  17.5  17.5   0.0   0.0
 2000 299    79  20.5  19.7  18.8  18.0  17.6  17.4  17.4  17.4   0.0   0.0
 2000 300    80  19.9  19.2  18.3  17.7  17.4  17.2  17.3  17.3   0.0   0.0
 2000 301    81  20.7  19.9  18.9  18.2  17.7  17.4  17.4  17.4   0.0   0.0
 2000 302    82  21.1  20.3  19.2  18.4  17.9  17.5  17.5  17.5   0.0   0.0
 2000 303    83  20.8  19.9  18.9  18.2  17.7  17.4  17.4  17.4   0.0   0.0
 2000 304    84  21.7  20.7  19.6  18.6  18.1  17.6  17.5  17.5   0.0   0.0
 2000 305    85  22.3  21.3  20.0  18.9  18.3  17.8  17.6  17.6   0.0   0.0
 2000 306    86  22.0  21.0  19.8  18.8  18.2  17.7  17.6  17.5   0.0   0.0
 2000 307    87  22.3  21.3  20.0  18.9  18.3  17.8  17.6  17.6   0.0   0.0
 2000 308    88  23.3  22.1  20.7  19.4  18.7  18.0  17.8  17.7   0.0   0.0
 2000 309    89  22.3  21.3  20.0  19.0  18.3  17.8  17.6  17.6   0.0   0.0
 2000 310    90  21.8  20.9  19.7  18.7  18.1  17.6  17.5  17.5   0.0   0.0
 2000 311    91  22.1  21.2  19.9  18.8  18.2  17.7  17.5  17.5   0.0   0.0
 2000 312    92  22.2  21.2  19.9  18.9  18.2  17.7  17.5  17.5   0.0   0.0
 2000 313    93  22.4  21.4  20.0  19.0  18.3  17.8  17.6  17.5   0.0   0.0
 2000 314    94  22.2  21.2  19.9  18.9  18.2  17.7  17.5  17.5   0.0   0.0
 2000 315    95  22.1  21.1  19.9  18.8  18.2  17.7  17.5  17.5   0.0   0.0
 2000 316    96  22.2  21.2  19.9  18.8  18.2  17.7  17.5  17.5   0.0   0.0
 2000 317    97  22.7  21.7  20.3  19.1  18.4  17.8  17.6  17.5   0.0   0.0
 2000 318    98  22.2  21.2  19.9  18.9  18.2  17.7  17.5  17.5   0.0   0.0
 2000 319    99  21.4  20.6  19.4  18.5  17.9  17.5  17.4  17.4   0.0   0.0
 2000 320   100  20.1  19.4  18.5  17.8  17.4  17.2  17.2  17.2   0.0   0.0
 2000 321   101  19.6  18.9  18.2  17.5  17.2  17.0  17.1  17.2   0.0   0.0
 2000 322   102  19.6  19.0  18.2  17.5  17.2  17.0  17.1  17.2   0.0   0.0
 2000 323   103  20.8  20.0  19.0  18.2  17.7  17.3  17.3  17.3   0.0   0.0
 2000 324   104  23.2  22.1  20.7  19.4  18.6  17.9  17.6  17.6   0.0   0.0
 2000 325   105  24.4  23.2  21.5  20.0  19.0  18.2  17.8  17.7   0.0   0.0
 2000 326   106  25.2  23.8  22.0  20.4  19.3  18.4  17.9  17.8   0.0   0.0
 2000 327   107  25.6  24.2  22.3  20.6  19.5  18.5  18.0  17.8   0.0   0.0
 2000 328   108  26.3  24.8  22.7  21.0  19.7  18.7  18.1  17.9   0.0   0.0
 2000 329   109  24.7  23.4  21.7  20.2  19.2  18.3  17.9  17.7   0.0   0.0
 2000 330   110  24.9  23.6  21.8  20.3  19.3  18.3  17.9  17.7   0.0   0.0
 2000 331   111  25.2  23.8  22.0  20.4  19.4  18.4  17.9  17.7   0.0   0.0
 2000 332   112  24.9  23.6  21.8  20.3  19.2  18.3  17.9  17.7   0.0   0.0
 2000 333   113  22.9  21.9  20.5  19.3  18.5  17.8  17.5  17.5   0.0   0.0
 2000 334   114  22.8  21.7  20.4  19.2  18.4  17.8  17.5  17.5   0.0   0.0
 2000 335   115  22.6  21.6  20.3  19.1  18.4  17.8  17.5  17.4   0.0   0.0
 2000 336   116  21.8  20.9  19.7  18.7  18.1  17.6  17.4  17.3   0.0   0.0
 2000 337   117  22.0  21.1  19.9  18.9  18.2  17.6  17.4  17.4   0.0   0.0
 2000 338   118  23.0  22.0  20.6  19.4  18.5  17.9  17.5  17.5   0.0   0.0
 2000 339   119  23.3  22.2  20.8  19.5  18.6  17.9  17.6  17.5   0.0   0.0
 2000 340   120  23.4  22.3  20.8  19.6  18.7  17.9  17.6  17.5   0.0   0.0
 2000 341   121  24.5  23.3  21.6  20.1  19.1  18.2  17.8  17.6   0.0   0.0
 2000 342   122  25.2  23.9  22.1  20.5  19.4  18.4  17.9  17.7   0.0   0.0
 2000 343   123  26.1  24.7  22.7  21.0  19.7  18.6  18.0  17.8   0.0   0.0
 2000 344   124  28.1  26.4  24.1  22.0  20.5  19.1  18.3  18.0   0.0   0.0
 2000 345   125  29.3  27.4  24.9  22.6  20.9  19.4  18.5  18.1   0.0   0.0
 2000 346   126  29.2  27.4  24.9  22.6  21.0  19.4  18.5  18.1   0.0   0.0
 2000 347   127  29.4  27.5  25.0  22.7  21.0  19.4  18.5  18.1   0.0   0.0
 2000 348   128  29.8  27.9  25.3  22.9  21.2  19.5  18.6  18.2   0.0   0.0
 2000 349   129  29.4  27.6  25.0  22.7  21.1  19.5  18.6  18.2   0.0   0.0
 2000 350   130  29.3  27.5  25.0  22.7  21.1  19.5  18.5  18.2   0.0   0.0
 2000 351   131  28.0  26.4  24.1  22.1  20.6  19.2  18.3  18.0   0.0   0.0
 2000 352   132  26.8  25.3  23.3  21.4  20.1  18.9  18.1  17.9   0.0   0.0
 2000 353   133  26.0  24.6  22.7  21.0  19.8  18.6  18.0  17.8   0.0   0.0
 2000 354   134  25.4  24.1  22.3  20.7  19.6  18.5  17.9  17.7   0.0   0.0
 2000 355   135  25.4  24.1  22.3  20.7  19.6  18.5  17.9  17.7   0.0   0.0
 2000 356   136  25.2  23.9  22.2  20.6  19.5  18.5  17.9  17.7   0.0   0.0
 2000 357   137  25.9  24.6  22.7  21.0  19.8  18.6  18.0  17.8   0.0   0.0
 2000 358   138  24.3  23.2  21.6  20.2  19.2  18.2  17.8  17.6   0.0   0.0
 2000 359   139  24.1  23.1  21.5  20.1  19.1  18.2  17.7  17.6   0.0   0.0
 2000 360   140  24.5  23.4  21.8  20.4  19.3  18.3  17.8  17.6   0.0   0.0
 2000 361   141  27.2  25.7  23.6  21.7  20.3  19.0  18.2  17.9   0.0   0.0
 2000 362   142  26.8  25.4  23.4  21.6  20.2  18.9  18.2  17.9   0.0   0.0
 2000 363   143  27.7  26.2  24.0  22.0  20.6  19.2  18.3  18.0   0.0   0.0
 2000 364   144  27.2  25.8  23.7  21.8  20.4  19.1  18.2  17.9   0.0   0.0
 2000 365   145  26.3  25.0  23.1  21.4  20.1  18.8  18.1  17.8   0.0   0.0
 2000 366   146  25.2  24.1  22.4  20.8  19.7  18.6  17.9  17.7   0.0   0.0
 2001 001   147  25.8  24.6  22.7  21.1  19.9  18.7  18.0  17.8   0.0   0.0
 2001 002   148  26.8  25.4  23.4  21.6  20.2  18.9  18.2  17.9   0.0   0.0
 2001 003   149  28.5  26.9  24.6  22.5  20.9  19.3  18.4  18.1   0.0   0.0
 2001 004   150  29.7  27.9  25.4  23.1  21.3  19.6  18.6  18.2   0.0   0.0
 2001 005   151  30.3  28.4  25.8  23.4  21.6  19.8  18.7  18.3   0.0   0.0
 2001 006   152  31.0  29.1  26.3  23.7  21.9  20.0  18.8  18.3   0.0   0.0
 2001 007   153  30.6  28.7  26.0  23.5  21.7  19.9  18.8  18.3   0.0   0.0
 2001 008   154  29.7  28.0  25.5  23.2  21.5  19.7  18.7  18.2   0.0   0.0
 2001 009   155  29.2  27.5  25.1  22.9  21.3  19.6  18.6  18.2   0.0   0.0
 2001 010   156  27.3  25.9  23.8  22.0  20.6  19.1  18.3  18.0   0.0   0.0
 2001 011   157  25.2  24.1  22.5  20.9  19.8  18.6  18.0  17.7   0.0   0.0
 2001 012   158  24.4  23.4  21.9  20.5  19.5  18.5  17.9  17.6   0.0   0.0
 2001 013   159  24.2  23.2  21.8  20.4  19.4  18.4  17.8  17.6   0.0   0.0
 2001 014   160  24.2  23.2  21.8  20.4  19.4  18.4  17.8  17.6   0.0   0.0
 2001 015   161  25.3  24.2  22.6  21.0  19.9  18.7  18.0  17.8   0.0   0.0
 2001 016   162  26.6  25.3  23.4  21.7  20.4  19.0  18.2  17.9   0.0   0.0
 2001 017   163  27.0  25.7  23.8  21.9  20.6  19.2  18.3  18.0   0.0   0.0
 2001 018   164  26.7  25.4  23.6  21.8  20.5  19.1  18.3  17.9   0.0   0.0
 2001 019   165  26.0  24.8  23.1  21.4  20.2  18.9  18.2  17.8   0.0   0.0
 2001 020   166  25.5  24.4  22.8  21.2  20.0  18.8  18.1  17.8   0.0   0.0
 2001 021   167  25.0  23.9  22.4  20.9  19.8  18.7  18.0  17.7   0.0   0.0
 2001 022   168  25.0  23.9  22.4  20.9  19.8  18.7  18.0  17.7   0.0   0.0

*DSSAT Cropping System Model Ver. 4.0.2.000               Aug 11, 2016; 14:44:11

*RUN   2        : UYMZ                    
 MODEL          : MZCER040 - Maize           
 EXPERIMENT     : UYMZ0135 MZ    late to create DSS                             
 TREATMENT  1   : UYMZ                    

@YEAR DOY   DAS  TS1D  TS2D  TS3D  TS4D  TS5D  TS6D  TS7D  TS8D  TS9D  TS10
 2001 220     0  15.4  15.6  16.0  16.5  16.9  17.3  17.5  17.6   0.0   0.0
 2001 221     1  15.6  15.7  16.1  16.5  16.9  17.3  17.5  17.6   0.0   0.0
 2001 222     2  15.9  16.0  16.3  16.7  17.0  17.4  17.6  17.6   0.0   0.0
 2001 223     3  16.5  16.5  16.7  16.9  17.2  17.5  17.7  17.7   0.0   0.0
 2001 224     4  17.9  17.7  17.6  17.6  17.7  17.8  17.9  17.9   0.0   0.0
 2001 225     5  18.7  18.4  18.2  18.0  18.0  18.0  18.0  17.9   0.0   0.0
 2001 226     6  19.9  19.5  19.0  18.6  18.5  18.3  18.2  18.1   0.0   0.0
 2001 227     7  20.5  19.9  19.3  18.9  18.7  18.4  18.3  18.1   0.0   0.0
 2001 228     8  20.7  20.1  19.5  19.0  18.7  18.5  18.3  18.1   0.0   0.0
 2001 229     9  19.9  19.5  18.9  18.6  18.4  18.3  18.1  18.0   0.0   0.0
 2001 230    10  19.0  18.7  18.3  18.1  18.0  18.0  18.0  17.9   0.0   0.0
 2001 231    11  17.8  17.6  17.4  17.4  17.5  17.7  17.8  17.8   0.0   0.0
 2001 232    12  16.7  16.7  16.7  16.9  17.1  17.4  17.6  17.7   0.0   0.0
 2001 233    13  15.9  16.0  16.1  16.5  16.8  17.2  17.5  17.5   0.0   0.0
 2001 234    14  15.4  15.5  15.8  16.2  16.6  17.0  17.4  17.5   0.0   0.0
 2001 235    15  15.2  15.3  15.6  16.0  16.5  17.0  17.3  17.4   0.0   0.0
 2001 236    16  15.5  15.6  15.8  16.2  16.6  17.0  17.3  17.5   0.0   0.0
 2001 237    17  16.4  16.4  16.4  16.6  16.9  17.2  17.5  17.6   0.0   0.0
 2001 238    18  18.3  18.0  17.7  17.6  17.6  17.7  17.8  17.8   0.0   0.0
 2001 239    19  18.7  18.3  18.0  17.8  17.7  17.8  17.8  17.8   0.0   0.0
 2001 240    20  18.6  18.2  17.9  17.7  17.7  17.7  17.8  17.8   0.0   0.0
 2001 241    21  19.2  18.8  18.3  18.0  17.9  17.9  17.9  17.9   0.0   0.0
 2001 242    22  20.0  19.4  18.8  18.4  18.2  18.1  18.0  17.9   0.0   0.0
 2001 243    23  19.2  18.8  18.3  18.0  17.9  17.9  17.9  17.8   0.0   0.0
 2001 244    24  19.3  18.8  18.3  18.0  17.9  17.9  17.9  17.8   0.0   0.0
 2001 245    25  19.5  19.0  18.5  18.1  18.0  17.9  17.9  17.9   0.0   0.0
 2001 246    26  18.4  18.1  17.7  17.5  17.5  17.6  17.7  17.7   0.0   0.0
 2001 247    27  16.4  16.3  16.3  16.5  16.7  17.1  17.3  17.5   0.0   0.0
 2001 248    28  15.1  15.2  15.4  15.8  16.2  16.7  17.1  17.3   0.0   0.0
 2001 249    29  14.7  14.8  15.1  15.5  16.0  16.6  17.0  17.2   0.0   0.0
 2001 250    30  14.8  14.9  15.2  15.6  16.0  16.6  17.0  17.2   0.0   0.0
 2001 251    31  15.2  15.3  15.4  15.8  16.2  16.7  17.1  17.3   0.0   0.0
 2001 252    32  15.5  15.5  15.6  15.9  16.3  16.8  17.1  17.3   0.0   0.0
 2001 253    33  15.8  15.7  15.8  16.0  16.4  16.8  17.2  17.3   0.0   0.0
 2001 254    34  15.7  15.7  15.8  16.0  16.3  16.8  17.1  17.3   0.0   0.0
 2001 255    35  15.9  15.8  15.8  16.1  16.4  16.8  17.2  17.3   0.0   0.0
 2001 256    36  16.2  16.1  16.1  16.2  16.5  16.9  17.2  17.4   0.0   0.0
 2001 257    37  16.3  16.1  16.1  16.3  16.5  16.9  17.2  17.4   0.0   0.0
 2001 258    38  15.7  15.7  15.7  16.0  16.3  16.7  17.1  17.3   0.0   0.0
 2001 259    39  14.8  14.9  15.1  15.5  15.9  16.5  16.9  17.2   0.0   0.0
 2001 260    40  14.3  14.4  14.7  15.2  15.7  16.3  16.8  17.1   0.0   0.0
 2001 261    41  14.5  14.6  14.9  15.3  15.7  16.4  16.9  17.1   0.0   0.0
 2001 262    42  15.8  15.7  15.7  15.9  16.2  16.7  17.1  17.2   0.0   0.0
 2001 263    43  17.9  17.5  17.2  17.0  17.0  17.2  17.4  17.5   0.0   0.0
 2001 264    44  20.1  19.5  18.7  18.2  17.9  17.8  17.7  17.7   0.0   0.0
 2001 265    45  21.9  21.0  19.9  19.1  18.6  18.2  18.0  17.9   0.0   0.0
 2001 266    46  22.3  21.3  20.1  19.2  18.7  18.3  18.0  18.0   0.0   0.0
 2001 267    47  22.9  21.8  20.5  19.5  18.9  18.4  18.1  18.0   0.0   0.0
 2001 268    48  21.7  20.8  19.7  18.9  18.4  18.1  17.9  17.9   0.0   0.0
 2001 269    49  20.4  19.7  18.8  18.2  17.9  17.7  17.7  17.7   0.0   0.0
 2001 270    50  18.5  18.1  17.5  17.3  17.2  17.3  17.4  17.5   0.0   0.0
 2001 271    51  17.9  17.5  17.1  16.9  16.9  17.1  17.3  17.4   0.0   0.0
 2001 272    52  17.1  16.8  16.5  16.5  16.6  16.9  17.1  17.3   0.0   0.0
 2001 273    53  17.2  16.9  16.6  16.6  16.6  16.9  17.1  17.3   0.0   0.0
 2001 274    54  17.7  17.3  16.9  16.8  16.8  17.0  17.2  17.3   0.0   0.0
 2001 275    55  18.2  17.8  17.3  17.1  17.0  17.1  17.3  17.4   0.0   0.0
 2001 276    56  18.1  17.7  17.2  17.0  16.9  17.1  17.2  17.4   0.0   0.0
 2001 277    57  18.1  17.6  17.2  16.9  16.9  17.0  17.2  17.3   0.0   0.0
 2001 278    58  18.1  17.7  17.2  17.0  16.9  17.0  17.2  17.3   0.0   0.0
 2001 279    59  18.3  17.9  17.3  17.1  17.0  17.1  17.2  17.4   0.0   0.0
 2001 280    60  18.6  18.1  17.5  17.2  17.1  17.1  17.3  17.4   0.0   0.0
 2001 281    61  18.6  18.1  17.6  17.2  17.1  17.1  17.3  17.4   0.0   0.0
 2001 282    62  18.1  17.6  17.1  16.9  16.8  17.0  17.2  17.3   0.0   0.0
 2001 283    63  18.6  18.1  17.5  17.2  17.1  17.1  17.3  17.4   0.0   0.0
 2001 284    64  19.0  18.4  17.8  17.3  17.2  17.2  17.3  17.4   0.0   0.0
 2001 285    65  19.2  18.6  17.9  17.4  17.2  17.2  17.3  17.4   0.0   0.0
 2001 286    66  19.9  19.2  18.4  17.8  17.5  17.4  17.4  17.5   0.0   0.0
 2001 287    67  21.1  20.2  19.2  18.4  17.9  17.7  17.6  17.6   0.0   0.0
 2001 288    68  20.6  19.8  18.9  18.1  17.8  17.5  17.5  17.5   0.0   0.0
 2001 289    69  20.6  19.8  18.9  18.2  17.8  17.5  17.5  17.5   0.0   0.0
 2001 290    70  21.2  20.4  19.3  18.5  18.0  17.7  17.6  17.6   0.0   0.0
 2001 291    71  21.9  20.9  19.7  18.8  18.2  17.8  17.7  17.7   0.0   0.0
 2001 292    72  22.3  21.3  20.0  19.0  18.4  17.9  17.8  17.7   0.0   0.0
 2001 293    73  23.6  22.4  20.9  19.7  18.9  18.2  17.9  17.8   0.0   0.0
 2001 294    74  23.2  22.1  20.6  19.5  18.7  18.1  17.9  17.8   0.0   0.0
 2001 295    75  22.5  21.4  20.1  19.1  18.4  17.9  17.7  17.7   0.0   0.0
 2001 296    76  21.8  20.9  19.7  18.7  18.2  17.8  17.6  17.6   0.0   0.0
 2001 297    77  21.9  20.9  19.7  18.7  18.2  17.8  17.6  17.6   0.0   0.0
 2001 298    78  22.8  21.7  20.3  19.2  18.5  18.0  17.8  17.7   0.0   0.0
 2001 299    79  23.4  22.3  20.8  19.5  18.8  18.1  17.9  17.8   0.0   0.0
 2001 300    80  23.8  22.6  21.0  19.7  18.9  18.2  17.9  17.8   0.0   0.0
 2001 301    81  23.8  22.6  21.0  19.8  18.9  18.2  17.9  17.8   0.0   0.0
 2001 302    82  23.2  22.1  20.6  19.4  18.7  18.1  17.8  17.7   0.0   0.0
 2001 303    83  21.3  20.5  19.3  18.5  17.9  17.6  17.5  17.5   0.0   0.0
 2001 304    84  21.2  20.3  19.2  18.4  17.9  17.5  17.4  17.5   0.0   0.0
 2001 305    85  21.8  20.8  19.6  18.7  18.1  17.7  17.5  17.5   0.0   0.0
 2001 306    86  21.6  20.7  19.5  18.6  18.0  17.6  17.5  17.5   0.0   0.0
 2001 307    87  21.5  20.6  19.5  18.5  18.0  17.6  17.5  17.5   0.0   0.0
 2001 308    88  21.9  21.0  19.7  18.7  18.1  17.7  17.5  17.5   0.0   0.0
 2001 309    89  23.0  21.9  20.5  19.3  18.5  17.9  17.7  17.6   0.0   0.0
 2001 310    90  23.3  22.1  20.7  19.4  18.6  18.0  17.7  17.7   0.0   0.0
 2001 311    91  22.7  21.6  20.3  19.1  18.4  17.9  17.6  17.6   0.0   0.0
 2001 312    92  22.4  21.4  20.1  19.0  18.3  17.8  17.6  17.5   0.0   0.0
 2001 313    93  22.2  21.2  20.0  18.9  18.2  17.7  17.5  17.5   0.0   0.0
 2001 314    94  21.5  20.6  19.5  18.5  18.0  17.5  17.4  17.4   0.0   0.0
 2001 315    95  21.6  20.7  19.5  18.6  18.0  17.6  17.4  17.4   0.0   0.0
 2001 316    96  23.3  22.2  20.7  19.5  18.7  18.0  17.7  17.6   0.0   0.0
 2001 317    97  23.8  22.6  21.0  19.7  18.8  18.1  17.8  17.7   0.0   0.0
 2001 318    98  23.9  22.7  21.1  19.8  18.9  18.1  17.8  17.7   0.0   0.0
 2001 319    99  24.1  22.9  21.3  19.9  19.0  18.2  17.8  17.7   0.0   0.0
 2001 320   100  23.1  22.0  20.6  19.4  18.6  17.9  17.6  17.6   0.0   0.0
 2001 321   101  22.5  21.4  20.1  19.0  18.3  17.7  17.5  17.5   0.0   0.0
 2001 322   102  23.5  22.4  20.8  19.6  18.7  18.0  17.7  17.6   0.0   0.0
 2001 323   103  24.5  23.2  21.5  20.1  19.1  18.3  17.8  17.7   0.0   0.0
 2001 324   104  25.9  24.4  22.5  20.8  19.6  18.6  18.1  17.9   0.0   0.0
 2001 325   105  27.1  25.5  23.3  21.4  20.1  18.9  18.2  18.0   0.0   0.0
 2001 326   106  28.0  26.2  23.9  21.8  20.4  19.1  18.4  18.1   0.0   0.0
 2001 327   107  28.8  26.9  24.4  22.2  20.7  19.3  18.5  18.2   0.0   0.0
 2001 328   108  27.1  25.4  23.3  21.4  20.1  18.9  18.2  18.0   0.0   0.0
 2001 329   109  24.4  23.2  21.5  20.1  19.1  18.2  17.8  17.7   0.0   0.0
 2001 330   110  23.1  22.0  20.6  19.4  18.6  17.9  17.6  17.5   0.0   0.0
 2001 331   111  22.3  21.3  20.1  19.0  18.3  17.7  17.5  17.4   0.0   0.0
 2001 332   112  20.6  19.9  18.9  18.1  17.6  17.3  17.2  17.2   0.0   0.0
 2001 333   113  21.1  20.3  19.3  18.4  17.8  17.4  17.3  17.3   0.0   0.0
 2001 334   114  20.9  20.1  19.1  18.3  17.7  17.3  17.2  17.2   0.0   0.0
 2001 335   115  21.7  20.8  19.7  18.7  18.1  17.5  17.3  17.3   0.0   0.0
 2001 336   116  21.8  20.9  19.8  18.8  18.1  17.6  17.4  17.3   0.0   0.0
 2001 337   117  21.1  20.3  19.3  18.4  17.8  17.4  17.2  17.3   0.0   0.0
 2001 338   118  20.7  20.0  19.0  18.2  17.7  17.3  17.2  17.2   0.0   0.0
 2001 339   119  21.6  20.8  19.7  18.7  18.0  17.5  17.3  17.3   0.0   0.0
 2001 340   120  21.7  20.9  19.7  18.7  18.1  17.5  17.3  17.3   0.0   0.0
 2001 341   121  22.2  21.3  20.1  19.0  18.3  17.7  17.4  17.4   0.0   0.0
 2001 342   122  22.1  21.2  20.0  19.0  18.3  17.7  17.4  17.4   0.0   0.0
 2001 343   123  22.2  21.3  20.1  19.0  18.3  17.7  17.4  17.4   0.0   0.0
 2001 344   124  22.7  21.7  20.4  19.3  18.5  17.8  17.5  17.4   0.0   0.0
 2001 345   125  22.7  21.7  20.4  19.3  18.5  17.8  17.5  17.4   0.0   0.0
 2001 346   126  22.7  21.8  20.5  19.3  18.5  17.8  17.5  17.4   0.0   0.0
 2001 347   127  24.2  23.0  21.5  20.0  19.1  18.2  17.7  17.6   0.0   0.0
 2001 348   128  25.2  23.9  22.1  20.6  19.5  18.4  17.9  17.7   0.0   0.0
 2001 349   129  25.5  24.2  22.4  20.7  19.6  18.5  17.9  17.7   0.0   0.0
 2001 350   130  25.7  24.3  22.5  20.8  19.7  18.6  18.0  17.7   0.0   0.0
 2001 351   131  25.8  24.4  22.6  20.9  19.7  18.6  18.0  17.7   0.0   0.0
 2001 352   132  25.9  24.5  22.6  20.9  19.7  18.6  18.0  17.8   0.0   0.0
 2001 353   133  26.2  24.8  22.9  21.1  19.9  18.7  18.0  17.8   0.0   0.0
 2001 354   134  27.0  25.5  23.4  21.5  20.2  18.9  18.2  17.9   0.0   0.0
 2001 355   135  26.1  24.7  22.8  21.1  19.8  18.7  18.0  17.8   0.0   0.0
 2001 356   136  25.3  24.0  22.3  20.7  19.6  18.5  17.9  17.7   0.0   0.0
 2001 357   137  25.0  23.8  22.2  20.6  19.5  18.5  17.9  17.7   0.0   0.0
 2001 358   138  24.8  23.6  22.0  20.5  19.4  18.4  17.8  17.6   0.0   0.0
 2001 359   139  24.5  23.4  21.8  20.4  19.3  18.3  17.8  17.6   0.0   0.0
 2001 360   140  26.4  25.0  23.1  21.3  20.0  18.8  18.1  17.8   0.0   0.0
 2001 361   141  27.8  26.3  24.1  22.1  20.6  19.2  18.3  18.0   0.0   0.0
 2001 362   142  28.7  27.0  24.6  22.5  20.9  19.4  18.4  18.1   0.0   0.0
 2001 363   143  29.2  27.5  25.0  22.8  21.1  19.5  18.5  18.1   0.0   0.0
 2001 364   144  29.7  27.9  25.4  23.0  21.3  19.6  18.6  18.2   0.0   0.0
 2001 365   145  29.7  27.9  25.4  23.0  21.3  19.6  18.6  18.2   0.0   0.0
 2002 001   146  29.1  27.4  25.0  22.7  21.1  19.5  18.5  18.1   0.0   0.0
 2002 002   147  28.6  26.9  24.6  22.5  20.9  19.3  18.4  18.1   0.0   0.0
 2002 003   148  28.2  26.6  24.3  22.2  20.7  19.2  18.4  18.0   0.0   0.0
 2002 004   149  27.5  26.0  23.9  21.9  20.5  19.1  18.3  17.9   0.0   0.0
 2002 005   150  26.0  24.7  22.9  21.2  19.9  18.7  18.0  17.8   0.0   0.0
 2002 006   151  25.1  23.9  22.3  20.7  19.6  18.5  17.9  17.7   0.0   0.0
 2002 007   152  24.3  23.3  21.8  20.4  19.3  18.3  17.8  17.6   0.0   0.0
 2002 008   153  24.5  23.4  21.9  20.4  19.4  18.4  17.8  17.6   0.0   0.0
 2002 009   154  24.4  23.3  21.8  20.4  19.4  18.4  17.8  17.6   0.0   0.0
 2002 010   155  25.6  24.4  22.7  21.0  19.8  18.7  18.0  17.7   0.0   0.0
 2002 011   156  26.7  25.4  23.4  21.6  20.3  18.9  18.2  17.9   0.0   0.0
 2002 012   157  28.3  26.7  24.5  22.4  20.9  19.3  18.4  18.0   0.0   0.0
 2002 013   158  29.1  27.4  25.1  22.8  21.2  19.5  18.5  18.1   0.0   0.0
 2002 014   159  28.4  26.8  24.6  22.5  21.0  19.4  18.5  18.1   0.0   0.0
 2002 015   160  27.3  25.9  23.9  22.0  20.6  19.2  18.3  18.0   0.0   0.0
 2002 016   161  26.2  25.0  23.2  21.4  20.2  18.9  18.1  17.8   0.0   0.0
 2002 017   162  24.8  23.8  22.2  20.8  19.7  18.6  17.9  17.7   0.0   0.0
 2002 018   163  23.4  22.6  21.3  20.1  19.1  18.2  17.7  17.5   0.0   0.0
 2002 019   164  24.4  23.4  22.0  20.6  19.5  18.5  17.9  17.6   0.0   0.0
 2002 020   165  26.3  25.1  23.3  21.5  20.2  18.9  18.2  17.8   0.0   0.0

*DSSAT Cropping System Model Ver. 4.0.2.000               Aug 11, 2016; 14:44:11

*RUN   3        : UYMZ                    
 MODEL          : MZCER040 - Maize           
 EXPERIMENT     : UYMZ0135 MZ    late to create DSS                             
 TREATMENT  1   : UYMZ                    

@YEAR DOY   DAS  TS1D  TS2D  TS3D  TS4D  TS5D  TS6D  TS7D  TS8D  TS9D  TS10
 2002 220     0  13.1  13.6  14.4  15.3  16.0  16.7  17.2  17.3   0.0   0.0
 2002 221     1  13.6  14.1  14.7  15.5  16.1  16.8  17.2  17.4   0.0   0.0
 2002 222     2  14.7  15.0  15.5  16.0  16.5  17.1  17.4  17.5   0.0   0.0
 2002 223     3  16.4  16.4  16.6  16.9  17.1  17.5  17.6  17.7   0.0   0.0
 2002 224     4  16.9  16.8  16.9  17.1  17.3  17.6  17.7  17.7   0.0   0.0
 2002 225     5  17.0  17.0  17.0  17.2  17.4  17.6  17.7  17.7   0.0   0.0
 2002 226     6  16.8  16.7  16.8  17.0  17.2  17.5  17.7  17.7   0.0   0.0
 2002 227     7  16.1  16.1  16.3  16.6  17.0  17.3  17.5  17.6   0.0   0.0
 2002 228     8  15.3  15.5  15.8  16.2  16.7  17.1  17.4  17.5   0.0   0.0
 2002 229     9  16.7  16.7  16.8  17.0  17.2  17.5  17.6  17.7   0.0   0.0
 2002 230    10  18.3  18.0  17.8  17.7  17.7  17.8  17.9  17.8   0.0   0.0
 2002 231    11  19.4  19.0  18.5  18.3  18.2  18.1  18.0  18.0   0.0   0.0
 2002 232    12  19.1  18.7  18.3  18.1  18.0  18.0  18.0  17.9   0.0   0.0
 2002 233    13  18.8  18.5  18.1  17.9  17.9  17.9  17.9  17.9   0.0   0.0
 2002 234    14  17.5  17.4  17.2  17.3  17.4  17.6  17.7  17.7   0.0   0.0
 2002 235    15  16.4  16.4  16.5  16.7  16.9  17.3  17.5  17.6   0.0   0.0
 2002 236    16  17.5  17.3  17.2  17.2  17.3  17.5  17.7  17.7   0.0   0.0
 2002 237    17  20.7  20.1  19.4  18.9  18.6  18.3  18.2  18.1   0.0   0.0
 2002 238    18  23.5  22.5  21.3  20.3  19.6  19.0  18.6  18.4   0.0   0.0
 2002 239    19  25.5  24.2  22.6  21.3  20.4  19.5  18.9  18.6   0.0   0.0
 2002 240    20  26.9  25.4  23.6  22.0  20.9  19.8  19.1  18.8   0.0   0.0
 2002 241    21  25.3  24.1  22.5  21.2  20.3  19.4  18.9  18.6   0.0   0.0
 2002 242    22  22.3  21.4  20.4  19.6  19.1  18.7  18.4  18.2   0.0   0.0
 2002 243    23  18.6  18.2  17.8  17.7  17.6  17.7  17.8  17.8   0.0   0.0
 2002 244    24  15.3  15.4  15.6  16.0  16.4  16.9  17.2  17.4   0.0   0.0
 2002 245    25  12.6  13.0  13.7  14.5  15.3  16.1  16.8  17.0   0.0   0.0
 2002 246    26  12.0  12.5  13.3  14.2  15.0  16.0  16.7  17.0   0.0   0.0
 2002 247    27  12.9  13.2  13.9  14.6  15.3  16.2  16.8  17.1   0.0   0.0
 2002 248    28  14.6  14.8  15.1  15.5  16.0  16.6  17.1  17.3   0.0   0.0
 2002 249    29  15.6  15.6  15.7  16.0  16.4  16.8  17.2  17.4   0.0   0.0
 2002 250    30  16.0  16.0  16.0  16.2  16.5  16.9  17.2  17.4   0.0   0.0
 2002 251    31  16.1  16.0  16.1  16.3  16.5  16.9  17.3  17.4   0.0   0.0
 2002 252    32  16.0  15.9  16.0  16.2  16.5  16.9  17.2  17.4   0.0   0.0
 2002 253    33  15.1  15.1  15.3  15.7  16.1  16.6  17.1  17.3   0.0   0.0
 2002 254    34  15.5  15.5  15.6  15.9  16.2  16.7  17.1  17.3   0.0   0.0
 2002 255    35  16.0  15.9  16.0  16.1  16.4  16.8  17.2  17.3   0.0   0.0
 2002 256    36  16.5  16.3  16.3  16.4  16.6  16.9  17.2  17.4   0.0   0.0
 2002 257    37  16.5  16.3  16.2  16.4  16.6  16.9  17.2  17.4   0.0   0.0
 2002 258    38  16.5  16.3  16.2  16.3  16.6  16.9  17.2  17.4   0.0   0.0
 2002 259    39  16.4  16.2  16.2  16.3  16.5  16.9  17.2  17.3   0.0   0.0
 2002 260    40  16.6  16.5  16.3  16.4  16.6  16.9  17.2  17.4   0.0   0.0
 2002 261    41  16.8  16.6  16.4  16.5  16.6  16.9  17.2  17.4   0.0   0.0
 2002 262    42  16.8  16.5  16.4  16.4  16.6  16.9  17.2  17.4   0.0   0.0
 2002 263    43  16.6  16.4  16.2  16.3  16.5  16.8  17.2  17.3   0.0   0.0
 2002 264    44  16.6  16.4  16.3  16.3  16.5  16.8  17.2  17.3   0.0   0.0
 2002 265    45  16.9  16.7  16.5  16.5  16.6  16.9  17.2  17.3   0.0   0.0
 2002 266    46  17.0  16.8  16.5  16.5  16.6  16.9  17.2  17.3   0.0   0.0
 2002 267    47  17.5  17.2  16.9  16.8  16.8  17.0  17.3  17.4   0.0   0.0
 2002 268    48  19.1  18.6  18.0  17.6  17.4  17.4  17.5  17.6   0.0   0.0
 2002 269    49  20.5  19.7  18.9  18.3  17.9  17.8  17.7  17.7   0.0   0.0
 2002 270    50  21.5  20.6  19.5  18.8  18.3  18.0  17.9  17.8   0.0   0.0
 2002 271    51  23.2  22.1  20.7  19.6  19.0  18.4  18.1  18.0   0.0   0.0
 2002 272    52  22.8  21.8  20.5  19.4  18.8  18.3  18.1  18.0   0.0   0.0
 2002 273    53  22.0  21.1  19.9  19.0  18.5  18.1  17.9  17.9   0.0   0.0
 2002 274    54  21.4  20.5  19.5  18.7  18.2  17.9  17.8  17.8   0.0   0.0
 2002 275    55  21.0  20.1  19.2  18.5  18.1  17.8  17.7  17.7   0.0   0.0
 2002 276    56  20.0  19.4  18.5  18.0  17.7  17.5  17.6  17.6   0.0   0.0
 2002 277    57  21.1  20.3  19.3  18.5  18.1  17.8  17.7  17.7   0.0   0.0
 2002 278    58  21.8  20.9  19.8  18.9  18.4  18.0  17.8  17.8   0.0   0.0
 2002 279    59  23.1  22.0  20.6  19.5  18.8  18.3  18.0  17.9   0.0   0.0
 2002 280    60  22.5  21.5  20.2  19.2  18.6  18.1  17.9  17.8   0.0   0.0
 2002 281    61  22.0  21.0  19.9  18.9  18.4  18.0  17.8  17.8   0.0   0.0
 2002 282    62  21.1  20.3  19.2  18.5  18.0  17.7  17.7  17.7   0.0   0.0
 2002 283    63  20.3  19.6  18.7  18.1  17.7  17.5  17.5  17.6   0.0   0.0
 2002 284    64  19.5  18.9  18.1  17.6  17.4  17.3  17.4  17.4   0.0   0.0
 2002 285    65  20.9  20.1  19.1  18.4  17.9  17.7  17.6  17.6   0.0   0.0
 2002 286    66  22.8  21.7  20.4  19.3  18.6  18.1  17.9  17.8   0.0   0.0
 2002 287    67  25.0  23.6  21.9  20.4  19.5  18.7  18.2  18.1   0.0   0.0
 2002 288    68  26.7  25.1  23.1  21.3  20.1  19.1  18.5  18.2   0.0   0.0
 2002 289    69  26.4  24.8  22.8  21.1  20.0  19.0  18.4  18.2   0.0   0.0
 2002 290    70  25.1  23.8  22.0  20.5  19.5  18.7  18.2  18.0   0.0   0.0
 2002 291    71  24.2  23.0  21.3  20.0  19.1  18.4  18.1  17.9   0.0   0.0
 2002 292    72  22.9  21.8  20.4  19.3  18.6  18.1  17.8  17.8   0.0   0.0
 2002 293    73  21.8  20.9  19.7  18.8  18.2  17.8  17.7  17.6   0.0   0.0
 2002 294    74  20.5  19.8  18.8  18.1  17.7  17.5  17.4  17.5   0.0   0.0
 2002 295    75  19.9  19.2  18.4  17.8  17.4  17.3  17.3  17.4   0.0   0.0
 2002 296    76  19.3  18.7  18.0  17.4  17.2  17.1  17.2  17.3   0.0   0.0
 2002 297    77  19.7  19.0  18.2  17.6  17.3  17.2  17.3  17.4   0.0   0.0
 2002 298    78  19.5  18.9  18.1  17.5  17.3  17.2  17.2  17.3   0.0   0.0
 2002 299    79  22.0  21.0  19.8  18.8  18.2  17.8  17.6  17.6   0.0   0.0
 2002 300    80  23.2  22.0  20.6  19.4  18.7  18.1  17.8  17.7   0.0   0.0
 2002 301    81  24.0  22.7  21.1  19.8  19.0  18.3  17.9  17.8   0.0   0.0
 2002 302    82  22.5  21.5  20.2  19.1  18.4  17.9  17.7  17.6   0.0   0.0
 2002 303    83  21.8  20.8  19.6  18.7  18.1  17.7  17.6  17.5   0.0   0.0
 2002 304    84  20.9  20.1  19.1  18.3  17.8  17.5  17.4  17.4   0.0   0.0
 2002 305    85  20.7  19.9  18.9  18.1  17.7  17.4  17.4  17.4   0.0   0.0
 2002 306    86  20.5  19.7  18.8  18.0  17.6  17.3  17.3  17.4   0.0   0.0
 2002 307    87  20.4  19.6  18.7  18.0  17.5  17.3  17.3  17.3   0.0   0.0
 2002 308    88  20.0  19.3  18.4  17.8  17.4  17.2  17.2  17.3   0.0   0.0
 2002 309    89  19.3  18.7  17.9  17.4  17.1  17.0  17.1  17.2   0.0   0.0
 2002 310    90  19.0  18.4  17.7  17.2  17.0  16.9  17.0  17.2   0.0   0.0
 2002 311    91  19.1  18.5  17.8  17.3  17.0  16.9  17.1  17.2   0.0   0.0
 2002 312    92  21.0  20.2  19.1  18.3  17.8  17.4  17.4  17.4   0.0   0.0
 2002 313    93  21.9  21.0  19.8  18.8  18.1  17.7  17.5  17.5   0.0   0.0
 2002 314    94  21.7  20.8  19.6  18.6  18.0  17.6  17.5  17.4   0.0   0.0
 2002 315    95  21.5  20.6  19.5  18.5  18.0  17.5  17.4  17.4   0.0   0.0
 2002 316    96  21.8  20.9  19.7  18.7  18.1  17.6  17.5  17.4   0.0   0.0
 2002 317    97  22.2  21.3  20.0  18.9  18.2  17.7  17.5  17.5   0.0   0.0
 2002 318    98  23.9  22.7  21.1  19.7  18.9  18.1  17.8  17.7   0.0   0.0
 2002 319    99  25.3  23.9  22.0  20.5  19.4  18.5  18.0  17.8   0.0   0.0
 2002 320   100  27.1  25.5  23.3  21.4  20.1  18.9  18.3  18.0   0.0   0.0
 2002 321   101  27.1  25.5  23.3  21.4  20.1  18.9  18.3  18.0   0.0   0.0
 2002 322   102  26.9  25.3  23.1  21.3  20.0  18.8  18.2  18.0   0.0   0.0
 2002 323   103  26.4  24.8  22.8  21.0  19.8  18.7  18.1  17.9   0.0   0.0
 2002 324   104  26.2  24.7  22.7  21.0  19.8  18.7  18.1  17.9   0.0   0.0
 2002 325   105  25.0  23.7  21.9  20.3  19.3  18.4  17.9  17.8   0.0   0.0
 2002 326   106  24.6  23.3  21.6  20.1  19.1  18.3  17.8  17.7   0.0   0.0
 2002 327   107  24.9  23.6  21.8  20.3  19.3  18.4  17.9  17.7   0.0   0.0
 2002 328   108  25.3  23.9  22.1  20.5  19.4  18.4  18.0  17.8   0.0   0.0
 2002 329   109  25.4  24.0  22.2  20.6  19.5  18.5  18.0  17.8   0.0   0.0
 2002 330   110  26.1  24.7  22.7  21.0  19.8  18.7  18.1  17.9   0.0   0.0
 2002 331   111  26.8  25.2  23.1  21.3  20.0  18.8  18.2  17.9   0.0   0.0
 2002 332   112  24.7  23.4  21.7  20.2  19.2  18.3  17.8  17.7   0.0   0.0
 2002 333   113  23.4  22.3  20.9  19.6  18.7  18.0  17.6  17.5   0.0   0.0
 2002 334   114  24.1  22.9  21.3  19.9  19.0  18.2  17.7  17.6   0.0   0.0
 2002 335   115  22.7  21.7  20.4  19.3  18.5  17.8  17.5  17.5   0.0   0.0
 2002 336   116  22.0  21.1  19.9  18.9  18.2  17.6  17.4  17.4   0.0   0.0
 2002 337   117  23.2  22.1  20.7  19.5  18.7  17.9  17.6  17.5   0.0   0.0
 2002 338   118  23.0  22.0  20.6  19.4  18.6  17.9  17.6  17.5   0.0   0.0
 2002 339   119  22.8  21.8  20.5  19.3  18.5  17.8  17.5  17.4   0.0   0.0
 2002 340   120  23.7  22.6  21.1  19.8  18.9  18.1  17.7  17.5   0.0   0.0
 2002 341   121  23.6  22.5  21.1  19.8  18.9  18.0  17.7  17.5   0.0   0.0
 2002 342   122  23.0  22.0  20.7  19.4  18.6  17.9  17.6  17.5   0.0   0.0
 2002 343   123  23.7  22.6  21.1  19.8  18.9  18.1  17.7  17.5   0.0   0.0
 2002 344   124  22.9  21.9  20.6  19.4  18.6  17.9  17.5  17.4   0.0   0.0
 2002 345   125  23.3  22.3  20.9  19.6  18.8  18.0  17.6  17.5   0.0   0.0
 2002 346   126  23.7  22.7  21.2  19.8  18.9  18.1  17.7  17.5   0.0   0.0
 2002 347   127  24.1  23.0  21.4  20.0  19.1  18.2  17.7  17.6   0.0   0.0
 2002 348   128  24.8  23.5  21.9  20.4  19.3  18.3  17.8  17.6   0.0   0.0
 2002 349   129  26.0  24.6  22.7  21.0  19.8  18.7  18.0  17.8   0.0   0.0
 2002 350   130  26.2  24.8  22.9  21.1  19.9  18.7  18.0  17.8   0.0   0.0
 2002 351   131  26.3  24.9  23.0  21.2  19.9  18.7  18.1  17.8   0.0   0.0
 2002 352   132  27.0  25.5  23.4  21.5  20.2  18.9  18.2  17.9   0.0   0.0
 2002 353   133  25.6  24.3  22.5  20.9  19.7  18.6  18.0  17.7   0.0   0.0
 2002 354   134  24.7  23.6  21.9  20.4  19.4  18.4  17.8  17.6   0.0   0.0
 2002 355   135  24.5  23.4  21.8  20.3  19.3  18.3  17.8  17.6   0.0   0.0
 2002 356   136  24.6  23.5  21.9  20.4  19.3  18.3  17.8  17.6   0.0   0.0
 2002 357   137  22.8  21.9  20.6  19.5  18.7  17.9  17.5  17.4   0.0   0.0
 2002 358   138  23.1  22.2  20.9  19.7  18.8  18.0  17.6  17.5   0.0   0.0
 2002 359   139  23.6  22.6  21.2  19.9  19.0  18.1  17.7  17.5   0.0   0.0
 2002 360   140  24.2  23.1  21.6  20.2  19.2  18.3  17.8  17.6   0.0   0.0
 2002 361   141  25.5  24.3  22.5  20.9  19.7  18.6  18.0  17.7   0.0   0.0
 2002 362   142  27.1  25.7  23.6  21.8  20.4  19.0  18.2  17.9   0.0   0.0
 2002 363   143  28.0  26.4  24.3  22.2  20.7  19.3  18.4  18.0   0.0   0.0
 2002 364   144  28.0  26.5  24.3  22.2  20.7  19.3  18.4  18.0   0.0   0.0
 2002 365   145  26.9  25.5  23.5  21.7  20.3  19.0  18.2  17.9   0.0   0.0
 2003 001   146  25.3  24.1  22.4  20.8  19.7  18.6  17.9  17.7   0.0   0.0
 2003 002   147  25.1  23.9  22.2  20.7  19.6  18.5  17.9  17.7   0.0   0.0
 2003 003   148  24.5  23.4  21.8  20.4  19.4  18.4  17.8  17.6   0.0   0.0
 2003 004   149  24.9  23.7  22.1  20.6  19.5  18.5  17.9  17.7   0.0   0.0
 2003 005   150  26.2  24.9  23.0  21.3  20.0  18.8  18.1  17.8   0.0   0.0
 2003 006   151  26.6  25.3  23.3  21.5  20.2  18.9  18.2  17.9   0.0   0.0
 2003 007   152  27.4  25.9  23.9  21.9  20.5  19.1  18.3  17.9   0.0   0.0
 2003 008   153  28.6  27.0  24.7  22.6  21.0  19.4  18.5  18.1   0.0   0.0
 2003 009   154  28.8  27.1  24.8  22.7  21.1  19.5  18.5  18.1   0.0   0.0
 2003 010   155  28.0  26.5  24.3  22.3  20.8  19.3  18.4  18.0   0.0   0.0
 2003 011   156  28.3  26.7  24.5  22.4  20.9  19.4  18.4  18.1   0.0   0.0
 2003 012   157  28.4  26.8  24.6  22.5  20.9  19.4  18.4  18.1   0.0   0.0
 2003 013   158  28.2  26.6  24.5  22.4  20.9  19.4  18.4  18.0   0.0   0.0

*DSSAT Cropping System Model Ver. 4.0.2.000               Aug 11, 2016; 14:44:11

*RUN   4        : UYMZ                    
 MODEL          : MZCER040 - Maize           
 EXPERIMENT     : UYMZ0135 MZ    late to create DSS                             
 TREATMENT  1   : UYMZ                    

@YEAR DOY   DAS  TS1D  TS2D  TS3D  TS4D  TS5D  TS6D  TS7D  TS8D  TS9D  TS10
 2003 220     0  15.0  15.2  15.7  16.2  16.7  17.2  17.5  17.6   0.0   0.0
 2003 221     1  13.9  14.3  14.9  15.6  16.2  16.9  17.3  17.4   0.0   0.0
 2003 222     2  12.6  13.2  14.1  15.0  15.7  16.6  17.1  17.3   0.0   0.0
 2003 223     3  12.0  12.6  13.6  14.7  15.5  16.4  17.0  17.2   0.0   0.0
 2003 224     4  12.3  12.9  13.8  14.8  15.6  16.4  17.0  17.2   0.0   0.0
 2003 225     5  13.1  13.6  14.3  15.2  15.9  16.6  17.1  17.3   0.0   0.0
 2003 226     6  13.9  14.2  14.8  15.5  16.1  16.8  17.2  17.4   0.0   0.0
 2003 227     7  14.7  14.9  15.4  15.9  16.4  17.0  17.3  17.5   0.0   0.0
 2003 228     8  14.8  15.0  15.4  16.0  16.4  17.0  17.3  17.5   0.0   0.0
 2003 229     9  14.3  14.6  15.1  15.7  16.3  16.9  17.3  17.4   0.0   0.0
 2003 230    10  14.5  14.8  15.2  15.8  16.3  16.9  17.3  17.4   0.0   0.0
 2003 231    11  16.1  16.1  16.3  16.6  16.9  17.3  17.5  17.6   0.0   0.0
 2003 232    12  18.1  17.9  17.7  17.6  17.7  17.8  17.8  17.8   0.0   0.0
 2003 233    13  21.0  20.3  19.6  19.0  18.7  18.5  18.3  18.1   0.0   0.0
 2003 234    14  20.6  20.0  19.3  18.8  18.6  18.4  18.2  18.1   0.0   0.0
 2003 235    15  18.7  18.4  18.0  17.9  17.8  17.9  17.9  17.9   0.0   0.0
 2003 236    16  16.5  16.5  16.5  16.7  17.0  17.3  17.5  17.6   0.0   0.0
 2003 237    17  13.7  14.0  14.6  15.2  15.8  16.6  17.0  17.3   0.0   0.0
 2003 238    18  10.3  11.0  12.2  13.4  14.5  15.7  16.5  16.9   0.0   0.0
 2003 239    19   9.4  10.3  11.6  13.0  14.1  15.4  16.3  16.7   0.0   0.0
 2003 240    20   9.8  10.6  11.9  13.2  14.3  15.5  16.4  16.8   0.0   0.0
 2003 241    21  10.0  10.7  12.0  13.3  14.3  15.5  16.4  16.8   0.0   0.0
 2003 242    22  10.7  11.4  12.4  13.6  14.6  15.7  16.5  16.9   0.0   0.0
 2003 243    23  11.4  12.0  12.9  14.0  14.9  15.9  16.6  16.9   0.0   0.0
 2003 244    24  13.2  13.5  14.1  14.9  15.5  16.3  16.9  17.1   0.0   0.0
 2003 245    25  14.6  14.7  15.1  15.6  16.0  16.6  17.1  17.3   0.0   0.0
 2003 246    26  16.7  16.5  16.5  16.6  16.8  17.2  17.4  17.5   0.0   0.0
 2003 247    27  18.2  17.9  17.6  17.4  17.4  17.5  17.6  17.7   0.0   0.0
 2003 248    28  20.1  19.5  18.8  18.4  18.1  18.0  17.9  17.9   0.0   0.0
 2003 249    29  22.5  21.6  20.5  19.6  19.1  18.6  18.3  18.2   0.0   0.0
 2003 250    30  23.1  22.1  20.8  19.9  19.2  18.7  18.4  18.2   0.0   0.0
 2003 251    31  21.5  20.7  19.8  19.0  18.6  18.3  18.1  18.0   0.0   0.0
 2003 252    32  20.0  19.4  18.7  18.2  18.0  17.9  17.9  17.8   0.0   0.0
 2003 253    33  17.9  17.6  17.3  17.2  17.2  17.4  17.5  17.6   0.0   0.0
 2003 254    34  15.2  15.2  15.4  15.8  16.1  16.7  17.1  17.3   0.0   0.0
 2003 255    35  14.9  15.0  15.2  15.6  16.0  16.6  17.0  17.2   0.0   0.0
 2003 256    36  14.9  14.9  15.2  15.6  16.0  16.5  17.0  17.2   0.0   0.0
 2003 257    37  14.9  15.0  15.2  15.5  16.0  16.5  17.0  17.2   0.0   0.0
 2003 258    38  15.1  15.1  15.3  15.6  16.0  16.6  17.0  17.2   0.0   0.0
 2003 259    39  14.8  14.8  15.1  15.5  15.9  16.5  16.9  17.2   0.0   0.0
 2003 260    40  14.0  14.1  14.5  15.0  15.6  16.2  16.8  17.1   0.0   0.0
 2003 261    41  15.0  15.1  15.2  15.6  16.0  16.5  17.0  17.2   0.0   0.0
 2003 262    42  16.7  16.5  16.4  16.4  16.6  16.9  17.2  17.4   0.0   0.0
 2003 263    43  17.4  17.1  16.8  16.8  16.8  17.1  17.3  17.4   0.0   0.0
 2003 264    44  18.4  18.0  17.5  17.3  17.2  17.3  17.5  17.5   0.0   0.0
 2003 265    45  19.8  19.2  18.4  18.0  17.7  17.6  17.7  17.7   0.0   0.0
 2003 266    46  19.7  19.1  18.4  17.9  17.7  17.6  17.6  17.7   0.0   0.0
 2003 267    47  19.1  18.6  18.0  17.6  17.5  17.4  17.5  17.6   0.0   0.0
 2003 268    48  19.1  18.5  17.9  17.5  17.4  17.4  17.5  17.6   0.0   0.0
 2003 269    49  18.6  18.1  17.6  17.3  17.2  17.3  17.4  17.5   0.0   0.0
 2003 270    50  18.4  18.0  17.5  17.2  17.1  17.2  17.4  17.5   0.0   0.0
 2003 271    51  17.7  17.3  17.0  16.8  16.8  17.0  17.3  17.4   0.0   0.0
 2003 272    52  17.4  17.0  16.7  16.6  16.7  16.9  17.2  17.3   0.0   0.0
 2003 273    53  17.9  17.5  17.1  16.9  16.9  17.1  17.3  17.4   0.0   0.0
 2003 274    54  19.3  18.7  18.1  17.6  17.4  17.4  17.5  17.5   0.0   0.0
 2003 275    55  19.3  18.7  18.1  17.6  17.4  17.4  17.5  17.5   0.0   0.0
 2003 276    56  20.0  19.3  18.5  18.0  17.7  17.5  17.6  17.6   0.0   0.0
 2003 277    57  20.4  19.7  18.8  18.1  17.8  17.6  17.6  17.6   0.0   0.0
 2003 278    58  20.6  19.9  18.9  18.3  17.9  17.7  17.6  17.6   0.0   0.0
 2003 279    59  19.8  19.1  18.3  17.8  17.5  17.4  17.5  17.5   0.0   0.0
 2003 280    60  20.0  19.3  18.5  17.9  17.6  17.5  17.5  17.6   0.0   0.0
 2003 281    61  21.0  20.2  19.2  18.4  18.0  17.7  17.7  17.7   0.0   0.0
 2003 282    62  21.8  20.9  19.7  18.8  18.3  17.9  17.8  17.7   0.0   0.0
 2003 283    63  20.2  19.5  18.6  18.0  17.7  17.5  17.5  17.5   0.0   0.0
 2003 284    64  19.2  18.6  17.9  17.5  17.3  17.2  17.3  17.4   0.0   0.0
 2003 285    65  17.8  17.4  17.0  16.7  16.7  16.9  17.1  17.2   0.0   0.0
 2003 286    66  16.8  16.5  16.2  16.2  16.3  16.6  16.9  17.1   0.0   0.0
 2003 287    67  16.9  16.6  16.3  16.2  16.3  16.6  16.9  17.1   0.0   0.0
 2003 288    68  19.2  18.6  17.9  17.4  17.2  17.2  17.3  17.4   0.0   0.0
 2003 289    69  22.0  21.1  19.8  18.9  18.3  17.9  17.7  17.7   0.0   0.0
 2003 290    70  24.6  23.3  21.6  20.2  19.3  18.5  18.1  18.0   0.0   0.0
 2003 291    71  26.9  25.3  23.2  21.4  20.2  19.1  18.5  18.2   0.0   0.0
 2003 292    72  27.0  25.4  23.2  21.4  20.2  19.1  18.5  18.2   0.0   0.0
 2003 293    73  25.9  24.4  22.5  20.8  19.8  18.8  18.3  18.1   0.0   0.0
 2003 294    74  24.6  23.3  21.6  20.2  19.2  18.5  18.1  17.9   0.0   0.0
 2003 295    75  23.5  22.3  20.8  19.6  18.8  18.2  17.9  17.8   0.0   0.0
 2003 296    76  22.6  21.6  20.2  19.1  18.5  18.0  17.8  17.7   0.0   0.0
 2003 297    77  23.8  22.6  21.1  19.8  18.9  18.3  17.9  17.8   0.0   0.0
 2003 298    78  24.8  23.4  21.7  20.2  19.3  18.5  18.1  17.9   0.0   0.0
 2003 299    79  25.2  23.8  22.0  20.5  19.5  18.6  18.1  18.0   0.0   0.0
 2003 300    80  24.7  23.4  21.6  20.2  19.3  18.5  18.0  17.9   0.0   0.0
 2003 301    81  24.1  22.8  21.2  19.9  19.0  18.3  17.9  17.8   0.0   0.0
 2003 302    82  23.2  22.0  20.6  19.4  18.6  18.0  17.8  17.7   0.0   0.0
 2003 303    83  24.3  23.0  21.3  20.0  19.1  18.3  18.0  17.8   0.0   0.0
 2003 304    84  23.2  22.1  20.6  19.4  18.6  18.0  17.8  17.7   0.0   0.0
 2003 305    85  22.8  21.7  20.3  19.2  18.5  17.9  17.7  17.6   0.0   0.0
 2003 306    86  22.1  21.1  19.8  18.8  18.2  17.7  17.6  17.5   0.0   0.0
 2003 307    87  21.1  20.3  19.2  18.3  17.8  17.5  17.4  17.4   0.0   0.0
 2003 308    88  19.4  18.8  18.0  17.5  17.2  17.1  17.1  17.2   0.0   0.0
 2003 309    89  20.3  19.6  18.6  17.9  17.5  17.3  17.3  17.3   0.0   0.0
 2003 310    90  21.7  20.8  19.6  18.6  18.0  17.6  17.5  17.5   0.0   0.0
 2003 311    91  23.2  22.0  20.6  19.4  18.6  18.0  17.7  17.6   0.0   0.0
 2003 312    92  24.6  23.3  21.6  20.1  19.1  18.3  17.9  17.8   0.0   0.0
 2003 313    93  25.9  24.4  22.4  20.7  19.6  18.6  18.1  17.9   0.0   0.0
 2003 314    94  27.0  25.3  23.2  21.3  20.0  18.9  18.3  18.0   0.0   0.0
 2003 315    95  28.3  26.4  24.0  21.9  20.5  19.2  18.5  18.2   0.0   0.0
 2003 316    96  27.0  25.4  23.2  21.4  20.1  18.9  18.3  18.0   0.0   0.0
 2003 317    97  25.3  23.9  22.1  20.5  19.4  18.5  18.0  17.8   0.0   0.0
 2003 318    98  24.1  22.9  21.3  19.9  19.0  18.2  17.8  17.7   0.0   0.0
 2003 319    99  23.8  22.6  21.0  19.7  18.8  18.1  17.8  17.7   0.0   0.0
 2003 320   100  21.7  20.8  19.7  18.7  18.0  17.6  17.4  17.4   0.0   0.0
 2003 321   101  22.6  21.6  20.2  19.1  18.4  17.8  17.6  17.5   0.0   0.0
 2003 322   102  22.4  21.4  20.1  19.0  18.3  17.7  17.5  17.5   0.0   0.0
 2003 323   103  22.8  21.8  20.4  19.2  18.5  17.9  17.6  17.5   0.0   0.0
 2003 324   104  21.4  20.5  19.4  18.5  17.9  17.5  17.3  17.3   0.0   0.0
 2003 325   105  22.0  21.1  19.9  18.8  18.2  17.6  17.4  17.4   0.0   0.0
 2003 326   106  23.4  22.3  20.8  19.5  18.7  18.0  17.7  17.6   0.0   0.0
 2003 327   107  26.4  24.9  22.8  21.1  19.8  18.7  18.1  17.9   0.0   0.0
 2003 328   108  25.5  24.1  22.3  20.6  19.5  18.5  18.0  17.8   0.0   0.0
 2003 329   109  26.7  25.1  23.1  21.2  20.0  18.8  18.2  17.9   0.0   0.0
 2003 330   110  27.2  25.6  23.4  21.5  20.2  18.9  18.3  18.0   0.0   0.0
 2003 331   111  26.6  25.1  23.1  21.2  20.0  18.8  18.2  17.9   0.0   0.0
 2003 332   112  25.2  23.9  22.1  20.5  19.4  18.4  17.9  17.8   0.0   0.0
 2003 333   113  26.9  25.3  23.2  21.4  20.1  18.9  18.2  17.9   0.0   0.0
 2003 334   114  26.0  24.6  22.6  20.9  19.7  18.6  18.0  17.8   0.0   0.0
 2003 335   115  25.6  24.2  22.3  20.7  19.6  18.5  18.0  17.8   0.0   0.0
 2003 336   116  24.8  23.5  21.8  20.3  19.2  18.3  17.8  17.7   0.0   0.0
 2003 337   117  25.1  23.8  22.0  20.5  19.4  18.4  17.9  17.7   0.0   0.0
 2003 338   118  24.7  23.4  21.7  20.2  19.2  18.3  17.8  17.7   0.0   0.0
 2003 339   119  25.3  23.9  22.1  20.6  19.5  18.4  17.9  17.7   0.0   0.0
 2003 340   120  25.2  23.9  22.1  20.5  19.4  18.4  17.9  17.7   0.0   0.0
 2003 341   121  25.4  24.0  22.2  20.6  19.5  18.5  17.9  17.7   0.0   0.0
 2003 342   122  24.3  23.1  21.5  20.1  19.1  18.2  17.8  17.6   0.0   0.0
 2003 343   123  23.5  22.5  21.0  19.7  18.8  18.0  17.6  17.5   0.0   0.0
 2003 344   124  23.9  22.8  21.3  19.9  18.9  18.1  17.7  17.6   0.0   0.0
 2003 345   125  23.9  22.8  21.3  19.9  19.0  18.1  17.7  17.6   0.0   0.0
 2003 346   126  23.6  22.5  21.0  19.7  18.8  18.0  17.6  17.5   0.0   0.0
 2003 347   127  23.8  22.7  21.2  19.8  18.9  18.1  17.7  17.5   0.0   0.0
 2003 348   128  24.7  23.5  21.8  20.3  19.3  18.3  17.8  17.6   0.0   0.0
 2003 349   129  23.8  22.7  21.2  19.9  18.9  18.1  17.7  17.5   0.0   0.0
 2003 350   130  23.0  22.1  20.7  19.5  18.7  17.9  17.6  17.5   0.0   0.0
 2003 351   131  23.1  22.1  20.7  19.5  18.7  17.9  17.6  17.5   0.0   0.0
 2003 352   132  23.6  22.6  21.1  19.8  18.9  18.1  17.6  17.5   0.0   0.0
 2003 353   133  23.8  22.8  21.3  19.9  19.0  18.1  17.7  17.5   0.0   0.0
 2003 354   134  24.1  23.0  21.5  20.1  19.1  18.2  17.7  17.6   0.0   0.0
 2003 355   135  25.6  24.3  22.5  20.9  19.7  18.6  18.0  17.7   0.0   0.0
 2003 356   136  25.5  24.2  22.5  20.9  19.7  18.6  18.0  17.7   0.0   0.0
 2003 357   137  24.9  23.8  22.1  20.6  19.5  18.5  17.9  17.7   0.0   0.0
 2003 358   138  24.4  23.3  21.7  20.3  19.3  18.3  17.8  17.6   0.0   0.0
 2003 359   139  25.3  24.1  22.4  20.8  19.6  18.5  17.9  17.7   0.0   0.0
 2003 360   140  25.3  24.1  22.4  20.8  19.6  18.5  17.9  17.7   0.0   0.0
 2003 361   141  25.8  24.5  22.7  21.0  19.8  18.7  18.0  17.8   0.0   0.0
 2003 362   142  25.5  24.2  22.5  20.9  19.7  18.6  18.0  17.7   0.0   0.0
 2003 363   143  25.3  24.1  22.4  20.8  19.7  18.6  17.9  17.7   0.0   0.0
 2003 364   144  24.9  23.8  22.2  20.7  19.6  18.5  17.9  17.7   0.0   0.0
 2003 365   145  23.8  22.8  21.4  20.1  19.1  18.2  17.7  17.5   0.0   0.0
 2004 001   146  24.1  23.1  21.6  20.2  19.2  18.3  17.7  17.6   0.0   0.0
 2004 002   147  25.1  23.9  22.2  20.7  19.6  18.5  17.9  17.7   0.0   0.0
 2004 003   148  26.2  24.9  23.0  21.3  20.0  18.8  18.1  17.8   0.0   0.0
 2004 004   149  26.7  25.3  23.3  21.5  20.2  18.9  18.2  17.9   0.0   0.0
 2004 005   150  28.3  26.7  24.4  22.4  20.8  19.3  18.4  18.0   0.0   0.0
 2004 006   151  29.5  27.7  25.3  23.0  21.3  19.6  18.6  18.2   0.0   0.0
 2004 007   152  30.3  28.4  25.8  23.4  21.6  19.8  18.7  18.3   0.0   0.0
 2004 008   153  30.5  28.7  26.0  23.5  21.7  19.9  18.8  18.3   0.0   0.0
 2004 009   154  30.7  28.8  26.1  23.6  21.8  19.9  18.8  18.3   0.0   0.0
 2004 010   155  30.4  28.6  25.9  23.5  21.7  19.9  18.7  18.3   0.0   0.0
 2004 011   156  29.3  27.6  25.2  22.9  21.3  19.6  18.6  18.1   0.0   0.0
 2004 012   157  28.3  26.8  24.5  22.4  20.9  19.4  18.4  18.0   0.0   0.0
 2004 013   158  27.6  26.2  24.1  22.1  20.7  19.2  18.3  18.0   0.0   0.0
 2004 014   159  27.3  25.9  23.9  22.0  20.5  19.1  18.3  17.9   0.0   0.0
 2004 015   160  26.5  25.2  23.3  21.6  20.3  18.9  18.2  17.9   0.0   0.0
 2004 016   161  26.4  25.1  23.3  21.5  20.2  18.9  18.2  17.8   0.0   0.0
 2004 017   162  26.4  25.1  23.3  21.5  20.2  18.9  18.2  17.8   0.0   0.0
 2004 018   163  26.2  24.9  23.1  21.4  20.2  18.9  18.1  17.8   0.0   0.0
 2004 019   164  25.1  24.0  22.4  20.9  19.8  18.6  18.0  17.7   0.0   0.0
 2004 020   165  25.2  24.1  22.5  21.0  19.8  18.7  18.0  17.7   0.0   0.0
 2004 021   166  25.6  24.4  22.8  21.2  20.0  18.8  18.1  17.8   0.0   0.0
 2004 022   167  26.2  25.0  23.2  21.5  20.2  19.0  18.2  17.8   0.0   0.0
 2004 023   168  26.7  25.4  23.6  21.8  20.5  19.1  18.3  17.9   0.0   0.0
 2004 024   169  28.0  26.5  24.5  22.5  21.0  19.4  18.5  18.1   0.0   0.0

*DSSAT Cropping System Model Ver. 4.0.2.000               Aug 11, 2016; 14:44:11

*RUN   5        : UYMZ                    
 MODEL          : MZCER040 - Maize           
 EXPERIMENT     : UYMZ0135 MZ    late to create DSS                             
 TREATMENT  1   : UYMZ                    

@YEAR DOY   DAS  TS1D  TS2D  TS3D  TS4D  TS5D  TS6D  TS7D  TS8D  TS9D  TS10
 2004 220     0   8.8   9.9  11.5  13.1  14.3  15.7  16.5  16.9   0.0   0.0
 2004 221     1   8.8   9.9  11.5  13.0  14.3  15.6  16.5  16.9   0.0   0.0
 2004 222     2   9.6  10.6  12.0  13.5  14.6  15.8  16.6  16.9   0.0   0.0
 2004 223     3  10.9  11.7  12.8  14.1  15.1  16.1  16.8  17.1   0.0   0.0
 2004 224     4  12.0  12.7  13.6  14.6  15.5  16.4  16.9  17.2   0.0   0.0
 2004 225     5  14.3  14.6  15.2  15.8  16.3  16.9  17.3  17.4   0.0   0.0
 2004 226     6  16.8  16.8  16.9  17.1  17.3  17.5  17.7  17.7   0.0   0.0
 2004 227     7  18.7  18.4  18.1  18.0  18.0  18.0  18.0  17.9   0.0   0.0
 2004 228     8  19.9  19.4  18.9  18.6  18.4  18.3  18.1  18.0   0.0   0.0
 2004 229     9  20.4  19.9  19.3  18.8  18.6  18.4  18.2  18.1   0.0   0.0
 2004 230    10  20.0  19.5  19.0  18.6  18.4  18.3  18.1  18.0   0.0   0.0
 2004 231    11  18.6  18.3  18.0  17.9  17.8  17.9  17.9  17.9   0.0   0.0
 2004 232    12  16.9  16.8  16.8  17.0  17.2  17.5  17.6  17.7   0.0   0.0
 2004 233    13  15.3  15.4  15.7  16.1  16.5  17.0  17.4  17.5   0.0   0.0
 2004 234    14  13.5  13.8  14.5  15.2  15.8  16.6  17.1  17.3   0.0   0.0
 2004 235    15  11.5  12.1  13.1  14.2  15.0  16.0  16.7  17.0   0.0   0.0
 2004 236    16  11.1  11.7  12.8  13.9  14.9  15.9  16.6  17.0   0.0   0.0
 2004 237    17  11.6  12.2  13.1  14.2  15.0  16.0  16.7  17.0   0.0   0.0
 2004 238    18  12.1  12.7  13.5  14.4  15.2  16.2  16.8  17.1   0.0   0.0
 2004 239    19  13.6  14.0  14.5  15.2  15.8  16.5  17.0  17.2   0.0   0.0
 2004 240    20  15.6  15.6  15.8  16.2  16.5  17.0  17.3  17.5   0.0   0.0
 2004 241    21  16.9  16.7  16.7  16.8  17.0  17.3  17.5  17.6   0.0   0.0
 2004 242    22  17.8  17.6  17.3  17.3  17.4  17.5  17.6  17.7   0.0   0.0
 2004 243    23  18.7  18.3  17.9  17.7  17.7  17.7  17.8  17.8   0.0   0.0
 2004 244    24  20.2  19.6  18.9  18.5  18.2  18.1  18.0  17.9   0.0   0.0
 2004 245    25  21.9  21.1  20.1  19.3  18.9  18.5  18.3  18.1   0.0   0.0
 2004 246    26  21.7  20.9  19.9  19.2  18.8  18.4  18.2  18.1   0.0   0.0
 2004 247    27  21.1  20.4  19.5  18.9  18.5  18.3  18.1  18.0   0.0   0.0
 2004 248    28  21.8  21.0  20.0  19.2  18.8  18.4  18.2  18.1   0.0   0.0
 2004 249    29  22.8  21.8  20.6  19.7  19.1  18.6  18.3  18.2   0.0   0.0
 2004 250    30  23.7  22.6  21.3  20.2  19.5  18.9  18.5  18.3   0.0   0.0
 2004 251    31  24.3  23.1  21.7  20.5  19.7  19.0  18.6  18.3   0.0   0.0
 2004 252    32  22.8  21.8  20.6  19.7  19.1  18.6  18.3  18.2   0.0   0.0
 2004 253    33  20.3  19.7  18.9  18.4  18.1  18.0  17.9  17.9   0.0   0.0
 2004 254    34  17.2  17.0  16.8  16.8  16.9  17.2  17.4  17.5   0.0   0.0
 2004 255    35  13.8  14.0  14.4  15.0  15.6  16.3  16.8  17.1   0.0   0.0
 2004 256    36  12.4  12.8  13.5  14.3  15.0  15.9  16.6  16.9   0.0   0.0
 2004 257    37  13.2  13.4  14.0  14.6  15.3  16.1  16.7  17.0   0.0   0.0
 2004 258    38  14.4  14.6  14.8  15.3  15.8  16.4  16.9  17.1   0.0   0.0
 2004 259    39  15.2  15.2  15.3  15.6  16.0  16.6  17.0  17.2   0.0   0.0
 2004 260    40  15.6  15.6  15.6  15.9  16.2  16.7  17.1  17.3   0.0   0.0
 2004 261    41  16.7  16.5  16.3  16.4  16.6  16.9  17.2  17.4   0.0   0.0
 2004 262    42  18.7  18.2  17.7  17.4  17.3  17.4  17.5  17.6   0.0   0.0
 2004 263    43  19.4  18.8  18.2  17.8  17.6  17.6  17.6  17.7   0.0   0.0
 2004 264    44  19.0  18.5  17.9  17.6  17.4  17.5  17.5  17.6   0.0   0.0
 2004 265    45  18.8  18.3  17.8  17.5  17.4  17.4  17.5  17.6   0.0   0.0
 2004 266    46  18.7  18.2  17.7  17.4  17.3  17.4  17.5  17.5   0.0   0.0
 2004 267    47  17.7  17.4  17.0  16.9  16.9  17.1  17.3  17.4   0.0   0.0
 2004 268    48  17.8  17.4  17.1  16.9  16.9  17.1  17.3  17.4   0.0   0.0
 2004 269    49  19.5  18.9  18.2  17.8  17.6  17.5  17.6  17.6   0.0   0.0
 2004 270    50  21.0  20.2  19.2  18.5  18.1  17.9  17.8  17.8   0.0   0.0
 2004 271    51  21.4  20.5  19.5  18.7  18.3  18.0  17.8  17.8   0.0   0.0
 2004 272    52  21.4  20.5  19.5  18.7  18.2  17.9  17.8  17.8   0.0   0.0
 2004 273    53  20.3  19.6  18.7  18.1  17.8  17.7  17.6  17.7   0.0   0.0
 2004 274    54  18.5  18.1  17.5  17.2  17.1  17.2  17.4  17.4   0.0   0.0
 2004 275    55  18.3  17.9  17.4  17.1  17.0  17.1  17.3  17.4   0.0   0.0
 2004 276    56  18.6  18.1  17.6  17.2  17.1  17.2  17.3  17.4   0.0   0.0
 2004 277    57  17.7  17.3  16.9  16.8  16.8  17.0  17.2  17.3   0.0   0.0
 2004 278    58  17.7  17.3  16.9  16.7  16.8  16.9  17.2  17.3   0.0   0.0
 2004 279    59  18.6  18.1  17.6  17.2  17.1  17.2  17.3  17.4   0.0   0.0
 2004 280    60  18.1  17.6  17.2  16.9  16.9  17.0  17.2  17.3   0.0   0.0
 2004 281    61  18.0  17.6  17.1  16.9  16.8  17.0  17.2  17.3   0.0   0.0
 2004 282    62  19.5  18.9  18.1  17.6  17.4  17.3  17.4  17.5   0.0   0.0
 2004 283    63  20.8  20.0  19.0  18.3  17.9  17.7  17.6  17.6   0.0   0.0
 2004 284    64  21.2  20.3  19.3  18.5  18.0  17.7  17.7  17.6   0.0   0.0
 2004 285    65  21.7  20.8  19.6  18.7  18.2  17.9  17.7  17.7   0.0   0.0
 2004 286    66  20.7  19.9  18.9  18.2  17.8  17.6  17.6  17.6   0.0   0.0
 2004 287    67  19.8  19.2  18.3  17.8  17.5  17.4  17.4  17.5   0.0   0.0
 2004 288    68  19.3  18.7  18.0  17.5  17.3  17.2  17.3  17.4   0.0   0.0
 2004 289    69  20.3  19.6  18.6  18.0  17.6  17.5  17.5  17.5   0.0   0.0
 2004 290    70  20.2  19.5  18.6  17.9  17.6  17.4  17.4  17.5   0.0   0.0
 2004 291    71  21.7  20.8  19.6  18.7  18.2  17.8  17.7  17.6   0.0   0.0
 2004 292    72  22.2  21.2  20.0  19.0  18.4  17.9  17.7  17.7   0.0   0.0
 2004 293    73  22.1  21.1  19.9  18.9  18.3  17.9  17.7  17.7   0.0   0.0
 2004 294    74  21.0  20.1  19.1  18.3  17.8  17.6  17.5  17.5   0.0   0.0
 2004 295    75  21.4  20.5  19.4  18.5  18.0  17.7  17.6  17.6   0.0   0.0
 2004 296    76  22.0  21.0  19.8  18.8  18.2  17.8  17.7  17.6   0.0   0.0
 2004 297    77  21.7  20.7  19.6  18.6  18.1  17.7  17.6  17.6   0.0   0.0
 2004 298    78  21.4  20.5  19.4  18.5  18.0  17.6  17.5  17.5   0.0   0.0
 2004 299    79  21.6  20.7  19.5  18.6  18.0  17.7  17.6  17.5   0.0   0.0
 2004 300    80  21.2  20.4  19.3  18.4  17.9  17.6  17.5  17.5   0.0   0.0
 2004 301    81  19.5  18.9  18.1  17.5  17.2  17.1  17.2  17.3   0.0   0.0
 2004 302    82  20.5  19.7  18.7  18.0  17.6  17.4  17.4  17.4   0.0   0.0
 2004 303    83  22.3  21.3  20.0  18.9  18.3  17.8  17.6  17.6   0.0   0.0
 2004 304    84  22.0  21.1  19.8  18.8  18.2  17.7  17.6  17.6   0.0   0.0
 2004 305    85  22.3  21.3  20.0  18.9  18.3  17.8  17.6  17.6   0.0   0.0
 2004 306    86  23.7  22.5  21.0  19.7  18.8  18.2  17.8  17.7   0.0   0.0
 2004 307    87  24.7  23.4  21.6  20.2  19.2  18.4  18.0  17.8   0.0   0.0
 2004 308    88  23.4  22.3  20.8  19.5  18.7  18.1  17.8  17.7   0.0   0.0
 2004 309    89  23.6  22.5  20.9  19.6  18.8  18.1  17.8  17.7   0.0   0.0
 2004 310    90  22.4  21.4  20.1  19.0  18.3  17.8  17.6  17.6   0.0   0.0
 2004 311    91  20.9  20.1  19.0  18.2  17.7  17.4  17.3  17.4   0.0   0.0
 2004 312    92  19.2  18.6  17.9  17.4  17.1  17.0  17.1  17.2   0.0   0.0
 2004 313    93  19.5  18.9  18.1  17.5  17.2  17.0  17.1  17.2   0.0   0.0
 2004 314    94  19.2  18.6  17.9  17.3  17.1  17.0  17.0  17.1   0.0   0.0
 2004 315    95  19.9  19.2  18.3  17.7  17.3  17.1  17.1  17.2   0.0   0.0
 2004 316    96  20.0  19.3  18.4  17.8  17.4  17.1  17.2  17.2   0.0   0.0
 2004 317    97  19.7  19.1  18.3  17.6  17.3  17.1  17.1  17.2   0.0   0.0
 2004 318    98  19.1  18.5  17.8  17.3  17.0  16.9  17.0  17.1   0.0   0.0
 2004 319    99  19.5  18.9  18.1  17.5  17.2  17.0  17.1  17.2   0.0   0.0
 2004 320   100  20.4  19.7  18.7  18.0  17.5  17.2  17.2  17.3   0.0   0.0
 2004 321   101  21.2  20.4  19.3  18.4  17.9  17.4  17.3  17.3   0.0   0.0
 2004 322   102  22.0  21.0  19.8  18.8  18.1  17.6  17.5  17.4   0.0   0.0
 2004 323   103  22.4  21.4  20.1  19.0  18.3  17.7  17.5  17.5   0.0   0.0
 2004 324   104  22.2  21.3  20.0  18.9  18.2  17.7  17.5  17.4   0.0   0.0
 2004 325   105  21.5  20.6  19.5  18.6  18.0  17.5  17.4  17.4   0.0   0.0
 2004 326   106  21.7  20.8  19.6  18.6  18.0  17.5  17.4  17.4   0.0   0.0
 2004 327   107  22.3  21.4  20.1  19.0  18.3  17.7  17.5  17.4   0.0   0.0
 2004 328   108  24.1  22.9  21.3  19.9  19.0  18.2  17.8  17.6   0.0   0.0
 2004 329   109  25.0  23.7  21.9  20.3  19.3  18.4  17.9  17.7   0.0   0.0
 2004 330   110  25.4  24.1  22.2  20.6  19.5  18.5  18.0  17.8   0.0   0.0
 2004 331   111  25.8  24.4  22.4  20.8  19.6  18.6  18.0  17.8   0.0   0.0
 2004 332   112  25.5  24.1  22.2  20.6  19.5  18.5  18.0  17.8   0.0   0.0
 2004 333   113  24.4  23.1  21.5  20.0  19.0  18.2  17.8  17.6   0.0   0.0
 2004 334   114  24.6  23.4  21.7  20.2  19.2  18.3  17.8  17.7   0.0   0.0
 2004 335   115  25.1  23.7  21.9  20.4  19.3  18.4  17.9  17.7   0.0   0.0
 2004 336   116  25.6  24.2  22.3  20.7  19.5  18.5  18.0  17.8   0.0   0.0
 2004 337   117  27.1  25.5  23.4  21.5  20.1  18.9  18.2  17.9   0.0   0.0
 2004 338   118  28.3  26.5  24.2  22.1  20.6  19.2  18.4  18.1   0.0   0.0
 2004 339   119  28.5  26.8  24.4  22.2  20.7  19.2  18.4  18.1   0.0   0.0
 2004 340   120  29.4  27.5  25.0  22.6  21.0  19.4  18.5  18.2   0.0   0.0
 2004 341   121  29.2  27.3  24.8  22.5  20.9  19.4  18.5  18.2   0.0   0.0
 2004 342   122  27.6  25.9  23.7  21.7  20.3  19.0  18.3  18.0   0.0   0.0
 2004 343   123  26.6  25.1  23.1  21.2  19.9  18.8  18.1  17.9   0.0   0.0
 2004 344   124  26.0  24.6  22.7  21.0  19.7  18.6  18.0  17.8   0.0   0.0
 2004 345   125  25.1  23.8  22.1  20.5  19.4  18.4  17.9  17.7   0.0   0.0
 2004 346   126  24.6  23.3  21.7  20.2  19.2  18.2  17.8  17.6   0.0   0.0
 2004 347   127  25.2  23.9  22.1  20.5  19.4  18.4  17.9  17.7   0.0   0.0
 2004 348   128  25.8  24.4  22.5  20.8  19.6  18.5  18.0  17.7   0.0   0.0
 2004 349   129  26.6  25.1  23.1  21.3  20.0  18.7  18.1  17.8   0.0   0.0
 2004 350   130  27.7  26.1  23.9  21.8  20.4  19.0  18.3  18.0   0.0   0.0
 2004 351   131  28.2  26.5  24.2  22.1  20.6  19.2  18.4  18.0   0.0   0.0
 2004 352   132  27.7  26.1  23.9  21.9  20.4  19.1  18.3  18.0   0.0   0.0
 2004 353   133  27.3  25.8  23.6  21.7  20.3  19.0  18.2  17.9   0.0   0.0
 2004 354   134  26.6  25.2  23.2  21.3  20.0  18.8  18.1  17.8   0.0   0.0
 2004 355   135  25.5  24.2  22.4  20.8  19.6  18.5  17.9  17.7   0.0   0.0
 2004 356   136  25.2  23.9  22.2  20.6  19.5  18.4  17.9  17.7   0.0   0.0
 2004 357   137  25.3  24.1  22.3  20.7  19.6  18.5  17.9  17.7   0.0   0.0
 2004 358   138  24.9  23.7  22.0  20.5  19.4  18.4  17.8  17.6   0.0   0.0
 2004 359   139  25.2  24.0  22.3  20.7  19.5  18.5  17.9  17.7   0.0   0.0
 2004 360   140  25.5  24.2  22.5  20.8  19.7  18.6  17.9  17.7   0.0   0.0
 2004 361   141  25.6  24.4  22.6  20.9  19.7  18.6  18.0  17.7   0.0   0.0
 2004 362   142  25.8  24.5  22.7  21.0  19.8  18.6  18.0  17.7   0.0   0.0
 2004 363   143  26.3  25.0  23.0  21.3  20.0  18.8  18.1  17.8   0.0   0.0
 2004 364   144  26.3  24.9  23.0  21.3  20.0  18.7  18.1  17.8   0.0   0.0
 2004 365   145  26.8  25.4  23.4  21.6  20.2  18.9  18.2  17.9   0.0   0.0
 2004 366   146  28.0  26.4  24.2  22.2  20.7  19.2  18.3  18.0   0.0   0.0
 2005 001   147  28.6  26.9  24.6  22.4  20.9  19.3  18.4  18.1   0.0   0.0
 2005 002   148  29.1  27.4  24.9  22.7  21.0  19.4  18.5  18.1   0.0   0.0
 2005 003   149  29.5  27.7  25.2  22.9  21.2  19.5  18.5  18.1   0.0   0.0
 2005 004   150  29.9  28.0  25.5  23.2  21.4  19.7  18.7  18.2   0.0   0.0
 2005 005   151  30.1  28.2  25.7  23.3  21.5  19.7  18.7  18.2   0.0   0.0
 2005 006   152  31.0  29.0  26.3  23.7  21.9  20.0  18.8  18.3   0.0   0.0
 2005 007   153  31.9  29.8  26.9  24.2  22.2  20.2  19.0  18.4   0.0   0.0
 2005 008   154  32.9  30.7  27.6  24.7  22.6  20.4  19.1  18.5   0.0   0.0
 2005 009   155  32.1  30.0  27.1  24.4  22.3  20.3  19.0  18.5   0.0   0.0
 2005 010   156  31.6  29.5  26.7  24.1  22.1  20.1  18.9  18.4   0.0   0.0
 2005 011   157  31.1  29.1  26.4  23.8  21.9  20.0  18.8  18.3   0.0   0.0
 2005 012   158  30.7  28.8  26.2  23.7  21.8  19.9  18.8  18.3   0.0   0.0
 2005 013   159  30.3  28.4  25.9  23.4  21.6  19.8  18.7  18.2   0.0   0.0
 2005 014   160  31.7  29.7  26.8  24.1  22.2  20.2  18.9  18.4   0.0   0.0
 2005 015   161  31.5  29.5  26.7  24.1  22.1  20.2  18.9  18.4   0.0   0.0
 2005 016   162  30.9  29.0  26.3  23.8  21.9  20.0  18.8  18.3   0.0   0.0
 2005 017   163  30.6  28.7  26.1  23.6  21.8  19.9  18.8  18.3   0.0   0.0
 2005 018   164  30.5  28.7  26.1  23.6  21.8  19.9  18.8  18.3   0.0   0.0
 2005 019   165  30.0  28.2  25.7  23.4  21.6  19.8  18.7  18.2   0.0   0.0

*DSSAT Cropping System Model Ver. 4.0.2.000               Aug 11, 2016; 14:44:11

*RUN   6        : UYMZ                    
 MODEL          : MZCER040 - Maize           
 EXPERIMENT     : UYMZ0135 MZ    late to create DSS                             
 TREATMENT  1   : UYMZ                    

@YEAR DOY   DAS  TS1D  TS2D  TS3D  TS4D  TS5D  TS6D  TS7D  TS8D  TS9D  TS10
 2005 220     0   9.3  10.3  11.8  13.3  14.5  15.8  16.6  16.9   0.0   0.0
 2005 221     1  10.2  11.1  12.4  13.8  14.9  16.0  16.7  17.0   0.0   0.0
 2005 222     2  11.1  11.9  13.0  14.2  15.2  16.2  16.8  17.1   0.0   0.0
 2005 223     3  12.0  12.6  13.6  14.6  15.5  16.4  17.0  17.2   0.0   0.0
 2005 224     4  13.4  13.8  14.5  15.3  16.0  16.7  17.2  17.3   0.0   0.0
 2005 225     5  14.8  15.1  15.5  16.0  16.5  17.1  17.4  17.5   0.0   0.0
 2005 226     6  15.8  15.9  16.1  16.5  16.9  17.3  17.5  17.6   0.0   0.0
 2005 227     7  15.9  16.0  16.2  16.5  16.9  17.3  17.5  17.6   0.0   0.0
 2005 228     8  17.3  17.2  17.1  17.2  17.4  17.6  17.7  17.7   0.0   0.0
 2005 229     9  17.3  17.2  17.1  17.2  17.4  17.6  17.7  17.7   0.0   0.0
 2005 230    10  16.0  16.1  16.3  16.6  16.9  17.3  17.5  17.6   0.0   0.0
 2005 231    11  15.4  15.5  15.8  16.2  16.6  17.1  17.4  17.5   0.0   0.0
 2005 232    12  16.1  16.1  16.3  16.6  16.9  17.3  17.5  17.6   0.0   0.0
 2005 233    13  15.4  15.5  15.8  16.2  16.6  17.1  17.4  17.5   0.0   0.0
 2005 234    14  15.9  16.0  16.1  16.4  16.8  17.2  17.4  17.5   0.0   0.0
 2005 235    15  17.2  17.0  17.0  17.1  17.2  17.5  17.6  17.7   0.0   0.0
 2005 236    16  16.6  16.6  16.6  16.8  17.0  17.3  17.5  17.6   0.0   0.0
 2005 237    17  15.8  15.8  16.0  16.3  16.7  17.1  17.4  17.5   0.0   0.0
 2005 238    18  15.5  15.6  15.8  16.2  16.5  17.0  17.3  17.5   0.0   0.0
 2005 239    19  15.8  15.8  16.0  16.3  16.6  17.1  17.4  17.5   0.0   0.0
 2005 240    20  15.3  15.3  15.6  16.0  16.4  16.9  17.3  17.4   0.0   0.0
 2005 241    21  15.1  15.2  15.5  15.9  16.3  16.8  17.2  17.4   0.0   0.0
 2005 242    22  14.8  14.9  15.3  15.7  16.2  16.7  17.2  17.3   0.0   0.0
 2005 243    23  13.9  14.1  14.6  15.2  15.8  16.5  17.0  17.2   0.0   0.0
 2005 244    24  12.2  12.7  13.5  14.3  15.1  16.1  16.7  17.0   0.0   0.0
 2005 245    25  11.9  12.4  13.2  14.2  15.0  16.0  16.6  17.0   0.0   0.0
 2005 246    26  12.2  12.6  13.4  14.3  15.1  16.0  16.7  17.0   0.0   0.0
 2005 247    27  12.5  12.9  13.6  14.4  15.2  16.1  16.7  17.0   0.0   0.0
 2005 248    28  13.2  13.5  14.1  14.8  15.4  16.2  16.8  17.1   0.0   0.0
 2005 249    29  14.0  14.2  14.7  15.2  15.8  16.4  16.9  17.2   0.0   0.0
 2005 250    30  15.0  15.1  15.3  15.7  16.1  16.7  17.1  17.3   0.0   0.0
 2005 251    31  16.2  16.1  16.1  16.3  16.6  17.0  17.3  17.4   0.0   0.0
 2005 252    32  16.9  16.7  16.6  16.6  16.8  17.1  17.4  17.5   0.0   0.0
 2005 253    33  17.2  16.9  16.8  16.8  16.9  17.2  17.4  17.5   0.0   0.0
 2005 254    34  16.3  16.2  16.2  16.3  16.6  16.9  17.2  17.4   0.0   0.0
 2005 255    35  15.0  15.0  15.2  15.6  16.0  16.6  17.0  17.2   0.0   0.0
 2005 256    36  13.2  13.5  14.0  14.7  15.3  16.1  16.7  17.0   0.0   0.0
 2005 257    37  11.5  12.0  12.9  13.8  14.6  15.7  16.4  16.8   0.0   0.0
 2005 258    38  10.3  11.0  12.0  13.1  14.1  15.3  16.2  16.6   0.0   0.0
 2005 259    39  10.6  11.2  12.2  13.3  14.2  15.4  16.2  16.7   0.0   0.0
 2005 260    40  11.1  11.7  12.6  13.6  14.4  15.5  16.3  16.7   0.0   0.0
 2005 261    41  11.8  12.3  13.0  13.9  14.7  15.7  16.4  16.8   0.0   0.0
 2005 262    42  13.5  13.7  14.1  14.7  15.3  16.1  16.7  17.0   0.0   0.0
 2005 263    43  15.0  15.0  15.2  15.5  15.9  16.5  16.9  17.1   0.0   0.0
 2005 264    44  16.1  16.0  15.9  16.1  16.3  16.7  17.1  17.3   0.0   0.0
 2005 265    45  17.7  17.4  17.0  16.9  16.9  17.1  17.3  17.4   0.0   0.0
 2005 266    46  19.7  19.1  18.4  17.9  17.7  17.6  17.6  17.7   0.0   0.0
 2005 267    47  20.0  19.4  18.6  18.1  17.8  17.7  17.7  17.7   0.0   0.0
 2005 268    48  20.2  19.5  18.7  18.1  17.9  17.7  17.7  17.7   0.0   0.0
 2005 269    49  19.5  18.9  18.2  17.8  17.6  17.5  17.6  17.6   0.0   0.0
 2005 270    50  18.6  18.1  17.6  17.3  17.2  17.3  17.4  17.5   0.0   0.0
 2005 271    51  18.1  17.6  17.2  17.0  17.0  17.1  17.3  17.4   0.0   0.0
 2005 272    52  18.4  18.0  17.5  17.2  17.1  17.2  17.4  17.4   0.0   0.0
 2005 273    53  18.3  17.8  17.4  17.1  17.0  17.1  17.3  17.4   0.0   0.0
 2005 274    54  19.0  18.5  17.9  17.5  17.3  17.3  17.4  17.5   0.0   0.0
 2005 275    55  20.1  19.4  18.6  18.0  17.7  17.6  17.6  17.6   0.0   0.0
 2005 276    56  19.7  19.0  18.3  17.8  17.5  17.5  17.5  17.5   0.0   0.0
 2005 277    57  18.9  18.4  17.8  17.4  17.2  17.2  17.4  17.4   0.0   0.0
 2005 278    58  18.4  17.9  17.4  17.1  17.0  17.1  17.3  17.4   0.0   0.0
 2005 279    59  17.9  17.5  17.1  16.8  16.8  17.0  17.2  17.3   0.0   0.0
 2005 280    60  16.9  16.6  16.4  16.3  16.4  16.7  17.0  17.2   0.0   0.0
 2005 281    61  16.7  16.5  16.2  16.2  16.3  16.6  17.0  17.2   0.0   0.0
 2005 282    62  17.3  16.9  16.6  16.5  16.5  16.8  17.0  17.2   0.0   0.0
 2005 283    63  18.4  17.9  17.3  17.0  16.9  17.0  17.2  17.3   0.0   0.0
 2005 284    64  19.1  18.5  17.9  17.4  17.2  17.2  17.3  17.4   0.0   0.0
 2005 285    65  20.9  20.0  19.0  18.3  17.9  17.6  17.6  17.6   0.0   0.0
 2005 286    66  21.4  20.5  19.4  18.6  18.1  17.8  17.7  17.6   0.0   0.0
 2005 287    67  21.3  20.4  19.4  18.5  18.0  17.7  17.6  17.6   0.0   0.0
 2005 288    68  20.4  19.7  18.7  18.1  17.7  17.5  17.5  17.5   0.0   0.0
 2005 289    69  19.3  18.7  18.0  17.5  17.3  17.2  17.3  17.4   0.0   0.0
 2005 290    70  16.9  16.6  16.3  16.2  16.3  16.6  16.9  17.1   0.0   0.0
 2005 291    71  17.1  16.7  16.4  16.3  16.4  16.6  16.9  17.1   0.0   0.0
 2005 292    72  18.3  17.8  17.3  16.9  16.8  16.9  17.1  17.2   0.0   0.0
 2005 293    73  20.6  19.8  18.9  18.1  17.7  17.5  17.5  17.5   0.0   0.0
 2005 294    74  22.5  21.4  20.1  19.1  18.4  17.9  17.7  17.7   0.0   0.0
 2005 295    75  24.9  23.5  21.8  20.3  19.4  18.5  18.1  18.0   0.0   0.0
 2005 296    76  24.1  22.8  21.2  19.9  19.0  18.3  18.0  17.9   0.0   0.0
 2005 297    77  22.1  21.2  19.9  18.9  18.3  17.8  17.7  17.6   0.0   0.0
 2005 298    78  20.3  19.6  18.7  18.0  17.6  17.4  17.4  17.4   0.0   0.0
 2005 299    79  19.4  18.8  18.1  17.5  17.2  17.1  17.2  17.3   0.0   0.0
 2005 300    80  18.5  18.0  17.4  17.0  16.8  16.9  17.0  17.2   0.0   0.0
 2005 301    81  18.6  18.1  17.4  17.0  16.9  16.9  17.1  17.2   0.0   0.0
 2005 302    82  19.0  18.4  17.7  17.2  17.0  17.0  17.1  17.2   0.0   0.0
 2005 303    83  18.7  18.2  17.5  17.1  16.9  16.9  17.1  17.2   0.0   0.0
 2005 304    84  18.1  17.6  17.1  16.8  16.7  16.7  16.9  17.1   0.0   0.0
 2005 305    85  18.0  17.5  17.0  16.7  16.6  16.7  16.9  17.1   0.0   0.0
 2005 306    86  19.3  18.7  17.9  17.4  17.1  17.0  17.1  17.2   0.0   0.0
 2005 307    87  21.3  20.4  19.3  18.4  17.9  17.5  17.4  17.5   0.0   0.0
 2005 308    88  22.8  21.7  20.3  19.2  18.5  17.9  17.7  17.6   0.0   0.0
 2005 309    89  22.9  21.8  20.4  19.2  18.5  17.9  17.7  17.6   0.0   0.0
 2005 310    90  22.6  21.5  20.2  19.1  18.4  17.8  17.6  17.6   0.0   0.0
 2005 311    91  21.5  20.6  19.4  18.5  18.0  17.6  17.4  17.4   0.0   0.0
 2005 312    92  20.0  19.3  18.4  17.8  17.4  17.2  17.2  17.3   0.0   0.0
 2005 313    93  19.4  18.7  18.0  17.4  17.1  17.0  17.1  17.2   0.0   0.0
 2005 314    94  20.3  19.5  18.6  17.9  17.5  17.2  17.2  17.3   0.0   0.0
 2005 315    95  20.8  20.0  19.0  18.2  17.7  17.4  17.3  17.3   0.0   0.0
 2005 316    96  22.2  21.2  19.9  18.9  18.2  17.7  17.5  17.5   0.0   0.0
 2005 317    97  23.6  22.4  20.9  19.6  18.7  18.0  17.7  17.6   0.0   0.0
 2005 318    98  24.8  23.5  21.7  20.2  19.2  18.3  17.9  17.8   0.0   0.0
 2005 319    99  25.8  24.3  22.4  20.7  19.6  18.6  18.1  17.9   0.0   0.0
 2005 320   100  26.0  24.5  22.5  20.8  19.7  18.6  18.1  17.9   0.0   0.0
 2005 321   101  25.8  24.4  22.4  20.7  19.6  18.6  18.1  17.9   0.0   0.0
 2005 322   102  25.1  23.7  21.9  20.4  19.3  18.4  17.9  17.8   0.0   0.0
 2005 323   103  25.1  23.7  21.9  20.4  19.3  18.4  17.9  17.8   0.0   0.0
 2005 324   104  25.5  24.1  22.2  20.6  19.5  18.5  18.0  17.8   0.0   0.0
 2005 325   105  27.2  25.5  23.3  21.4  20.1  18.9  18.2  18.0   0.0   0.0
 2005 326   106  28.8  26.9  24.4  22.2  20.7  19.3  18.5  18.2   0.0   0.0
 2005 327   107  30.2  28.1  25.4  23.0  21.2  19.6  18.7  18.3   0.0   0.0
 2005 328   108  29.8  27.9  25.2  22.8  21.1  19.6  18.6  18.3   0.0   0.0
 2005 329   109  29.5  27.6  25.0  22.6  21.0  19.5  18.6  18.2   0.0   0.0
 2005 330   110  29.0  27.1  24.6  22.3  20.8  19.3  18.5  18.2   0.0   0.0
 2005 331   111  28.5  26.7  24.3  22.1  20.6  19.2  18.4  18.1   0.0   0.0
 2005 332   112  28.7  26.9  24.4  22.2  20.7  19.2  18.4  18.1   0.0   0.0
 2005 333   113  29.8  27.9  25.2  22.8  21.1  19.5  18.6  18.2   0.0   0.0
 2005 334   114  30.1  28.1  25.4  22.9  21.2  19.6  18.7  18.3   0.0   0.0
 2005 335   115  28.9  27.1  24.6  22.3  20.8  19.3  18.5  18.1   0.0   0.0
 2005 336   116  27.4  25.8  23.6  21.6  20.2  18.9  18.2  18.0   0.0   0.0
 2005 337   117  27.1  25.5  23.3  21.4  20.1  18.8  18.2  17.9   0.0   0.0
 2005 338   118  25.2  23.9  22.1  20.5  19.4  18.4  17.9  17.7   0.0   0.0
 2005 339   119  24.3  23.1  21.5  20.1  19.1  18.2  17.8  17.6   0.0   0.0
 2005 340   120  23.9  22.8  21.2  19.9  18.9  18.1  17.7  17.6   0.0   0.0
 2005 341   121  23.7  22.6  21.1  19.8  18.8  18.0  17.7  17.5   0.0   0.0
 2005 342   122  23.4  22.3  20.8  19.6  18.7  17.9  17.6  17.5   0.0   0.0
 2005 343   123  23.2  22.2  20.7  19.5  18.6  17.9  17.6  17.5   0.0   0.0
 2005 344   124  22.7  21.7  20.4  19.2  18.5  17.8  17.5  17.4   0.0   0.0
 2005 345   125  22.9  21.9  20.5  19.4  18.5  17.8  17.5  17.4   0.0   0.0
 2005 346   126  23.5  22.4  21.0  19.7  18.8  18.0  17.6  17.5   0.0   0.0
 2005 347   127  23.4  22.3  20.9  19.6  18.7  18.0  17.6  17.5   0.0   0.0
 2005 348   128  24.6  23.4  21.8  20.3  19.2  18.3  17.8  17.6   0.0   0.0
 2005 349   129  26.0  24.6  22.7  21.0  19.7  18.6  18.0  17.8   0.0   0.0
 2005 350   130  26.8  25.3  23.2  21.3  20.0  18.8  18.1  17.9   0.0   0.0
 2005 351   131  26.9  25.4  23.3  21.5  20.1  18.9  18.2  17.9   0.0   0.0
 2005 352   132  26.9  25.4  23.4  21.5  20.1  18.9  18.2  17.9   0.0   0.0
 2005 353   133  26.4  25.0  23.0  21.2  20.0  18.7  18.1  17.8   0.0   0.0
 2005 354   134  26.1  24.7  22.8  21.1  19.8  18.7  18.0  17.8   0.0   0.0
 2005 355   135  26.6  25.2  23.2  21.4  20.0  18.8  18.1  17.8   0.0   0.0
 2005 356   136  28.1  26.5  24.2  22.1  20.6  19.2  18.3  18.0   0.0   0.0
 2005 357   137  28.5  26.8  24.5  22.3  20.8  19.3  18.4  18.0   0.0   0.0
 2005 358   138  28.9  27.1  24.7  22.5  20.9  19.3  18.4  18.1   0.0   0.0
 2005 359   139  28.8  27.1  24.7  22.5  20.9  19.3  18.4  18.1   0.0   0.0
 2005 360   140  28.5  26.9  24.5  22.3  20.8  19.3  18.4  18.0   0.0   0.0
 2005 361   141  27.9  26.3  24.1  22.1  20.6  19.2  18.3  18.0   0.0   0.0
 2005 362   142  28.4  26.8  24.4  22.3  20.8  19.3  18.4  18.0   0.0   0.0
 2005 363   143  29.8  28.0  25.4  23.0  21.3  19.6  18.6  18.2   0.0   0.0
 2005 364   144  31.2  29.2  26.3  23.7  21.8  19.9  18.8  18.3   0.0   0.0
 2005 365   145  30.4  28.5  25.8  23.3  21.5  19.7  18.7  18.2   0.0   0.0
 2006 001   146  29.7  27.9  25.3  23.0  21.2  19.6  18.6  18.2   0.0   0.0
 2006 002   147  29.2  27.5  25.0  22.7  21.1  19.5  18.5  18.1   0.0   0.0
 2006 003   148  28.4  26.8  24.5  22.4  20.8  19.3  18.4  18.0   0.0   0.0
 2006 004   149  27.2  25.7  23.6  21.7  20.3  19.0  18.2  17.9   0.0   0.0
 2006 005   150  28.1  26.5  24.3  22.2  20.7  19.2  18.3  18.0   0.0   0.0
 2006 006   151  29.4  27.6  25.1  22.9  21.2  19.5  18.5  18.1   0.0   0.0
 2006 007   152  30.6  28.6  25.9  23.5  21.6  19.8  18.7  18.3   0.0   0.0
 2006 008   153  31.7  29.6  26.7  24.1  22.1  20.1  18.9  18.4   0.0   0.0
 2006 009   154  33.1  30.9  27.7  24.8  22.6  20.5  19.1  18.5   0.0   0.0
 2006 010   155  34.6  32.2  28.7  25.6  23.2  20.8  19.3  18.7   0.0   0.0
 2006 011   156  34.2  31.8  28.5  25.4  23.1  20.8  19.3  18.7   0.0   0.0
 2006 012   157  34.1  31.7  28.4  25.3  23.1  20.7  19.3  18.7   0.0   0.0
 2006 013   158  32.1  30.0  27.1  24.4  22.4  20.3  19.0  18.5   0.0   0.0
 2006 014   159  31.1  29.2  26.5  23.9  22.0  20.1  18.9  18.4   0.0   0.0
 2006 015   160  30.3  28.5  25.9  23.5  21.7  19.9  18.8  18.3   0.0   0.0
 2006 016   161  28.8  27.2  25.0  22.8  21.2  19.6  18.5  18.1   0.0   0.0
 2006 017   162  26.7  25.4  23.5  21.7  20.4  19.0  18.2  17.9   0.0   0.0
 2006 018   163  26.6  25.3  23.5  21.7  20.4  19.0  18.2  17.9   0.0   0.0
 2006 019   164  26.2  25.0  23.2  21.5  20.2  18.9  18.1  17.8   0.0   0.0
 2006 020   165  25.9  24.7  23.0  21.4  20.1  18.9  18.1  17.8   0.0   0.0
 2006 021   166  26.6  25.3  23.5  21.7  20.4  19.0  18.2  17.9   0.0   0.0
 2006 022   167  27.1  25.7  23.8  22.0  20.6  19.2  18.3  17.9   0.0   0.0
 2006 023   168  27.4  26.0  24.0  22.1  20.7  19.2  18.3  18.0   0.0   0.0
 2006 024   169  27.4  26.0  24.0  22.1  20.7  19.2  18.4  18.0   0.0   0.0

*DSSAT Cropping System Model Ver. 4.0.2.000               Aug 11, 2016; 14:44:11

*RUN   7        : UYMZ                    
 MODEL          : MZCER040 - Maize           
 EXPERIMENT     : UYMZ0135 MZ    late to create DSS                             
 TREATMENT  1   : UYMZ                    

@YEAR DOY   DAS  TS1D  TS2D  TS3D  TS4D  TS5D  TS6D  TS7D  TS8D  TS9D  TS10
 2006 220     0  21.6  20.9  20.2  19.6  19.2  18.8  18.5  18.3   0.0   0.0
 2006 221     1  20.1  19.6  19.1  18.8  18.6  18.4  18.3  18.1   0.0   0.0
 2006 222     2  18.5  18.2  18.0  18.0  18.0  18.0  18.0  17.9   0.0   0.0
 2006 223     3  16.4  16.4  16.6  16.9  17.1  17.5  17.6  17.7   0.0   0.0
 2006 224     4  14.7  15.0  15.4  16.0  16.5  17.0  17.4  17.5   0.0   0.0
 2006 225     5  14.3  14.6  15.2  15.8  16.3  16.9  17.3  17.4   0.0   0.0
 2006 226     6  14.9  15.1  15.5  16.0  16.5  17.0  17.4  17.5   0.0   0.0
 2006 227     7  15.2  15.3  15.7  16.2  16.6  17.1  17.4  17.5   0.0   0.0
 2006 228     8  15.4  15.5  15.8  16.2  16.7  17.1  17.4  17.5   0.0   0.0
 2006 229     9  14.4  14.7  15.1  15.7  16.3  16.9  17.3  17.4   0.0   0.0
 2006 230    10  13.7  14.0  14.6  15.3  16.0  16.7  17.1  17.3   0.0   0.0
 2006 231    11  13.0  13.4  14.1  15.0  15.7  16.5  17.0  17.2   0.0   0.0
 2006 232    12  12.0  12.6  13.5  14.4  15.3  16.2  16.8  17.1   0.0   0.0
 2006 233    13  11.6  12.2  13.2  14.2  15.1  16.1  16.8  17.0   0.0   0.0
 2006 234    14  12.8  13.3  14.0  14.8  15.6  16.4  16.9  17.2   0.0   0.0
 2006 235    15  14.6  14.8  15.2  15.8  16.2  16.8  17.2  17.4   0.0   0.0
 2006 236    16  16.1  16.1  16.3  16.5  16.8  17.2  17.5  17.6   0.0   0.0
[...]
 2009 296    76  21.8  20.9  19.7  18.7  18.2  17.8  17.6  17.6   0.0   0.0
 2009 297    77  21.2  20.4  19.3  18.4  17.9  17.6  17.5  17.5   0.0   0.0
 2009 298    78  20.9  20.1  19.0  18.2  17.8  17.5  17.5  17.5   0.0   0.0
 2009 299    79  20.9  20.0  19.0  18.2  17.8  17.5  17.4  17.5   0.0   0.0
 2009 300    80  20.6  19.8  18.8  18.1  17.6  17.4  17.4  17.4   0.0   0.0
 2009 301    81  20.5  19.7  18.8  18.0  17.6  17.4  17.4  17.4   0.0   0.0
 2009 302    82  23.1  22.0  20.5  19.3  18.6  18.0  17.8  17.7   0.0   0.0
 2009 303    83  25.2  23.8  22.0  20.4  19.4  18.5  18.1  17.9   0.0   0.0
 2009 304    84  26.5  24.9  22.8  21.1  19.9  18.9  18.3  18.1   0.0   0.0
 2009 305    85  28.1  26.3  24.0  21.9  20.5  19.3  18.5  18.2   0.0   0.0
 2009 306    86  28.7  26.9  24.4  22.2  20.8  19.4  18.6  18.3   0.0   0.0
 2009 307    87  26.4  24.9  22.8  21.1  19.9  18.9  18.3  18.1   0.0   0.0
 2009 308    88  23.6  22.5  20.9  19.7  18.8  18.1  17.8  17.7   0.0   0.0
 2009 309    89  22.4  21.4  20.1  19.0  18.3  17.8  17.6  17.6   0.0   0.0
 2009 310    90  20.7  19.9  18.9  18.1  17.7  17.4  17.3  17.4   0.0   0.0
 2009 311    91  18.4  17.9  17.3  16.9  16.8  16.8  16.9  17.1   0.0   0.0
 2009 312    92  18.0  17.6  17.1  16.7  16.6  16.7  16.9  17.0   0.0   0.0
 2009 313    93  19.1  18.5  17.8  17.3  17.0  16.9  17.0  17.1   0.0   0.0
 2009 314    94  19.5  18.9  18.1  17.5  17.2  17.0  17.1  17.2   0.0   0.0
 2009 315    95  20.0  19.3  18.5  17.8  17.4  17.2  17.2  17.2   0.0   0.0
 2009 316    96  21.7  20.8  19.6  18.6  18.0  17.6  17.4  17.4   0.0   0.0
 2009 317    97  23.0  21.9  20.5  19.3  18.5  17.9  17.6  17.6   0.0   0.0
 2009 318    98  22.9  21.8  20.4  19.3  18.5  17.9  17.6  17.6   0.0   0.0
 2009 319    99  22.6  21.6  20.2  19.1  18.4  17.8  17.6  17.5   0.0   0.0
 2009 320   100  22.8  21.7  20.4  19.2  18.5  17.8  17.6  17.5   0.0   0.0
 2009 321   101  22.9  21.8  20.4  19.3  18.5  17.9  17.6  17.5   0.0   0.0
 2009 322   102  22.6  21.6  20.3  19.1  18.4  17.8  17.6  17.5   0.0   0.0
 2009 323   103  23.2  22.1  20.6  19.4  18.6  17.9  17.6  17.6   0.0   0.0
 2009 324   104  23.6  22.4  20.9  19.6  18.8  18.0  17.7  17.6   0.0   0.0
 2009 325   105  22.6  21.6  20.2  19.1  18.4  17.8  17.5  17.5   0.0   0.0
 2009 326   106  22.5  21.5  20.2  19.1  18.4  17.8  17.5  17.5   0.0   0.0
 2009 327   107  22.3  21.4  20.1  19.0  18.3  17.7  17.5  17.4   0.0   0.0
 2009 328   108  22.0  21.1  19.9  18.9  18.2  17.6  17.4  17.4   0.0   0.0
 2009 329   109  23.8  22.6  21.1  19.8  18.9  18.1  17.7  17.6   0.0   0.0
 2009 330   110  25.4  24.0  22.2  20.6  19.5  18.5  18.0  17.8   0.0   0.0
 2009 331   111  25.0  23.7  21.9  20.4  19.3  18.4  17.9  17.7   0.0   0.0
 2009 332   112  25.2  23.9  22.1  20.5  19.4  18.5  17.9  17.8   0.0   0.0
 2009 333   113  26.2  24.8  22.8  21.1  19.8  18.7  18.1  17.9   0.0   0.0
 2009 334   114  24.8  23.5  21.8  20.3  19.3  18.4  17.9  17.7   0.0   0.0
 2009 335   115  24.3  23.1  21.5  20.1  19.1  18.2  17.8  17.6   0.0   0.0
 2009 336   116  23.8  22.6  21.1  19.8  18.9  18.1  17.7  17.6   0.0   0.0
 2009 337   117  23.4  22.4  20.9  19.6  18.8  18.0  17.6  17.5   0.0   0.0
 2009 338   118  21.5  20.7  19.6  18.6  18.0  17.5  17.3  17.3   0.0   0.0
 2009 339   119  21.2  20.4  19.3  18.5  17.9  17.4  17.3  17.3   0.0   0.0
 2009 340   120  20.5  19.8  18.9  18.1  17.6  17.2  17.1  17.2   0.0   0.0
 2009 341   121  20.1  19.4  18.6  17.9  17.5  17.1  17.1  17.1   0.0   0.0
 2009 342   122  20.3  19.7  18.8  18.0  17.6  17.2  17.1  17.2   0.0   0.0
 2009 343   123  21.5  20.7  19.6  18.6  18.0  17.5  17.3  17.3   0.0   0.0
 2009 344   124  22.0  21.1  19.9  18.9  18.2  17.6  17.4  17.3   0.0   0.0
 2009 345   125  21.6  20.8  19.7  18.7  18.1  17.5  17.3  17.3   0.0   0.0
 2009 346   126  21.7  20.9  19.8  18.8  18.1  17.6  17.3  17.3   0.0   0.0
 2009 347   127  21.5  20.7  19.6  18.7  18.0  17.5  17.3  17.3   0.0   0.0
 2009 348   128  21.2  20.5  19.5  18.6  18.0  17.5  17.3  17.2   0.0   0.0
 2009 349   129  21.6  20.8  19.7  18.8  18.1  17.5  17.3  17.3   0.0   0.0
 2009 350   130  22.4  21.5  20.3  19.2  18.4  17.8  17.4  17.4   0.0   0.0
 2009 351   131  23.4  22.4  21.0  19.7  18.8  18.0  17.6  17.5   0.0   0.0
 2009 352   132  24.7  23.5  21.9  20.4  19.3  18.3  17.8  17.6   0.0   0.0
 2009 353   133  26.2  24.8  22.9  21.1  19.9  18.7  18.1  17.8   0.0   0.0
 2009 354   134  26.1  24.7  22.8  21.1  19.9  18.7  18.0  17.8   0.0   0.0
 2009 355   135  26.4  25.0  23.1  21.3  20.0  18.8  18.1  17.8   0.0   0.0
 2009 356   136  26.5  25.1  23.1  21.3  20.1  18.8  18.1  17.8   0.0   0.0
 2009 357   137  25.3  24.1  22.3  20.8  19.6  18.5  17.9  17.7   0.0   0.0
 2009 358   138  23.8  22.8  21.3  20.0  19.0  18.2  17.7  17.5   0.0   0.0
 2009 359   139  24.1  23.0  21.5  20.2  19.2  18.2  17.7  17.6   0.0   0.0
 2009 360   140  24.2  23.1  21.6  20.2  19.2  18.3  17.8  17.6   0.0   0.0
 2009 361   141  24.7  23.6  22.0  20.6  19.5  18.4  17.9  17.7   0.0   0.0
 2009 362   142  25.9  24.6  22.8  21.2  19.9  18.7  18.1  17.8   0.0   0.0
 2009 363   143  26.7  25.3  23.4  21.6  20.2  18.9  18.2  17.9   0.0   0.0
 2009 364   144  26.6  25.2  23.3  21.5  20.2  18.9  18.2  17.9   0.0   0.0
 2009 365   145  26.4  25.1  23.2  21.5  20.2  18.9  18.1  17.9   0.0   0.0
 2010 001   146  26.2  24.9  23.0  21.3  20.0  18.8  18.1  17.8   0.0   0.0
 2010 002   147  26.5  25.1  23.2  21.4  20.1  18.9  18.1  17.8   0.0   0.0
 2010 003   148  26.8  25.4  23.4  21.6  20.3  19.0  18.2  17.9   0.0   0.0
 2010 004   149  26.8  25.4  23.5  21.6  20.3  19.0  18.2  17.9   0.0   0.0
 2010 005   150  27.6  26.1  24.0  22.0  20.6  19.2  18.3  18.0   0.0   0.0
 2010 006   151  27.0  25.6  23.6  21.8  20.4  19.0  18.2  17.9   0.0   0.0
 2010 007   152  26.0  24.8  23.0  21.3  20.1  18.8  18.1  17.8   0.0   0.0
 2010 008   153  25.4  24.2  22.6  21.0  19.8  18.7  18.0  17.7   0.0   0.0
 2010 009   154  25.6  24.4  22.7  21.1  19.9  18.7  18.0  17.8   0.0   0.0
 2010 010   155  25.8  24.6  22.8  21.2  20.0  18.8  18.1  17.8   0.0   0.0
 2010 011   156  26.3  25.1  23.2  21.5  20.2  18.9  18.2  17.9   0.0   0.0
 2010 012   157  26.2  25.0  23.2  21.5  20.2  18.9  18.2  17.8   0.0   0.0
 2010 013   158  26.3  25.1  23.3  21.5  20.3  19.0  18.2  17.9   0.0   0.0
 2010 014   159  26.1  24.9  23.1  21.4  20.2  18.9  18.1  17.8   0.0   0.0
 2010 015   160  25.6  24.4  22.8  21.2  20.0  18.8  18.1  17.8   0.0   0.0
 2010 016   161  25.2  24.1  22.5  21.0  19.9  18.7  18.0  17.7   0.0   0.0
 2010 017   162  27.1  25.8  23.8  22.0  20.6  19.2  18.3  18.0   0.0   0.0
 2010 018   163  27.9  26.4  24.4  22.4  20.9  19.4  18.5  18.1   0.0   0.0
 2010 019   164  27.9  26.5  24.4  22.5  21.0  19.4  18.5  18.1   0.0   0.0
 2010 020   165  27.9  26.5  24.5  22.5  21.0  19.5  18.5  18.1   0.0   0.0
 2010 021   166  28.5  27.0  24.8  22.8  21.2  19.6  18.6  18.1   0.0   0.0
 2010 022   167  27.5  26.2  24.2  22.3  20.8  19.4  18.4  18.0   0.0   0.0
 2010 023   168  27.2  25.9  24.0  22.1  20.7  19.3  18.4  18.0   0.0   0.0
 2010 024   169  27.9  26.5  24.5  22.5  21.0  19.5  18.5  18.1   0.0   0.0

*DSSAT Cropping System Model Ver. 4.0.2.000               Aug 11, 2016; 14:44:11

*RUN  11        : UYMZ                    
 MODEL          : MZCER040 - Maize           
 EXPERIMENT     : UYMZ0135 MZ    late to create DSS                             
 TREATMENT  1   : UYMZ                    

@YEAR DOY   DAS  TS1D  TS2D  TS3D  TS4D  TS5D  TS6D  TS7D  TS8D  TS9D  TS10
 2010 220     0  11.5  12.2  13.3  14.5  15.4  16.3  16.9  17.2   0.0   0.0
 2010 221     1  11.9  12.6  13.6  14.6  15.5  16.4  17.0  17.2   0.0   0.0
 2010 222     2  12.4  12.9  13.9  14.8  15.6  16.5  17.0  17.2   0.0   0.0
 2010 223     3  13.0  13.5  14.3  15.2  15.9  16.7  17.1  17.3   0.0   0.0
 2010 224     4  15.1  15.3  15.7  16.2  16.6  17.1  17.4  17.5   0.0   0.0
 2010 225     5  14.9  15.1  15.5  16.1  16.5  17.1  17.4  17.5   0.0   0.0
 2010 226     6  13.7  14.0  14.7  15.4  16.0  16.7  17.2  17.3   0.0   0.0
 2010 227     7  12.1  12.7  13.6  14.6  15.4  16.3  16.9  17.2   0.0   0.0
 2010 228     8  12.1  12.7  13.6  14.6  15.4  16.3  16.9  17.2   0.0   0.0
 2010 229     9  11.3  12.0  13.1  14.2  15.1  16.1  16.8  17.1   0.0   0.0
 2010 230    10  13.9  14.2  14.8  15.4  16.0  16.7  17.2  17.3   0.0   0.0
 2010 231    11  16.0  16.1  16.3  16.6  16.9  17.3  17.5  17.6   0.0   0.0
 2010 232    12  18.3  18.0  17.8  17.7  17.7  17.8  17.8  17.8   0.0   0.0
 2010 233    13  18.8  18.5  18.1  17.9  17.9  17.9  17.9  17.9   0.0   0.0
 2010 234    14  19.2  18.8  18.4  18.1  18.0  18.0  18.0  17.9   0.0   0.0
 2010 235    15  19.7  19.3  18.7  18.4  18.2  18.1  18.0  18.0   0.0   0.0
 2010 236    16  19.7  19.3  18.7  18.4  18.2  18.1  18.0  18.0   0.0   0.0
 2010 237    17  18.7  18.3  18.0  17.8  17.8  17.8  17.8  17.8   0.0   0.0
 2010 238    18  18.4  18.1  17.8  17.6  17.7  17.7  17.8  17.8   0.0   0.0
 2010 239    19  17.8  17.5  17.3  17.3  17.4  17.6  17.7  17.7   0.0   0.0
 2010 240    20  17.5  17.2  17.1  17.1  17.2  17.5  17.6  17.7   0.0   0.0
 2010 241    21  17.4  17.2  17.0  17.1  17.2  17.4  17.6  17.6   0.0   0.0
 2010 242    22  17.4  17.2  17.1  17.1  17.2  17.4  17.6  17.6   0.0   0.0
 2010 243    23  18.2  17.9  17.6  17.5  17.5  17.6  17.7  17.7   0.0   0.0
 2010 244    24  18.3  18.0  17.6  17.5  17.5  17.6  17.7  17.7   0.0   0.0
 2010 245    25  16.6  16.5  16.5  16.6  16.8  17.2  17.4  17.5   0.0   0.0
 2010 246    26  16.1  16.0  16.1  16.3  16.6  17.0  17.3  17.4   0.0   0.0
 2010 247    27  15.8  15.8  15.9  16.2  16.5  16.9  17.2  17.4   0.0   0.0
 2010 248    28  15.3  15.4  15.5  15.9  16.3  16.8  17.2  17.3   0.0   0.0
 2010 249    29  15.7  15.7  15.8  16.1  16.4  16.9  17.2  17.4   0.0   0.0
 2010 250    30  16.6  16.5  16.4  16.5  16.7  17.1  17.3  17.5   0.0   0.0
 2010 251    31  17.5  17.3  17.0  17.0  17.1  17.3  17.5  17.6   0.0   0.0
 2010 252    32  19.8  19.2  18.5  18.1  17.9  17.8  17.8  17.8   0.0   0.0
 2010 253    33  20.9  20.2  19.3  18.7  18.4  18.1  18.0  17.9   0.0   0.0
 2010 254    34  20.6  19.9  19.1  18.5  18.2  18.0  17.9  17.9   0.0   0.0
 2010 255    35  19.2  18.7  18.1  17.8  17.7  17.6  17.7  17.7   0.0   0.0
 2010 256    36  18.0  17.7  17.3  17.2  17.2  17.3  17.5  17.6   0.0   0.0
 2010 257    37  16.4  16.3  16.2  16.3  16.5  16.9  17.2  17.4   0.0   0.0
 2010 258    38  15.5  15.4  15.5  15.8  16.2  16.6  17.0  17.2   0.0   0.0
 2010 259    39  16.1  16.0  16.0  16.1  16.4  16.8  17.1  17.3   0.0   0.0
 2010 260    40  17.1  16.9  16.7  16.7  16.8  17.0  17.3  17.4   0.0   0.0
 2010 261    41  17.4  17.1  16.9  16.8  16.9  17.1  17.3  17.4   0.0   0.0
 2010 262    42  18.5  18.0  17.6  17.3  17.3  17.4  17.5  17.6   0.0   0.0
 2010 263    43  19.3  18.7  18.1  17.7  17.6  17.6  17.6  17.6   0.0   0.0
 2010 264    44  19.4  18.9  18.2  17.8  17.6  17.6  17.6  17.6   0.0   0.0
 2010 265    45  20.4  19.7  18.9  18.3  18.0  17.8  17.8  17.8   0.0   0.0
 2010 266    46  20.7  20.0  19.1  18.4  18.1  17.9  17.8  17.8   0.0   0.0
 2010 267    47  20.4  19.7  18.9  18.3  18.0  17.8  17.7  17.7   0.0   0.0
 2010 268    48  18.9  18.4  17.8  17.5  17.4  17.4  17.5  17.6   0.0   0.0
 2010 269    49  18.1  17.6  17.2  17.0  17.0  17.1  17.3  17.4   0.0   0.0
 2010 270    50  17.3  17.0  16.7  16.6  16.7  16.9  17.2  17.3   0.0   0.0
 2010 271    51  18.5  18.0  17.5  17.2  17.2  17.2  17.4  17.5   0.0   0.0
 2010 272    52  18.4  17.9  17.4  17.1  17.1  17.2  17.3  17.4   0.0   0.0
 2010 273    53  19.2  18.6  18.0  17.6  17.4  17.4  17.5  17.5   0.0   0.0
 2010 274    54  19.0  18.5  17.9  17.5  17.3  17.3  17.4  17.5   0.0   0.0
 2010 275    55  18.6  18.1  17.6  17.2  17.1  17.2  17.4  17.4   0.0   0.0
 2010 276    56  17.6  17.3  16.9  16.7  16.8  16.9  17.2  17.3   0.0   0.0
 2010 277    57  18.2  17.8  17.3  17.0  17.0  17.1  17.3  17.4   0.0   0.0
 2010 278    58  18.7  18.2  17.6  17.2  17.1  17.2  17.3  17.4   0.0   0.0
 2010 279    59  20.0  19.3  18.5  17.9  17.6  17.5  17.5  17.6   0.0   0.0
 2010 280    60  20.1  19.4  18.5  18.0  17.7  17.5  17.5  17.6   0.0   0.0
 2010 281    61  20.3  19.6  18.7  18.1  17.7  17.6  17.6  17.6   0.0   0.0
 2010 282    62  20.0  19.3  18.5  17.9  17.6  17.5  17.5  17.5   0.0   0.0
 2010 283    63  19.4  18.8  18.1  17.6  17.4  17.3  17.4  17.5   0.0   0.0
 2010 284    64  18.6  18.1  17.5  17.2  17.0  17.1  17.2  17.4   0.0   0.0
 2010 285    65  19.6  18.9  18.2  17.6  17.4  17.3  17.4  17.5   0.0   0.0
 2010 286    66  20.6  19.8  18.9  18.2  17.8  17.6  17.5  17.6   0.0   0.0
 2010 287    67  20.9  20.1  19.1  18.3  17.9  17.6  17.6  17.6   0.0   0.0
 2010 288    68  20.9  20.1  19.1  18.3  17.9  17.6  17.6  17.6   0.0   0.0
 2010 289    69  20.4  19.6  18.7  18.0  17.7  17.5  17.5  17.5   0.0   0.0
 2010 290    70  19.6  19.0  18.2  17.6  17.4  17.3  17.3  17.4   0.0   0.0
 2010 291    71  18.9  18.4  17.7  17.3  17.1  17.1  17.2  17.3   0.0   0.0
 2010 292    72  19.5  18.8  18.1  17.5  17.3  17.2  17.3  17.4   0.0   0.0
 2010 293    73  20.6  19.8  18.8  18.1  17.7  17.5  17.5  17.5   0.0   0.0
 2010 294    74  22.6  21.5  20.2  19.1  18.5  18.0  17.8  17.7   0.0   0.0
 2010 295    75  23.6  22.4  20.9  19.7  18.9  18.2  17.9  17.8   0.0   0.0
 2010 296    76  23.7  22.5  20.9  19.7  18.9  18.2  17.9  17.8   0.0   0.0
 2010 297    77  23.4  22.2  20.7  19.5  18.7  18.1  17.9  17.8   0.0   0.0
 2010 298    78  22.6  21.6  20.2  19.1  18.4  17.9  17.7  17.7   0.0   0.0
 2010 299    79  21.5  20.6  19.4  18.5  18.0  17.6  17.5  17.5   0.0   0.0
 2010 300    80  21.1  20.3  19.2  18.3  17.9  17.5  17.5  17.5   0.0   0.0
 2010 301    81  21.7  20.8  19.6  18.6  18.1  17.7  17.6  17.5   0.0   0.0
 2010 302    82  21.3  20.4  19.3  18.4  17.9  17.6  17.5  17.5   0.0   0.0
 2010 303    83  21.3  20.4  19.3  18.4  17.9  17.6  17.5  17.5   0.0   0.0
 2010 304    84  21.7  20.8  19.6  18.6  18.1  17.7  17.5  17.5   0.0   0.0
 2010 305    85  22.1  21.1  19.8  18.8  18.2  17.7  17.6  17.6   0.0   0.0
 2010 306    86  22.3  21.3  20.0  18.9  18.3  17.8  17.6  17.6   0.0   0.0
 2010 307    87  24.3  23.0  21.3  19.9  19.0  18.3  17.9  17.8   0.0   0.0
 2010 308    88  25.9  24.4  22.4  20.7  19.6  18.7  18.1  18.0   0.0   0.0
 2010 309    89  26.4  24.8  22.8  21.0  19.8  18.8  18.2  18.0   0.0   0.0
 2010 310    90  26.6  25.0  22.9  21.1  19.9  18.8  18.3  18.0   0.0   0.0
 2010 311    91  27.5  25.8  23.6  21.6  20.3  19.1  18.4  18.1   0.0   0.0
 2010 312    92  28.5  26.7  24.2  22.1  20.6  19.3  18.5  18.2   0.0   0.0
 2010 313    93  25.8  24.4  22.4  20.7  19.6  18.6  18.1  17.9   0.0   0.0
 2010 314    94  24.7  23.4  21.6  20.2  19.2  18.3  17.9  17.8   0.0   0.0
 2010 315    95  23.7  22.5  20.9  19.6  18.8  18.1  17.8  17.7   0.0   0.0
 2010 316    96  21.5  20.6  19.5  18.5  18.0  17.5  17.4  17.4   0.0   0.0
 2010 317    97  19.1  18.6  17.8  17.3  17.0  16.9  17.0  17.1   0.0   0.0
 2010 318    98  20.4  19.6  18.7  17.9  17.5  17.2  17.2  17.3   0.0   0.0
 2010 319    99  20.7  19.9  18.9  18.1  17.6  17.3  17.3  17.3   0.0   0.0
 2010 320   100  21.2  20.3  19.2  18.3  17.8  17.4  17.3  17.4   0.0   0.0
 2010 321   101  21.9  20.9  19.7  18.7  18.1  17.6  17.4  17.4   0.0   0.0
 2010 322   102  22.5  21.5  20.1  19.0  18.3  17.7  17.5  17.5   0.0   0.0
 2010 323   103  22.8  21.7  20.3  19.2  18.4  17.8  17.6  17.5   0.0   0.0
 2010 324   104  23.7  22.5  21.0  19.7  18.8  18.0  17.7  17.6   0.0   0.0
 2010 325   105  24.6  23.3  21.6  20.1  19.1  18.3  17.8  17.7   0.0   0.0
 2010 326   106  25.0  23.6  21.8  20.3  19.3  18.3  17.9  17.7   0.0   0.0
 2010 327   107  24.9  23.5  21.8  20.2  19.2  18.3  17.9  17.7   0.0   0.0
 2010 328   108  25.5  24.1  22.2  20.6  19.5  18.5  18.0  17.8   0.0   0.0
 2010 329   109  25.5  24.1  22.2  20.6  19.5  18.5  18.0  17.8   0.0   0.0
 2010 330   110  26.1  24.6  22.6  20.9  19.7  18.6  18.0  17.8   0.0   0.0
 2010 331   111  27.4  25.7  23.5  21.5  20.2  18.9  18.3  18.0   0.0   0.0
 2010 332   112  26.8  25.2  23.1  21.2  20.0  18.8  18.1  17.9   0.0   0.0
 2010 333   113  25.8  24.3  22.4  20.7  19.6  18.5  18.0  17.8   0.0   0.0
 2010 334   114  25.9  24.5  22.5  20.8  19.6  18.6  18.0  17.8   0.0   0.0
 2010 335   115  26.1  24.6  22.6  20.9  19.7  18.6  18.0  17.8   0.0   0.0
 2010 336   116  26.4  24.9  22.8  21.0  19.8  18.7  18.1  17.8   0.0   0.0
 2010 337   117  28.1  26.4  24.0  21.9  20.4  19.1  18.3  18.0   0.0   0.0
 2010 338   118  29.8  27.9  25.2  22.8  21.1  19.5  18.6  18.2   0.0   0.0
 2010 339   119  30.2  28.2  25.5  23.0  21.3  19.6  18.6  18.3   0.0   0.0
 2010 340   120  30.1  28.1  25.4  23.0  21.2  19.6  18.6  18.2   0.0   0.0
 2010 341   121  30.0  28.1  25.4  22.9  21.2  19.6  18.6  18.2   0.0   0.0
 2010 342   122  29.6  27.7  25.1  22.7  21.0  19.5  18.5  18.2   0.0   0.0
 2010 343   123  29.8  27.9  25.2  22.8  21.1  19.5  18.6  18.2   0.0   0.0
 2010 344   124  30.4  28.4  25.6  23.1  21.4  19.7  18.7  18.3   0.0   0.0
 2010 345   125  30.4  28.4  25.6  23.1  21.4  19.7  18.7  18.3   0.0   0.0
 2010 346   126  27.7  26.1  23.8  21.8  20.3  19.0  18.2  18.0   0.0   0.0
 2010 347   127  27.3  25.7  23.6  21.6  20.2  18.9  18.2  17.9   0.0   0.0
 2010 348   128  26.9  25.4  23.3  21.4  20.1  18.8  18.1  17.9   0.0   0.0
 2010 349   129  26.5  25.0  23.0  21.2  19.9  18.7  18.1  17.8   0.0   0.0
 2010 350   130  26.7  25.2  23.2  21.3  20.0  18.8  18.1  17.8   0.0   0.0
 2010 351   131  29.2  27.4  24.9  22.6  21.0  19.4  18.5  18.1   0.0   0.0
 2010 352   132  30.2  28.2  25.5  23.1  21.3  19.6  18.6  18.2   0.0   0.0
 2010 353   133  29.0  27.2  24.7  22.5  20.9  19.3  18.5  18.1   0.0   0.0
 2010 354   134  28.2  26.5  24.2  22.1  20.6  19.2  18.3  18.0   0.0   0.0
 2010 355   135  28.1  26.4  24.1  22.1  20.6  19.1  18.3  18.0   0.0   0.0
 2010 356   136  28.1  26.5  24.2  22.1  20.6  19.1  18.3  18.0   0.0   0.0
 2010 357   137  28.4  26.7  24.4  22.2  20.7  19.2  18.4  18.0   0.0   0.0
 2010 358   138  28.9  27.2  24.7  22.5  20.9  19.3  18.4  18.1   0.0   0.0
 2010 359   139  29.9  28.0  25.5  23.1  21.4  19.7  18.6  18.2   0.0   0.0
 2010 360   140  30.3  28.4  25.7  23.3  21.5  19.8  18.7  18.3   0.0   0.0
 2010 361   141  30.4  28.5  25.8  23.4  21.6  19.8  18.7  18.3   0.0   0.0
 2010 362   142  29.9  28.1  25.5  23.1  21.4  19.7  18.6  18.2   0.0   0.0
 2010 363   143  30.6  28.7  26.0  23.5  21.7  19.8  18.7  18.3   0.0   0.0
 2010 364   144  30.1  28.2  25.6  23.2  21.5  19.7  18.7  18.2   0.0   0.0
 2010 365   145  29.5  27.7  25.2  22.9  21.2  19.6  18.6  18.2   0.0   0.0
 2011 001   146  28.9  27.1  24.8  22.6  21.0  19.4  18.5  18.1   0.0   0.0
 2011 002   147  28.2  26.6  24.3  22.2  20.7  19.2  18.4  18.0   0.0   0.0
 2011 003   148  27.0  25.6  23.5  21.6  20.3  18.9  18.2  17.9   0.0   0.0
 2011 004   149  26.9  25.4  23.4  21.6  20.2  18.9  18.2  17.9   0.0   0.0
 2011 005   150  26.6  25.2  23.2  21.4  20.1  18.8  18.1  17.8   0.0   0.0
 2011 006   151  26.9  25.5  23.5  21.7  20.3  19.0  18.2  17.9   0.0   0.0
 2011 007   152  28.5  26.8  24.6  22.4  20.9  19.3  18.4  18.0   0.0   0.0
 2011 008   153  30.1  28.2  25.7  23.3  21.5  19.7  18.7  18.2   0.0   0.0
 2011 009   154  30.9  29.0  26.3  23.7  21.8  20.0  18.8  18.3   0.0   0.0
 2011 010   155  30.9  29.0  26.3  23.7  21.8  20.0  18.8  18.3   0.0   0.0
 2011 011   156  29.8  28.0  25.5  23.2  21.5  19.7  18.7  18.2   0.0   0.0
 2011 012   157  28.5  26.9  24.6  22.5  21.0  19.4  18.4  18.1   0.0   0.0
 2011 013   158  27.8  26.4  24.2  22.2  20.8  19.3  18.4  18.0   0.0   0.0
 2011 014   159  27.2  25.8  23.8  21.9  20.5  19.1  18.3  17.9   0.0   0.0
 2011 015   160  27.9  26.4  24.3  22.3  20.8  19.3  18.4  18.0   0.0   0.0
 2011 016   161  29.3  27.6  25.3  23.0  21.3  19.7  18.6  18.2   0.0   0.0
 2011 017   162  29.8  28.0  25.6  23.3  21.5  19.8  18.7  18.2   0.0   0.0
 2011 018   163  30.4  28.5  26.0  23.6  21.8  19.9  18.8  18.3   0.0   0.0
