*SOIL-PLANT-ATMOSPHERE MODULE OUTPUT FILE

*DSSAT Cropping System Model Ver. 4.0.2.000               Jul 19, 2016; 12:53:16

*RUN   1        : UYMZ                    
 MODEL          : MZCER040 - Maize           
 EXPERIMENT     : UYMZ0006 MZ    late to create DSS                             
 TREATMENT  1   : UYMZ                    

@YEAR DOY   DAS   SRAA   TMXA   TMNA   EOAA   ETAA   EPAA   ESAA   EFAD   ETAC   EPAC   ESAC   EFAC
 1990 184     0   3.90  14.00   9.80  0.795  0.795  0.000  0.795  0.000    0.8    0.0    0.8    0.0
 1990 185     1   4.70  16.50   9.60  0.991  0.991  0.000  0.991  0.000    1.8    0.0    1.8    0.0
 1990 186     2   3.70  17.40  13.40  0.818  0.818  0.000  0.818  0.000    2.6    0.0    2.6    0.0
 1990 187     3   5.40  19.70  13.20  1.228  1.228  0.000  1.228  0.000    3.8    0.0    3.8    0.0
 1990 188     4   3.80  15.80  11.30  0.806  0.806  0.000  0.806  0.000    4.6    0.0    4.6    0.0
 1990 189     5   4.30  19.60  13.50  0.980  0.941  0.000  0.941  0.000    5.6    0.0    5.6    0.0
 1990 190     6   5.60  17.10  11.30  1.210  1.210  0.000  1.210  0.000    6.8    0.0    6.8    0.0
 1990 191     7   7.60  13.90   6.30  1.495  1.037  0.000  1.037  0.000    7.8    0.0    7.8    0.0
 1990 192     8  13.70  18.20   5.20  2.840  0.891  0.000  0.891  0.000    8.7    0.0    8.7    0.0
 1990 193     9  13.80  17.60   3.90  2.800  0.794  0.000  0.794  0.000    9.5    0.0    9.5    0.0
 1990 194    10  13.40  19.70   6.00  2.858  0.723  0.000  0.723  0.000   10.2    0.0   10.2    0.0
 1990 195    11   9.40  19.20   7.80  2.024  0.668  0.000  0.668  0.000   10.9    0.0   10.9    0.0
 1990 196    12   6.90  20.00  10.10  1.534  0.624  0.000  0.624  0.000   11.5    0.0   11.5    0.0
 1990 197    13   5.50  15.70  10.10  1.152  1.152  0.000  1.152  0.000   12.7    0.0   12.7    0.0
 1990 198    14   8.40  16.00   9.40  1.756  1.456  0.000  1.456  0.000   14.1    0.0   14.1    0.0
 1990 199    15  12.00  11.20   1.60  2.153  2.078  0.000  2.078  0.000   16.2    0.0   16.2    0.0
 1990 200    16  12.30   8.90  -2.00  2.036  2.036  0.000  2.036  0.000   18.2    0.0   18.2    0.0
 1990 201    17  11.70   8.10  -1.20  1.927  1.927  0.000  1.927  0.000   20.2    0.0   20.2    0.0
 1990 202    18   9.40   8.60  -1.00  1.566  1.296  0.000  1.296  0.000   21.5    0.0   21.5    0.0
 1990 203    19  12.50   8.80  -5.60  1.976  1.039  0.000  1.039  0.000   22.5    0.0   22.5    0.0
 1990 204    20  12.50  13.90  -0.70  2.286  0.893  0.000  0.893  0.000   23.4    0.0   23.4    0.0
 1990 205    21  14.00  14.70   2.10  2.671  0.795  0.000  0.795  0.000   24.2    0.0   24.2    0.0
 1990 206    22  14.70   6.50  -1.00  2.358  0.724  0.000  0.724  0.000   24.9    0.0   24.9    0.0
 1990 207    23  11.00  12.00   4.00  2.052  0.669  0.000  0.669  0.000   25.6    0.0   25.6    0.0
 1990 208    24  13.50  16.00   1.70  2.617  0.625  0.000  0.625  0.000   26.2    0.0   26.2    0.0
 1990 209    25  14.90  10.20   1.10  2.615  0.588  0.000  0.588  0.000   26.8    0.0   26.8    0.0
 1990 210    26  14.20  12.70  -1.10  2.535  0.558  0.000  0.558  0.000   27.4    0.0   27.4    0.0
 1990 211    27  12.80  12.80  -1.00  2.292  0.531  0.000  0.531  0.000   27.9    0.0   27.9    0.0
 1990 212    28  13.00  14.90  -1.90  2.385  0.508  0.000  0.508  0.000   28.4    0.0   28.4    0.0
 1990 213    29  13.00  17.50   3.80  2.632  0.124  0.000  0.124  0.000   28.5    0.0   28.5    0.0
 1990 214    30  14.40  19.90   3.70  3.014  0.092  0.000  0.092  0.000   28.6    0.0   28.6    0.0
 1990 215    31  14.80  21.50   5.00  3.206  0.090  0.000  0.090  0.000   28.7    0.0   28.7    0.0
 1990 216    32  14.80  21.90   5.70  3.244  0.088  0.000  0.088  0.000   28.8    0.0   28.8    0.0
 1990 217    33  14.50  25.90  10.20  3.479  0.086  0.000  0.086  0.000   28.9    0.0   28.9    0.0
 1990 218    34  15.60  23.40  13.90  3.741  0.085  0.000  0.085  0.000   29.0    0.0   29.0    0.0
 1990 219    35  15.20  25.90  14.40  3.773  0.083  0.000  0.083  0.000   29.1    0.0   29.1    0.0
 1990 220    36  12.90  25.00  12.80  3.126  0.089  0.007  0.082  0.000   29.1    0.0   29.1    0.0
 1990 221    37  14.70  20.50  10.30  3.293  0.090  0.009  0.081  0.000   29.2    0.0   29.2    0.0
 1990 222    38  15.10  22.30   8.90  3.421  0.548  0.010  0.538  0.000   29.8    0.0   29.8    0.0
 1990 223    39  15.40  28.00  11.90  3.840  0.525  0.011  0.514  0.000   30.3    0.0   30.3    0.0
 1990 224    40  15.30  28.40  12.10  3.838  0.505  0.011  0.493  0.000   30.8    0.0   30.8    0.0
 1990 225    41  14.50  28.00  12.80  3.640  0.487  0.013  0.475  0.000   31.3    0.1   31.2    0.0
 1990 226    42   5.20  25.80  14.90  1.292  0.375  0.013  0.362  0.000   31.7    0.1   31.6    0.0
 1990 227    43   7.50  15.80  10.50  1.576  0.088  0.015  0.073  0.000   31.8    0.1   31.7    0.0
 1990 228    44  14.80  18.90   8.50  3.186  3.186  0.059  3.126  0.000   34.9    0.1   34.8    0.0
 1990 229    45  16.80  21.40   7.70  3.711  3.383  0.091  3.292  0.000   38.3    0.2   38.1    0.0
 1990 230    46  16.20  20.80   6.00  3.491  3.155  0.112  3.043  0.000   41.5    0.4   41.1    0.0
 1990 231    47  12.80  20.80  10.40  2.866  1.550  0.111  1.440  0.000   43.0    0.5   42.6    0.0
 1990 232    48  17.30  21.00  10.30  3.876  1.293  0.185  1.108  0.000   44.3    0.6   43.7    0.0
 1990 233    49  14.80  20.90   6.70  3.202  1.119  0.184  0.935  0.000   45.4    0.8   44.6    0.0
 1990 234    50  13.00  18.40   8.30  2.755  1.004  0.180  0.824  0.000   46.4    1.0   45.4    0.0
 1990 235    51  17.00  15.60   4.40  3.329  0.988  0.242  0.746  0.000   47.4    1.3   46.2    0.0
 1990 236    52  11.20  18.10   3.70  2.260  0.854  0.168  0.686  0.000   48.3    1.4   46.9    0.0
 1990 237    53  13.00  24.60   9.60  3.020  0.865  0.226  0.639  0.000   49.2    1.6   47.5    0.0
 1990 238    54  16.40  25.50  11.70  3.912  0.946  0.347  0.600  0.000   50.1    2.0   48.1    0.0
 1990 239    55   6.80  17.60   5.50  1.379  1.379  0.146  1.233  0.000   51.5    2.1   49.3    0.0
 1990 240    56  18.80   9.70   2.00  3.250  3.250  0.362  2.888  0.000   54.7    2.5   52.2    0.0
 1990 241    57  17.80  14.60  -1.20  3.229  3.229  0.305  2.924  0.000   58.0    2.8   55.2    0.0
 1990 242    58  16.80  21.80   2.90  3.559  2.279  0.170  2.108  0.000   60.2    3.0   57.3    0.0
 1990 243    59   5.50  11.80   5.50  1.031  1.031  0.054  0.977  0.000   61.3    3.0   58.2    0.0
 1990 244    60  10.70  10.20   0.80  1.856  1.194  0.099  1.095  0.000   62.5    3.1   59.3    0.0
 1990 245    61  17.70  11.60  -2.30  3.043  2.764  0.119  2.645  0.000   65.2    3.2   62.0    0.0
 1990 246    62  19.80  16.80   2.50  3.909  1.459  0.049  1.410  0.000   66.7    3.3   63.4    0.0
 1990 247    63   5.60  16.40   7.10  1.149  1.113  0.018  1.095  0.000   67.8    3.3   64.5    0.0
 1990 248    64   6.00  18.60  13.40  1.343  0.958  0.031  0.927  0.000   68.8    3.3   65.4    0.0
 1990 249    65   5.70  15.40  13.40  1.220  1.220  0.044  1.176  0.000   70.0    3.4   66.6    0.0
 1990 250    66   5.80  15.90  12.80  1.242  1.066  0.049  1.018  0.000   71.0    3.4   67.6    0.0
 1990 251    67   5.80  14.30  10.30  1.186  1.186  0.051  1.135  0.000   72.2    3.5   68.7    0.0
 1990 252    68  19.70  23.50   7.80  4.462  4.462  0.207  4.255  0.000   76.7    3.7   73.0    0.0
 1990 253    69  15.20  27.50  11.60  3.723  2.579  0.252  2.326  0.000   79.3    3.9   75.3    0.0
 1990 254    70   9.60  23.10  10.70  2.203  2.203  0.199  2.004  0.000   81.5    4.1   77.3    0.0
 1990 255    71  17.10  13.80   5.20  3.268  3.268  0.354  2.914  0.000   84.7    4.5   80.2    0.0
 1990 256    72  18.80  11.80   2.70  3.383  2.634  0.429  2.205  0.000   87.4    4.9   82.4    0.0
 1990 257    73  20.40  14.20   0.50  3.726  3.024  0.471  2.553  0.000   90.4    5.4   85.0    0.0
 1990 258    74  21.40  18.40   3.40  4.312  1.801  0.401  1.400  0.000   92.2    5.8   86.4    0.0
 1990 259    75  17.80  21.60   7.90  3.906  1.471  0.381  1.090  0.000   93.7    6.2   87.5    0.0
 1990 260    76  10.60  17.70  10.60  2.254  1.191  0.267  0.924  0.000   94.9    6.5   88.4    0.0
 1990 261    77   9.30  17.90  11.00  1.985  1.985  0.270  1.715  0.000   96.8    6.7   90.1    0.0
 1990 262    78  13.80  17.70  10.00  2.902  2.902  0.449  2.454  0.000   99.8    7.2   92.6    0.0
 1990 263    79   6.40  17.90  13.30  1.386  1.386  0.243  1.143  0.000  101.1    7.4   93.7    0.0
 1990 264    80   6.40  20.50  15.80  1.461  1.264  0.281  0.983  0.000  102.4    7.7   94.7    0.0
 1990 265    81  20.10  18.60   9.20  4.213  4.103  0.886  3.217  0.000  106.5    8.6   97.9    0.0
 1990 266    82  18.60  13.50   5.40  3.479  2.259  0.812  1.446  0.000  108.8    9.4   99.4    0.0
 1990 267    83  22.30  15.00   3.20  4.172  2.098  0.988  1.111  0.000  110.9   10.4  100.5    0.0
 1990 268    84  23.20  16.30   3.10  4.428  1.946  1.009  0.937  0.000  112.8   11.4  101.4    0.0
 1990 269    85  23.40  20.50   5.10  4.842  1.894  1.068  0.826  0.000  114.7   12.5  102.2    0.0
 1990 270    86  21.30  24.00   8.90  4.761  1.893  1.147  0.746  0.000  116.6   13.6  103.0    0.0
 1990 271    87   6.80  21.70  12.20  1.510  1.101  0.415  0.687  0.000  117.7   14.0  103.7    0.0
 1990 272    88  19.30  22.00  11.30  4.251  1.927  1.288  0.639  0.000  119.6   15.3  104.3    0.0
 1990 273    89  19.30  25.20   8.90  4.320  2.036  1.436  0.600  0.000  121.7   16.7  104.9    0.0
 1990 274    90  21.70  28.10  12.90  5.173  2.446  1.878  0.568  0.000  124.1   18.6  105.5    0.0
 1990 275    91  24.20  24.00  11.90  5.411  2.734  2.194  0.540  0.000  126.8   20.8  106.0    0.0
 1990 276    92  21.80  26.60  13.30  5.059  2.761  2.245  0.516  0.000  129.6   23.1  106.5    0.0
 1990 277    93  17.90  30.10  17.50  4.438  2.654  2.160  0.495  0.000  132.3   25.2  107.0    0.0
 1990 278    94   7.10  19.10  17.30  1.531  1.300  0.824  0.476  0.000  133.6   26.0  107.5    0.0
 1990 279    95   9.40  22.70  17.20  2.109  2.109  1.191  0.918  0.000  135.7   27.2  108.4    0.0
 1990 280    96   7.20  21.60  17.70  1.592  1.592  0.951  0.641  0.000  137.3   28.2  109.1    0.0
 1990 281    97  11.50  20.40  13.70  2.415  2.415  1.499  0.916  0.000  139.7   29.7  110.0    0.0
 1990 282    98  23.40  22.30   9.50  4.842  4.842  3.101  1.741  0.000  144.5   32.8  111.7    0.0
 1990 283    99  21.00  22.30  11.30  4.401  4.401  2.898  1.503  0.000  148.9   35.7  113.2    0.0
 1990 284   100   9.00  22.10  14.50  1.927  1.927  1.306  0.621  0.000  150.8   37.0  113.9    0.0
 1990 285   101  25.50  19.40  11.30  5.116  5.116  3.574  1.542  0.000  156.0   40.6  115.4    0.0
 1990 286   102  26.10  21.60   7.60  5.207  5.207  3.710  1.497  0.000  161.2   44.3  116.9    0.0
 1990 287   103  24.80  22.60  11.50  5.176  5.176  3.749  1.426  0.000  166.3   48.0  118.3    0.0
 1990 288   104  25.50  20.10   8.90  5.024  5.024  3.718  1.306  0.000  171.4   51.7  119.6    0.0
 1990 289   105  26.40  20.50   5.00  5.039  4.628  3.782  0.846  0.000  176.0   55.5  120.5    0.0
 1990 290   106  15.20  21.40   8.90  3.040  3.040  2.298  0.742  0.000  179.0   57.8  121.2    0.0
 1990 291   107  24.50  24.40  14.30  5.318  5.318  4.078  1.240  0.000  184.3   61.9  122.4    0.0
 1990 292   108  17.30  24.00  15.30  3.758  3.758  2.945  0.814  0.000  188.1   64.8  123.3    0.0
 1990 293   109  16.40  23.70  15.70  3.553  3.553  2.840  0.713  0.000  191.7   67.7  124.0    0.0
 1990 294   110  22.20  24.00  14.20  4.759  4.759  3.874  0.885  0.000  196.4   71.6  124.9    0.0
 1990 295   111  27.10  24.80  13.10  5.803  5.803  4.798  1.005  0.000  202.2   76.4  125.9    0.0
 1990 296   112  21.10  25.60  13.10  4.555  4.555  3.820  0.735  0.000  206.8   80.2  126.6    0.0
 1990 297   113  20.80  22.20  13.80  4.324  4.324  3.675  0.649  0.000  211.1   83.9  127.3    0.0
 1990 298   114  14.30  24.70  11.80  3.012  3.012  2.588  0.424  0.000  214.1   86.4  127.7    0.0
 1990 299   115  25.10  27.10  16.30  5.630  5.630  4.912  0.718  0.000  219.7   91.4  128.4    0.0
 1990 300   116  19.60  28.30  17.00  4.471  4.471  3.969  0.502  0.000  224.2   95.3  128.9    0.0
 1990 301   117   8.80  23.80  18.50  1.925  1.925  1.727  0.198  0.000  226.1   97.0  129.1    0.0
 1990 302   118  12.20  27.40  20.40  2.822  2.822  2.540  0.281  0.000  229.0   99.6  129.4    0.0
 1990 303   119  26.40  28.80  17.90  6.084  6.084  5.502  0.582  0.000  235.0  105.1  130.0    0.0
 1990 304   120  26.50  23.20  15.80  5.622  5.622  5.120  0.502  0.000  240.7  110.2  130.5    0.0
 1990 305   121  23.10  24.10  16.70  4.988  4.988  4.562  0.426  0.000  245.7  114.8  130.9    0.0
 1990 306   122  20.10  27.00  14.30  4.405  4.405  4.045  0.360  0.000  250.1  118.8  131.2    0.0
 1990 307   123  11.80  28.10  20.80  2.751  2.751  2.535  0.216  0.000  252.8  121.4  131.5    0.0
 1990 308   124  21.00  22.20  10.80  4.213  4.213  3.891  0.322  0.000  257.0  125.2  131.8    0.0
 1990 309   125  28.80  19.00   6.40  5.321  5.321  4.921  0.399  0.000  262.3  130.2  132.2    0.0
 1990 310   126  17.40  21.20   9.80  3.415  3.415  3.160  0.255  0.000  265.8  133.3  132.4    0.0
 1990 311   127  23.40  23.50  13.50  4.880  4.880  4.520  0.360  0.000  270.6  137.8  132.8    0.0
 1990 312   128   8.40  18.40  11.30  1.609  1.609  1.493  0.116  0.000  272.2  139.3  132.9    0.0
 1990 313   129  16.20  22.30  15.10  3.372  3.372  3.131  0.240  0.000  275.6  142.5  133.2    0.0
 1990 314   130  21.20  24.80  13.70  4.497  4.497  4.183  0.314  0.000  280.1  146.7  133.5    0.0
 1990 315   131  23.60  27.00  15.30  5.204  5.204  4.849  0.354  0.000  285.3  151.5  133.8    0.0
 1990 316   132  12.20  24.60  14.20  2.591  2.591  2.420  0.171  0.000  287.9  153.9  134.0    0.0
 1990 317   133  26.70  34.90  18.50  6.575  6.575  6.149  0.426  0.000  294.5  160.1  134.4    0.0
 1990 318   134  15.90  33.00  20.80  3.901  3.901  3.644  0.257  0.000  298.4  163.7  134.7    0.0
 1990 319   135   8.60  23.20  17.30  1.841  1.841  1.718  0.123  0.000  300.2  165.4  134.8    0.0
 1990 320   136  17.60  22.10  12.20  3.564  3.564  3.323  0.241  0.000  303.8  168.8  135.0    0.0
 1990 321   137  28.70  26.10   9.30  5.966  5.966  5.558  0.408  0.000  309.8  174.3  135.4    0.0
 1990 322   138  27.80  29.70  16.50  6.381  6.381  5.941  0.441  0.000  316.1  180.3  135.9    0.0
 1990 323   139  27.10  33.40  21.80  6.726  6.726  6.258  0.469  0.000  322.9  186.5  136.4    0.0
 1990 324   140  12.20  28.00  21.10  2.844  2.844  2.644  0.200  0.000  325.7  189.2  136.6    0.0
 1990 325   141  30.70  28.70  18.80  7.091  7.091  6.589  0.501  0.000  332.8  195.7  137.1    0.0
 1990 326   142  28.10  28.00  15.30  6.271  6.271  5.824  0.447  0.000  339.1  201.6  137.5    0.0
 1990 327   143  29.80  28.20  14.20  6.610  6.610  6.136  0.474  0.000  345.7  207.7  138.0    0.0
 1990 328   144  25.60  28.70  16.80  5.826  5.826  5.405  0.421  0.000  351.5  213.1  138.4    0.0
 1990 329   145  20.10  29.20  18.20  4.649  4.649  4.311  0.338  0.000  356.2  217.4  138.7    0.0
 1990 330   146  22.90  24.90  15.80  4.948  4.948  4.588  0.360  0.000  361.1  222.0  139.1    0.0
 1990 331   147  30.40  21.20  10.00  5.975  5.975  5.540  0.435  0.000  367.1  227.5  139.5    0.0
 1990 332   148  30.90  24.60   9.00  6.291  6.291  5.834  0.458  0.000  373.4  233.4  140.0    0.0
 1990 333   149  31.00  27.10  12.20  6.682  6.682  6.196  0.486  0.000  380.1  239.6  140.5    0.0
 1990 334   150  14.90  26.80  14.90  3.269  3.269  3.032  0.238  0.000  383.3  242.6  140.7    0.0
 1990 335   151  23.40  26.40  14.70  5.102  5.102  4.731  0.371  0.000  388.4  247.3  141.1    0.0
 1990 336   152   9.00  23.50  14.10  1.886  1.886  1.749  0.137  0.000  390.3  249.1  141.2    0.0
 1990 337   153  30.10  22.90  11.40  6.121  6.121  5.674  0.447  0.000  396.4  254.8  141.7    0.0
 1990 338   154  28.70  27.90  10.60  6.167  6.167  5.714  0.453  0.000  402.6  260.5  142.1    0.0
 1990 339   155  16.80  32.30  20.30  4.081  4.081  3.779  0.302  0.000  406.7  264.3  142.4    0.0
 1990 340   156  16.80  25.60  17.50  3.710  3.710  3.434  0.277  0.000  410.4  267.7  142.7    0.0
 1990 341   157  26.90  25.20  16.00  5.844  5.844  5.403  0.441  0.000  416.2  273.1  143.1    0.0
 1990 342   158  30.30  25.00  12.00  6.360  6.360  5.873  0.487  0.000  422.6  279.0  143.6    0.0
 1990 343   159   9.00  19.70  14.20  1.800  1.800  1.660  0.140  0.000  424.4  280.6  143.8    0.0
 1990 344   160   9.10  19.50  15.90  1.843  1.843  1.696  0.147  0.000  426.2  282.3  143.9    0.0
 1990 345   161  24.70  25.00  14.70  5.303  5.303  4.871  0.431  0.000  431.5  287.2  144.3    0.0
 1990 346   162  14.70  22.00  10.50  2.936  2.936  2.692  0.244  0.000  434.5  289.9  144.6    0.0
 1990 347   163  19.00  24.00  14.30  4.019  4.019  3.676  0.343  0.000  438.5  293.6  144.9    0.0
 1990 348   164  29.20  21.90  10.30  5.819  5.819  5.308  0.510  0.000  444.3  298.9  145.4    0.0
 1990 349   165  31.80  27.30  10.90  6.816  6.816  6.200  0.616  0.000  451.1  305.1  146.1    0.0
 1990 350   166  28.70  30.20  13.70  6.508  6.508  5.902  0.606  0.000  457.6  311.0  146.7    0.0
 1990 351   167  14.40  30.10  18.00  3.370  3.370  3.046  0.323  0.000  461.0  314.0  147.0    0.0
 1990 352   168  27.40  25.60  17.30  6.062  6.062  5.461  0.602  0.000  467.1  319.5  147.6    0.0
 1990 353   169  31.40  25.60  14.40  6.794  6.794  6.094  0.699  0.000  473.9  325.6  148.3    0.0
 1990 354   170  31.60  27.10  14.00  6.942  6.942  6.199  0.743  0.000  480.8  331.8  149.0    0.0
 1990 355   171  25.60  29.80  15.90  5.890  5.890  5.234  0.657  0.000  486.7  337.0  149.7    0.0
 1990 356   172  10.00  25.70  19.00  2.250  2.250  1.988  0.262  0.000  488.9  339.0  150.0    0.0
 1990 357   173  19.50  28.40  17.80  4.487  4.487  3.940  0.546  0.000  493.4  342.9  150.5    0.0
 1990 358   174  13.10  24.40  15.50  2.828  2.828  2.467  0.361  0.000  496.3  345.4  150.9    0.0
 1990 359   175  29.40  25.70  12.70  6.309  6.309  5.464  0.845  0.000  502.6  350.9  151.7    0.0
 1990 360   176  31.40  31.30  15.30  7.345  7.345  6.311  1.034  0.000  509.9  357.2  152.7    0.0
 1990 361   177  31.40  31.50  18.00  7.516  7.516  6.404  1.112  0.000  517.4  363.6  153.9    0.0
 1990 362   178  31.40  21.00  13.30  6.407  6.407  5.408  1.000  0.000  523.8  369.0  154.9    0.0
 1990 363   179  29.60  23.30   9.40  6.024  6.024  5.032  0.992  0.000  529.9  374.0  155.8    0.0
 1990 364   180  30.80  27.20  11.40  6.698  6.495  5.534  0.961  0.000  536.4  379.6  156.8    0.0
 1990 365   181  31.50  29.40  14.80  7.228  7.228  5.905  1.324  0.000  543.6  385.5  158.1    0.0
 1991 001   182  24.30  31.60  17.10  5.822  5.822  4.699  1.123  0.000  549.4  390.2  159.3    0.0
 1991 002   183  24.10  29.20  20.30  5.766  5.766  4.594  1.172  0.000  555.2  394.8  160.4    0.0
 1991 003   184  26.70  29.10  17.40  6.255  6.249  4.915  1.334  0.000  561.4  399.7  161.8    0.0
 1991 004   185  31.30  28.60  13.40  7.084  6.541  5.483  1.058  0.000  568.0  405.1  162.8    0.0
 1991 005   186  31.30  28.20  13.80  7.086  6.301  5.396  0.905  0.000  574.3  410.5  163.7    0.0
 1991 006   187  31.30  30.20  13.00  7.221  6.209  5.405  0.804  0.000  580.5  416.0  164.5    0.0
 1991 007   188  29.60  32.40  17.10  7.230  6.043  5.313  0.730  0.000  586.5  421.3  165.3    0.0
 1991 008   189  29.90  34.30  19.30  7.570  6.237  5.563  0.674  0.000  592.8  426.8  165.9    0.0
 1991 009   190   9.90  24.30  21.30  2.279  2.279  1.675  0.604  0.000  595.0  428.5  166.5    0.0

*DSSAT Cropping System Model Ver. 4.0.2.000               Jul 19, 2016; 12:53:16

*RUN   2        : UYMZ                    
 MODEL          : MZCER040 - Maize           
 EXPERIMENT     : UYMZ0006 MZ    late to create DSS                             
 TREATMENT  1   : UYMZ                    

@YEAR DOY   DAS   SRAA   TMXA   TMNA   EOAA   ETAA   EPAA   ESAA   EFAD   ETAC   EPAC   ESAC   EFAC
 1991 184     0  12.70   8.30   5.30  2.263  1.546  0.000  1.546  0.000    1.5    0.0    1.5    0.0
 1991 185     1   8.50   9.00   0.20  1.446  1.153  0.000  1.153  0.000    2.7    0.0    2.7    0.0
 1991 186     2   9.30  13.20  -1.60  1.665  0.962  0.000  0.962  0.000    3.7    0.0    3.7    0.0
 1991 187     3  10.70  15.90   6.50  2.172  0.842  0.000  0.842  0.000    4.5    0.0    4.5    0.0
 1991 188     4  10.70  17.20   4.00  2.161  0.759  0.000  0.759  0.000    5.3    0.0    5.3    0.0
 1991 189     5   5.00  18.00   6.90  1.050  0.696  0.000  0.696  0.000    6.0    0.0    6.0    0.0
 1991 190     6   6.60  23.80  11.10  1.554  0.647  0.000  0.647  0.000    6.6    0.0    6.6    0.0
 1991 191     7   7.30  12.70   5.20  1.394  1.394  0.000  1.394  0.000    8.0    0.0    8.0    0.0
 1991 192     8   7.30   9.90   2.10  1.289  1.289  0.000  1.289  0.000    9.3    0.0    9.3    0.0
 1991 193     9   6.40   8.10   1.00  1.082  1.082  0.000  1.082  0.000   10.4    0.0   10.4    0.0
 1991 194    10  11.80   8.20  -1.10  1.950  1.346  0.000  1.346  0.000   11.7    0.0   11.7    0.0
 1991 195    11  11.40  10.00  -1.70  1.931  1.931  0.000  1.931  0.000   13.6    0.0   13.6    0.0
 1991 196    12  12.40  12.60  -2.10  2.186  1.669  0.000  1.669  0.000   15.3    0.0   15.3    0.0
 1991 197    13   8.10  16.00   5.80  1.636  1.200  0.000  1.200  0.000   16.5    0.0   16.5    0.0
 1991 198    14   8.40  22.00   9.90  1.913  0.988  0.000  0.988  0.000   17.5    0.0   17.5    0.0
 1991 199    15   3.90  16.90   8.70  0.820  0.820  0.000  0.820  0.000   18.3    0.0   18.3    0.0
 1991 200    16  10.60  15.00   5.60  2.105  2.105  0.000  2.105  0.000   20.4    0.0   20.4    0.0
 1991 201    17   9.40  24.20  12.80  2.256  2.256  0.000  2.256  0.000   22.7    0.0   22.7    0.0
 1991 202    18   4.00  12.80   8.00  0.787  0.787  0.000  0.787  0.000   23.5    0.0   23.5    0.0
 1991 203    19   4.00   8.40   6.60  0.724  0.724  0.000  0.724  0.000   24.2    0.0   24.2    0.0
 1991 204    20   8.20  10.20   4.80  1.499  1.499  0.000  1.499  0.000   25.7    0.0   25.7    0.0
 1991 205    21  14.00  15.90   2.30  2.726  2.726  0.000  2.726  0.000   28.4    0.0   28.4    0.0
 1991 206    22  14.10  16.80   2.80  2.797  2.388  0.000  2.388  0.000   30.8    0.0   30.8    0.0
 1991 207    23  14.30  24.00   9.10  3.320  2.940  0.000  2.940  0.000   33.7    0.0   33.7    0.0
 1991 208    24  14.40  27.10  10.20  3.506  1.434  0.000  1.434  0.000   35.2    0.0   35.2    0.0
 1991 209    25  13.80  26.30  14.20  3.436  1.106  0.000  1.106  0.000   36.3    0.0   36.3    0.0
 1991 210    26  11.00  25.20  16.10  2.744  0.940  0.006  0.934  0.000   37.2    0.0   37.2    0.0
 1991 211    27   4.20  20.20   8.80  0.925  0.828  0.004  0.823  0.000   38.1    0.0   38.0    0.0
 1991 212    28  11.30  15.40   5.60  2.255  2.255  0.013  2.243  0.000   40.3    0.0   40.3    0.0
 1991 213    29  15.40   6.50   0.50  2.513  2.513  0.015  2.498  0.000   42.8    0.0   42.8    0.0
 1991 214    30  13.80   9.60  -1.80  2.317  1.898  0.010  1.888  0.000   44.7    0.0   44.7    0.0
 1991 215    31  14.00  11.90  -0.90  2.471  2.471  0.004  2.467  0.000   47.2    0.1   47.1    0.0
 1991 216    32   4.40  10.90   4.00  0.806  0.806  0.001  0.806  0.000   48.0    0.1   47.9    0.0
 1991 217    33  14.60  15.00   4.30  2.861  2.861  0.003  2.859  0.000   50.9    0.1   50.8    0.0
 1991 218    34   4.50   9.70   1.90  0.790  0.790  0.001  0.789  0.000   51.7    0.1   51.6    0.0
 1991 219    35   7.50  15.40   2.30  1.449  1.449  0.001  1.448  0.000   53.1    0.1   53.0    0.0
 1991 220    36  11.00  16.70   7.50  2.281  1.409  0.002  1.406  0.000   54.5    0.1   54.5    0.0
 1991 221    37   5.10  15.70  10.40  1.071  1.071  0.002  1.069  0.000   55.6    0.1   55.5    0.0
 1991 222    38   4.80  11.90   8.10  0.932  0.932  0.003  0.930  0.000   56.5    0.1   56.4    0.0
 1991 223    39   7.80  13.10   5.60  1.504  1.504  0.005  1.499  0.000   58.0    0.1   57.9    0.0
 1991 224    40  12.50  15.80   1.50  2.409  1.148  0.009  1.139  0.000   59.2    0.1   59.1    0.0
 1991 225    41  11.60  18.50   7.30  2.461  0.962  0.008  0.954  0.000   60.1    0.1   60.0    0.0
 1991 226    42  15.20  25.70  10.80  3.654  0.853  0.016  0.837  0.000   61.0    0.1   60.9    0.0
 1991 227    43  10.70  25.30  15.40  2.655  0.773  0.018  0.755  0.000   61.8    0.1   61.6    0.0
 1991 228    44  12.60  27.30  14.40  3.172  0.746  0.053  0.693  0.000   62.5    0.2   62.3    0.0
 1991 229    45  16.10  24.70  11.80  3.840  0.755  0.110  0.644  0.000   63.3    0.3   63.0    0.0
 1991 230    46   9.30  23.80  13.60  2.223  0.692  0.088  0.605  0.000   63.9    0.4   63.6    0.0
 1991 231    47  12.70  26.00  10.90  3.045  0.727  0.155  0.571  0.000   64.7    0.5   64.1    0.0
 1991 232    48   9.30  26.00  11.80  2.242  0.686  0.143  0.543  0.000   65.4    0.7   64.7    0.0
 1991 233    49  14.70  26.00  11.60  3.531  0.792  0.274  0.519  0.000   66.2    0.9   65.2    0.0
 1991 234    50  13.80  26.40  14.60  3.404  0.813  0.315  0.497  0.000   67.0    1.3   65.7    0.0
 1991 235    51  16.70  21.60  14.50  3.871  0.908  0.430  0.478  0.000   67.9    1.7   66.2    0.0
 1991 236    52  16.20  20.70   9.90  3.560  0.913  0.452  0.461  0.000   68.8    2.1   66.6    0.0
 1991 237    53  14.10  24.70  11.10  3.289  0.904  0.458  0.446  0.000   69.7    2.6   67.1    0.0
 1991 238    54   5.40  16.90  11.90  1.143  0.612  0.179  0.432  0.000   70.3    2.8   67.5    0.0
 1991 239    55   5.30  16.20  10.20  1.092  1.092  0.183  0.908  0.000   71.4    3.0   68.4    0.0
 1991 240    56  10.80  21.40  12.10  2.423  0.882  0.429  0.453  0.000   72.3    3.4   68.9    0.0
 1991 241    57  10.70  22.80  14.40  2.484  0.920  0.481  0.439  0.000   73.2    3.9   69.3    0.0
 1991 242    58   7.30  24.20  16.00  1.741  0.799  0.374  0.425  0.000   74.0    4.2   69.8    0.0
 1991 243    59   5.50  16.80  11.00  1.138  1.138  0.272  0.866  0.000   75.1    4.5   70.6    0.0
 1991 244    60   9.40  16.10   8.10  1.872  1.872  0.469  1.402  0.000   77.0    5.0   72.0    0.0
 1991 245    61   5.50  17.90  11.20  1.154  0.982  0.299  0.682  0.000   78.0    5.3   72.7    0.0
 1991 246    62  10.50  22.80  14.00  2.401  2.401  0.655  1.746  0.000   80.4    5.9   74.4    0.0
 1991 247    63  18.10  25.80  13.20  4.251  3.284  1.256  2.029  0.000   83.7    7.2   76.5    0.0
 1991 248    64  18.40  27.20  13.90  4.401  2.726  1.419  1.307  0.000   86.4    8.6   77.8    0.0
 1991 249    65   5.70  22.50  16.00  1.303  1.303  0.466  0.837  0.000   87.7    9.1   78.6    0.0
 1991 250    66   5.80  17.20  12.80  1.201  1.201  0.456  0.745  0.000   88.9    9.5   79.4    0.0
 1991 251    67   6.40  17.10  10.50  1.293  1.253  0.515  0.738  0.000   90.2   10.1   80.1    0.0
 1991 252    68  15.60  20.00   8.40  3.208  3.208  1.329  1.880  0.000   93.4   11.4   82.0    0.0
 1991 253    69  17.50  22.00  10.20  3.747  3.669  1.607  2.062  0.000   97.0   13.0   84.0    0.0
 1991 254    70  20.20  25.00  10.80  4.500  3.346  2.032  1.315  0.000  100.4   15.0   85.4    0.0
 1991 255    71  19.90  27.80  14.10  4.688  3.298  2.250  1.049  0.000  103.7   17.3   86.4    0.0
 1991 256    72  15.40  30.70  16.10  3.788  2.843  1.944  0.899  0.000  106.5   19.2   87.3    0.0
 1991 257    73   6.10  21.00   7.80  1.239  1.239  0.684  0.554  0.000  107.8   19.9   87.9    0.0
 1991 258    74   6.20  12.30   8.20  1.114  1.114  0.632  0.482  0.000  108.9   20.5   88.3    0.0
 1991 259    75  11.50  23.50  12.40  2.502  2.502  1.434  1.067  0.000  111.4   22.0   89.4    0.0
 1991 260    76   6.30  21.10  17.10  1.377  1.377  0.827  0.550  0.000  112.8   22.8   90.0    0.0
 1991 261    77  18.90  19.70  13.10  3.910  3.910  2.441  1.469  0.000  116.7   25.2   91.4    0.0
 1991 262    78  21.70  17.30   8.80  4.170  4.170  2.681  1.489  0.000  120.8   27.9   92.9    0.0
 1991 263    79  13.10  22.60   8.30  2.688  2.688  1.756  0.932  0.000  123.5   29.7   93.8    0.0
 1991 264    80  11.00  27.50  12.60  2.480  2.480  1.661  0.820  0.000  126.0   31.3   94.7    0.0
 1991 265    81  20.40  20.30  10.30  4.107  4.107  2.854  1.253  0.000  130.1   34.2   95.9    0.0
 1991 266    82  21.60  16.90   3.20  3.873  3.436  2.745  0.691  0.000  133.5   36.9   96.6    0.0
 1991 267    83  22.30  19.00   4.90  4.204  4.204  2.883  1.321  0.000  137.7   39.8   97.9    0.0
 1991 268    84  20.30  21.10   8.70  4.075  4.075  2.817  1.258  0.000  141.8   42.6   99.2    0.0
 1991 269    85  21.70  23.40   7.80  4.446  4.446  3.132  1.314  0.000  146.3   45.8  100.5    0.0
 1991 270    86  17.70  27.80  13.80  4.014  4.014  2.884  1.129  0.000  150.3   48.6  101.6    0.0
 1991 271    87  22.20  16.10   9.00  4.141  4.063  3.070  0.992  0.000  154.3   51.7  102.6    0.0
 1991 272    88  21.80  18.00   7.50  4.114  3.942  3.079  0.863  0.000  158.3   54.8  103.5    0.0
 1991 273    89  21.10  20.20   9.70  4.183  3.934  3.160  0.774  0.000  162.2   58.0  104.3    0.0
 1991 274    90  19.70  18.40   7.00  3.712  3.551  2.844  0.707  0.000  165.8   60.8  105.0    0.0
 1991 275    91  22.00  18.40   5.70  4.091  3.817  3.162  0.656  0.000  169.6   64.0  105.6    0.0
 1991 276    92  23.00  19.80   3.80  4.281  3.948  3.334  0.614  0.000  173.5   67.3  106.2    0.0
 1991 277    93  19.10  21.70   6.30  3.740  3.456  2.877  0.579  0.000  177.0   70.2  106.8    0.0
 1991 278    94   7.10  13.60  10.60  1.291  1.291  1.004  0.286  0.000  178.3   71.2  107.1    0.0
 1991 279    95  13.30  12.50   7.00  2.293  2.293  1.796  0.497  0.000  180.6   73.0  107.6    0.0
 1991 280    96  14.80  14.20   4.00  2.539  2.539  1.994  0.545  0.000  183.1   75.0  108.1    0.0
 1991 281    97  23.60  16.90   3.90  4.219  4.219  3.269  0.950  0.000  187.3   78.2  109.1    0.0
 1991 282    98  20.30  20.90   7.30  3.970  3.970  3.037  0.933  0.000  191.3   81.3  110.0    0.0
 1991 283    99  24.30  23.10   7.20  4.883  4.883  3.778  1.105  0.000  196.2   85.1  111.1    0.0
 1991 284   100  24.30  25.00   8.70  5.061  5.061  3.967  1.094  0.000  201.3   89.0  112.2    0.0
 1991 285   101  24.40  29.20  12.20  5.492  5.492  4.370  1.122  0.000  206.7   93.4  113.4    0.0
 1991 286   102  21.90  33.00  20.00  5.435  5.126  4.413  0.713  0.000  211.9   97.8  114.1    0.0
 1991 287   103  11.80  32.00  21.10  2.911  2.911  2.427  0.484  0.000  214.8  100.2  114.6    0.0
 1991 288   104   7.50  23.50  17.60  1.635  1.635  1.380  0.255  0.000  216.4  101.6  114.8    0.0
 1991 289   105   7.60  17.80  11.60  1.464  1.464  1.243  0.221  0.000  217.9  102.9  115.0    0.0
 1991 290   106  15.50  16.00   8.40  2.824  2.824  2.412  0.412  0.000  220.7  105.3  115.4    0.0
 1991 291   107  26.30  21.50   8.40  5.168  5.168  4.423  0.745  0.000  225.9  109.7  116.2    0.0
 1991 292   108  26.30  24.60  11.00  5.496  5.496  4.727  0.769  0.000  231.4  114.4  117.0    0.0
 1991 293   109  26.30  24.90  12.50  5.567  5.567  4.916  0.652  0.000  236.9  119.3  117.6    0.0
 1991 294   110  24.40  29.60  14.20  5.526  5.526  4.938  0.588  0.000  242.5  124.3  118.2    0.0
 1991 295   111  20.20  29.90  19.80  4.781  4.781  4.309  0.471  0.000  247.2  128.6  118.7    0.0
 1991 296   112   8.30  19.10  12.60  1.628  1.628  1.477  0.151  0.000  248.9  130.1  118.8    0.0
 1991 297   113   7.90  17.40  10.20  1.482  1.482  1.345  0.138  0.000  250.4  131.4  119.0    0.0
 1991 298   114   7.90  21.30  15.40  1.633  1.633  1.480  0.153  0.000  252.0  132.9  119.1    0.0
 1991 299   115  22.70  24.90  16.30  4.939  4.939  4.473  0.466  0.000  256.9  137.4  119.6    0.0
 1991 300   116  12.20  23.30  14.70  2.570  2.570  2.330  0.240  0.000  259.5  139.7  119.8    0.0
 1991 301   117   8.00  20.10  14.90  1.622  1.622  1.471  0.151  0.000  261.1  141.2  120.0    0.0
 1991 302   118   8.00  16.80  15.20  1.558  1.558  1.411  0.147  0.000  262.7  142.6  120.1    0.0
 1991 303   119   8.10  18.00  14.60  1.594  1.594  1.442  0.152  0.000  264.3  144.0  120.3    0.0
 1991 304   120   8.10  20.70  14.60  1.651  1.651  1.492  0.159  0.000  265.9  145.5  120.4    0.0
 1991 305   121  17.90  22.30  13.70  3.695  3.695  3.334  0.361  0.000  269.6  148.8  120.8    0.0
 1991 306   122  25.50  22.30  12.20  5.199  5.199  4.687  0.512  0.000  274.8  153.5  121.3    0.0
 1991 307   123  20.80  22.80  12.80  4.290  4.290  3.864  0.426  0.000  279.1  157.4  121.7    0.0
 1991 308   124  27.90  25.00  11.90  5.870  5.870  5.283  0.588  0.000  285.0  162.7  122.3    0.0
 1991 309   125  20.90  25.90  13.20  4.493  4.493  4.041  0.453  0.000  289.5  166.7  122.8    0.0
 1991 310   126  11.60  24.30  16.20  2.506  2.506  2.253  0.253  0.000  292.0  169.0  123.0    0.0
 1991 311   127  21.40  22.80  13.70  4.448  4.448  3.996  0.452  0.000  296.4  173.0  123.5    0.0
 1991 312   128  20.00  21.40  12.40  4.040  4.040  3.626  0.414  0.000  300.5  176.6  123.9    0.0
 1991 313   129  27.20  23.90   9.20  5.522  5.522  4.948  0.574  0.000  306.0  181.5  124.5    0.0
 1991 314   130  17.60  25.70  11.30  3.720  3.720  3.327  0.392  0.000  309.7  184.9  124.8    0.0
 1991 315   131  18.50  19.00  10.10  3.552  3.552  3.163  0.389  0.000  313.3  188.0  125.2    0.0
 1991 316   132  27.30  19.00   6.40  5.070  5.070  4.495  0.575  0.000  318.3  192.5  125.8    0.0
 1991 317   133  18.50  21.00   8.40  3.597  3.597  3.178  0.420  0.000  321.9  195.7  126.2    0.0
 1991 318   134   8.50  19.90  12.10  1.684  1.684  1.482  0.202  0.000  323.6  197.2  126.4    0.0
 1991 319   135  11.90  22.20  14.00  2.468  2.468  2.165  0.303  0.000  326.1  199.3  126.7    0.0
 1991 320   136  19.50  23.20  12.10  4.033  4.033  3.526  0.507  0.000  330.1  202.9  127.2    0.0
 1991 321   137  21.50  23.00  11.30  4.407  4.407  3.842  0.566  0.000  334.5  206.7  127.8    0.0
 1991 322   138  23.70  27.00  13.30  5.189  5.189  4.509  0.680  0.000  339.7  211.2  128.5    0.0
 1991 323   139  29.90  21.30  13.80  6.131  5.913  5.313  0.600  0.000  345.6  216.5  129.1    0.0
 1991 324   140  24.60  24.40  13.00  5.210  5.210  4.503  0.708  0.000  350.8  221.0  129.8    0.0
 1991 325   141  29.40  28.60  12.50  6.525  6.525  5.624  0.900  0.000  357.4  226.7  130.7    0.0
 1991 326   142  28.60  33.30  13.80  6.764  6.763  5.816  0.947  0.000  364.1  232.5  131.6    0.0
 1991 327   143  24.90  35.20  18.50  6.273  6.273  5.382  0.891  0.000  370.4  237.9  132.5    0.0
 1991 328   144   8.80  19.10  13.80  1.757  1.757  1.504  0.252  0.000  372.1  239.4  132.8    0.0
 1991 329   145   8.80  18.80  14.20  1.756  1.756  1.501  0.255  0.000  373.9  240.9  133.0    0.0
 1991 330   146  14.10  20.20  12.60  2.827  2.827  2.412  0.415  0.000  376.7  243.3  133.5    0.0
 1991 331   147  22.40  24.20  10.70  4.652  4.652  3.961  0.690  0.000  381.4  247.2  134.1    0.0
 1991 332   148  22.30  29.00  14.90  5.074  5.074  4.309  0.765  0.000  386.5  251.5  134.9    0.0
 1991 333   149  16.00  25.60  19.00  3.614  3.614  3.060  0.554  0.000  390.1  254.6  135.5    0.0
 1991 334   150  30.00  28.20  17.50  6.904  6.904  5.828  1.076  0.000  397.0  260.4  136.5    0.0
 1991 335   151  24.30  27.80  14.60  5.447  5.447  4.583  0.864  0.000  402.4  265.0  137.4    0.0
 1991 336   152  29.40  30.10  14.90  6.785  6.785  5.688  1.097  0.000  409.2  270.7  138.5    0.0
 1991 337   153  15.40  27.50  18.00  3.534  3.534  2.951  0.583  0.000  412.7  273.7  139.1    0.0
 1991 338   154  29.90  31.50  16.10  7.078  7.078  5.888  1.191  0.000  419.8  279.5  140.3    0.0
 1991 339   155  14.60  27.30  18.30  3.354  3.354  2.778  0.576  0.000  423.2  282.3  140.9    0.0
 1991 340   156  29.40  31.80  18.90  7.134  7.134  5.882  1.252  0.000  430.3  288.2  142.1    0.0
 1991 341   157  16.80  27.80  19.00  3.906  3.906  3.205  0.701  0.000  434.2  291.4  142.8    0.0
 1991 342   158  28.30  29.80  17.70  6.668  6.668  5.443  1.224  0.000  440.9  296.8  144.0    0.0
 1991 343   159   9.00  22.80  18.90  1.976  1.976  1.604  0.371  0.000  442.9  298.5  144.4    0.0
 1991 344   160  24.70  27.00  18.80  5.693  5.693  4.596  1.097  0.000  448.5  303.0  145.5    0.0
 1991 345   161  19.50  27.60  17.30  4.477  4.477  3.592  0.885  0.000  453.0  306.6  146.4    0.0
 1991 346   162   9.40  23.80  16.60  2.055  2.055  1.638  0.417  0.000  455.1  308.3  146.8    0.0
 1991 347   163  29.90  28.40  15.10  6.824  6.824  5.401  1.423  0.000  461.9  313.7  148.2    0.0
 1991 348   164   9.40  21.90  16.70  2.013  2.013  1.581  0.431  0.000  463.9  315.3  148.7    0.0
 1991 349   165   9.10  23.50  16.70  1.989  1.989  1.550  0.438  0.000  465.9  316.8  149.1    0.0
 1991 350   166  20.20  26.90  17.10  4.613  4.613  3.566  1.047  0.000  470.5  320.4  150.1    0.0
 1991 351   167  27.60  27.80  17.90  6.414  6.414  4.915  1.499  0.000  476.9  325.3  151.6    0.0
 1991 352   168  26.20  31.10  17.80  6.319  6.319  4.798  1.521  0.000  483.2  330.1  153.2    0.0
 1991 353   169  21.60  31.20  17.50  5.209  5.209  3.916  1.293  0.000  488.5  334.0  154.5    0.0
 1991 354   170  28.80  31.00  18.00  6.964  6.964  5.181  1.783  0.000  495.4  339.2  156.2    0.0
 1991 355   171  23.90  32.40  19.90  5.955  5.955  4.381  1.574  0.000  501.4  343.6  157.8    0.0
 1991 356   172  11.20  27.10  20.30  2.645  2.645  1.923  0.722  0.000  504.0  345.5  158.5    0.0
 1991 357   173  23.80  30.00  19.50  5.777  5.777  4.147  1.630  0.000  509.8  349.6  160.2    0.0
 1991 358   174  27.30  30.80  20.60  6.747  6.747  4.780  1.967  0.000  516.5  354.4  162.1    0.0
 1991 359   175  21.00  25.60  17.40  4.787  4.787  3.346  1.442  0.000  521.3  357.8  163.6    0.0
 1991 360   176  23.90  22.70  13.40  5.102  5.102  3.513  1.589  0.000  526.4  361.3  165.2    0.0
 1991 361   177  29.90  25.20  12.40  6.539  6.539  4.433  2.106  0.000  533.0  365.7  167.3    0.0
 1991 362   178  28.80  26.60  14.90  6.545  6.545  4.366  2.179  0.000  539.5  370.1  169.4    0.0
 1991 363   179  30.80  29.30  14.60  7.218  6.259  4.735  1.525  0.000  545.8  374.8  171.0    0.0
 1991 364   180  23.60  30.40  17.40  5.728  5.728  3.693  2.035  0.000  551.5  378.5  173.0    0.0
 1991 365   181  19.50  33.00  21.10  5.007  4.627  3.170  1.458  0.000  556.1  381.7  174.5    0.0
 1992 001   182  10.80  28.00  20.30  2.617  2.617  1.625  0.991  0.000  558.8  383.3  175.5    0.0
 1992 002   183  19.00  28.60  19.10  4.602  4.602  2.802  1.800  0.000  563.4  386.1  177.3    0.0
 1992 003   184  28.00  23.20  14.20  6.138  6.138  3.660  2.479  0.000  569.5  389.8  179.7    0.0
 1992 004   185  31.30  26.80  14.90  7.206  6.731  4.296  2.434  0.000  576.2  394.1  182.2    0.0
 1992 005   186  30.40  28.90  13.10  7.073  7.073  4.217  2.856  0.000  583.3  398.3  185.0    0.0
 1992 006   187  20.50  27.20  15.70  4.771  4.274  2.845  1.430  0.000  587.6  401.1  186.5    0.0

*DSSAT Cropping System Model Ver. 4.0.2.000               Jul 19, 2016; 12:53:16

*RUN   3        : UYMZ                    
 MODEL          : MZCER040 - Maize           
 EXPERIMENT     : UYMZ0006 MZ    late to create DSS                             
 TREATMENT  1   : UYMZ                    

@YEAR DOY   DAS   SRAA   TMXA   TMNA   EOAA   ETAA   EPAA   ESAA   EFAD   ETAC   EPAC   ESAC   EFAC
 1992 184     0  12.10  13.40   3.90  2.305  2.143  0.000  2.143  0.000    2.1    0.0    2.1    0.0
 1992 185     1  12.10  13.80   1.00  2.250  2.250  0.000  2.250  0.000    4.4    0.0    4.4    0.0
 1992 186     2   3.70  14.00   8.90  0.748  0.748  0.000  0.748  0.000    5.1    0.0    5.1    0.0
 1992 187     3  10.70  11.60   6.10  2.028  1.529  0.000  1.529  0.000    6.7    0.0    6.7    0.0
 1992 188     4  10.20   9.20  -0.50  1.728  1.146  0.000  1.146  0.000    7.8    0.0    7.8    0.0
 1992 189     5  11.40  10.80  -2.00  1.951  0.958  0.000  0.958  0.000    8.8    0.0    8.8    0.0
 1992 190     6  11.30  17.00   2.00  2.231  0.840  0.000  0.840  0.000    9.6    0.0    9.6    0.0
 1992 191     7  11.40  19.50   4.90  2.400  0.757  0.000  0.757  0.000   10.4    0.0   10.4    0.0
 1992 192     8  12.30  23.00   9.50  2.829  0.268  0.000  0.268  0.000   10.6    0.0   10.6    0.0
 1992 193     9  12.30  24.20   9.60  2.875  0.122  0.000  0.122  0.000   10.8    0.0   10.8    0.0
 1992 194    10  12.30  24.60  11.90  2.945  0.118  0.000  0.118  0.000   10.9    0.0   10.9    0.0
 1992 195    11   8.30  25.80  13.80  2.048  0.115  0.000  0.115  0.000   11.0    0.0   11.0    0.0
 1992 196    12   3.90  16.50   4.30  0.782  0.112  0.000  0.112  0.000   11.1    0.0   11.1    0.0
 1992 197    13  11.40   7.10   1.00  1.894  1.894  0.000  1.894  0.000   13.0    0.0   13.0    0.0
 1992 198    14   7.10   6.60  -1.50  1.134  1.134  0.000  1.134  0.000   14.1    0.0   14.1    0.0
 1992 199    15  10.20   9.00  -1.80  1.695  1.695  0.000  1.695  0.000   15.8    0.0   15.8    0.0
 1992 200    16  13.50   6.80   3.40  2.294  2.128  0.000  2.128  0.000   18.0    0.0   18.0    0.0
 1992 201    17   4.00  11.20   2.70  0.726  0.726  0.000  0.726  0.000   18.7    0.0   18.7    0.0
 1992 202    18  12.80  16.30   0.20  2.455  2.455  0.000  2.455  0.000   21.1    0.0   21.1    0.0
 1992 203    19  14.10   9.70   2.30  2.487  1.501  0.000  1.501  0.000   22.6    0.0   22.6    0.0
 1992 204    20  10.40   8.40  -1.50  1.716  1.134  0.000  1.134  0.000   23.8    0.0   23.8    0.0
 1992 205    21  14.60   8.40  -1.30  2.415  0.951  0.000  0.951  0.000   24.7    0.0   24.7    0.0
 1992 206    22   9.40  10.50  -0.90  1.621  0.835  0.000  0.835  0.000   25.6    0.0   25.6    0.0
 1992 207    23  10.70  15.20   3.40  2.085  0.753  0.000  0.753  0.000   26.3    0.0   26.3    0.0
 1992 208    24   4.20  11.80   9.50  0.827  0.692  0.000  0.692  0.000   27.0    0.0   27.0    0.0
 1992 209    25  12.50  14.00   5.80  2.450  2.450  0.000  2.450  0.000   29.5    0.0   29.5    0.0
 1992 210    26   4.20  11.10   3.00  0.764  0.764  0.000  0.764  0.000   30.2    0.0   30.2    0.0
 1992 211    27   9.60  16.80   9.10  2.024  1.200  0.000  1.200  0.000   31.4    0.0   31.4    0.0
 1992 212    28   4.30  13.60   7.50  0.852  0.852  0.000  0.852  0.000   32.3    0.0   32.3    0.0
 1992 213    29   6.30   9.40   3.80  1.124  1.124  0.000  1.124  0.000   33.4    0.0   33.4    0.0
 1992 214    30  13.60   8.80   0.20  2.306  1.006  0.000  1.006  0.000   34.4    0.0   34.4    0.0
 1992 215    31  13.70  12.00   0.10  2.450  0.871  0.000  0.871  0.000   35.3    0.0   35.3    0.0
 1992 216    32  13.70  13.70   0.50  2.530  0.780  0.000  0.780  0.000   36.1    0.0   36.1    0.0
 1992 217    33  10.00  12.50   1.20  1.825  0.712  0.000  0.712  0.000   36.8    0.0   36.8    0.0
 1992 218    34  12.80  17.40  -1.30  2.458  0.660  0.000  0.660  0.000   37.4    0.0   37.4    0.0
 1992 219    35  15.20  25.60   6.90  3.534  0.617  0.000  0.617  0.000   38.0    0.0   38.0    0.0
 1992 220    36   4.50  21.40   8.20  1.002  0.582  0.000  0.582  0.000   38.6    0.0   38.6    0.0
 1992 221    37  14.50  10.40   1.40  2.562  1.920  0.000  1.920  0.000   40.5    0.0   40.5    0.0
 1992 222    38  10.20  13.40  -0.60  1.852  0.577  0.000  0.577  0.000   41.1    0.0   41.1    0.0
 1992 223    39   9.40  15.40   7.80  1.919  0.548  0.000  0.548  0.000   41.7    0.0   41.7    0.0
 1992 224    40  15.10  14.90   3.90  2.943  0.523  0.000  0.523  0.000   42.2    0.0   42.2    0.0
 1992 225    41  14.50  15.90   6.10  2.932  0.501  0.000  0.501  0.000   42.7    0.0   42.7    0.0
 1992 226    42  15.60  18.00   2.80  3.150  0.481  0.000  0.481  0.000   43.2    0.0   43.2    0.0
 1992 227    43  14.70  18.40   3.00  2.992  0.464  0.000  0.464  0.000   43.6    0.0   43.6    0.0
 1992 228    44   9.50  19.20   5.70  2.007  0.449  0.000  0.449  0.000   44.1    0.0   44.1    0.0
 1992 229    45  15.30  22.20   8.70  3.458  0.435  0.000  0.435  0.000   44.5    0.0   44.5    0.0
 1992 230    46  12.30  23.20   9.70  2.840  0.426  0.004  0.422  0.000   44.9    0.0   44.9    0.0
 1992 231    47  14.00  20.80   9.20  3.119  0.419  0.009  0.410  0.000   45.4    0.0   45.3    0.0
 1992 232    48  13.40  19.60   7.90  2.903  0.411  0.012  0.399  0.000   45.8    0.0   45.7    0.0
 1992 233    49  13.30  19.40   6.20  2.828  0.404  0.015  0.389  0.000   46.2    0.0   46.1    0.0
 1992 234    50  16.90  23.10   9.50  3.888  0.404  0.024  0.380  0.000   46.6    0.1   46.5    0.0
 1992 235    51   7.80  20.10  13.90  1.792  1.214  0.014  1.200  0.000   47.8    0.1   47.7    0.0
 1992 236    52  17.00  19.30   9.60  3.721  3.721  0.036  3.685  0.000   51.5    0.1   51.4    0.0
 1992 237    53  17.80  21.00   7.10  3.897  0.481  0.044  0.437  0.000   52.0    0.2   51.8    0.0
 1992 238    54  18.00  21.20   5.80  3.904  0.474  0.050  0.424  0.000   52.5    0.2   52.3    0.0
 1992 239    55  17.90  20.30   6.20  3.847  0.479  0.067  0.412  0.000   53.0    0.3   52.7    0.0
 1992 240    56  17.60  25.40   6.30  4.048  0.491  0.090  0.401  0.000   53.4    0.4   53.1    0.0
 1992 241    57  11.50  18.80  11.40  2.533  0.466  0.075  0.391  0.000   53.9    0.4   53.5    0.0
 1992 242    58  14.20  24.40  11.00  3.348  0.502  0.120  0.382  0.000   54.4    0.6   53.8    0.0
 1992 243    59   5.50  20.90  15.20  1.284  0.432  0.059  0.373  0.000   54.8    0.6   54.2    0.0
 1992 244    60   7.20  13.80   9.60  1.449  1.449  0.082  1.367  0.000   56.3    0.7   55.6    0.0
 1992 245    61   7.50  14.00   7.20  1.477  0.590  0.089  0.501  0.000   56.9    0.8   56.1    0.0
 1992 246    62   5.70  14.80   8.60  1.151  0.554  0.073  0.481  0.000   57.4    0.9   56.6    0.0
 1992 247    63  14.90  17.40   7.30  3.084  0.671  0.207  0.464  0.000   58.1    1.1   57.0    0.0
 1992 248    64  18.80  18.80   6.80  3.946  0.735  0.287  0.449  0.000   58.8    1.4   57.5    0.0
 1992 249    65  18.30  21.20   6.10  3.941  0.747  0.312  0.435  0.000   59.6    1.7   57.9    0.0
 1992 250    66  18.30  18.80   8.70  3.900  0.763  0.341  0.422  0.000   60.4    2.0   58.3    0.0
 1992 251    67  17.80  20.60   9.70  3.917  0.785  0.375  0.410  0.000   61.1    2.4   58.8    0.0
 1992 252    68   5.90  20.10  13.60  1.333  0.541  0.141  0.399  0.000   61.7    2.5   59.1    0.0
 1992 253    69  11.20  20.00  13.40  2.517  0.688  0.298  0.389  0.000   62.4    2.8   59.5    0.0
 1992 254    70  12.60  21.60  13.10  2.877  0.759  0.379  0.380  0.000   63.1    3.2   59.9    0.0
 1992 255    71   8.60  21.20  14.90  1.979  1.979  0.291  1.689  0.000   65.1    3.5   61.6    0.0
 1992 256    72  16.90  19.30  12.30  3.703  1.726  0.606  1.120  0.000   66.8    4.1   62.7    0.0
 1992 257    73  10.20  16.70   8.80  2.085  0.810  0.370  0.439  0.000   67.6    4.5   63.2    0.0
 1992 258    74  17.10  20.10   6.20  3.573  1.092  0.665  0.426  0.000   68.7    5.1   63.6    0.0
 1992 259    75  19.70  21.30   9.00  4.283  1.258  0.844  0.414  0.000   70.0    6.0   64.0    0.0
 1992 260    76  12.60  22.60  12.60  2.867  1.011  0.608  0.403  0.000   71.0    6.6   64.4    0.0
 1992 261    77  14.90  26.70  15.20  3.629  1.233  0.840  0.393  0.000   72.2    7.4   64.8    0.0
 1992 262    78  19.80  16.60   9.30  4.011  4.011  1.039  2.972  0.000   76.2    8.5   67.8    0.0
 1992 263    79  21.60  19.30   5.20  4.366  1.589  1.180  0.409  0.000   77.8    9.6   68.2    0.0
 1992 264    80  21.40  25.60   5.90  4.730  1.725  1.327  0.398  0.000   79.6   11.0   68.6    0.0
 1992 265    81  21.20  30.00  10.20  5.107  1.929  1.540  0.388  0.000   81.5   12.5   69.0    0.0
 1992 266    82   6.50  12.70   8.80  1.224  1.224  0.413  0.811  0.000   82.7   12.9   69.8    0.0
 1992 267    83  16.00  18.60   6.50  3.205  3.205  1.105  2.101  0.000   85.9   14.0   71.9    0.0
 1992 268    84   6.60  13.20  10.60  1.270  1.270  0.455  0.815  0.000   87.2   14.5   72.7    0.0
 1992 269    85  21.20  12.50   4.50  3.791  3.791  1.396  2.395  0.000   91.0   15.9   75.1    0.0
 1992 270    86  20.60  14.20   0.80  3.642  3.642  1.323  2.319  0.000   94.6   17.2   77.4    0.0
 1992 271    87  21.70  20.00   4.50  4.391  3.649  1.249  2.400  0.000   98.3   18.5   79.8    0.0
 1992 272    88  23.00  21.40   5.30  4.773  3.969  1.409  2.559  0.000  102.2   19.9   82.4    0.0
 1992 273    89  23.30  23.20   6.10  4.974  2.965  1.565  1.401  0.000  105.2   21.4   83.8    0.0
 1992 274    90  22.50  26.20  10.30  5.153  2.836  1.746  1.090  0.000  108.0   23.2   84.9    0.0
 1992 275    91  12.50  26.40  11.00  2.871  1.997  1.072  0.924  0.000  110.0   24.2   85.8    0.0
 1992 276    92  11.80  21.80  13.00  2.589  2.589  1.054  1.536  0.000  112.6   25.3   87.3    0.0
 1992 277    93  17.90  20.60  11.10  3.789  2.513  1.645  0.868  0.000  115.1   26.9   88.2    0.0
 1992 278    94  18.00  25.50  11.70  4.061  2.632  1.854  0.777  0.000  117.8   28.8   89.0    0.0
 1992 279    95   7.10  18.20  11.80  1.453  1.418  0.708  0.710  0.000  119.2   29.5   89.7    0.0
 1992 280    96  24.40  15.90   7.40  4.630  4.630  2.345  2.285  0.000  123.8   31.9   92.0    0.0
 1992 281    97  21.30  15.60   4.20  3.892  3.437  2.016  1.420  0.000  127.3   33.9   93.4    0.0
 1992 282    98  24.30  19.00   3.40  4.633  4.633  2.390  2.243  0.000  131.9   36.3   95.6    0.0
 1992 283    99  24.30  21.00   6.60  4.916  4.120  2.484  1.636  0.000  136.0   38.7   97.3    0.0
 1992 284   100  25.10  25.30   7.30  5.391  4.014  2.826  1.188  0.000  140.0   41.6   98.4    0.0
 1992 285   101  16.70  27.20   9.20  3.717  3.004  2.023  0.981  0.000  143.0   43.6   99.4    0.0
 1992 286   102  22.70  24.00  12.40  4.964  3.732  2.876  0.855  0.000  146.8   46.5  100.3    0.0
 1992 287   103  25.10  25.60   8.60  5.403  4.047  3.279  0.768  0.000  150.8   49.7  101.1    0.0
 1992 288   104  24.70  29.50  11.40  5.682  4.282  3.578  0.703  0.000  155.1   53.3  101.8    0.0
 1992 289   105   7.60  31.50  15.50  1.837  1.837  1.211  0.626  0.000  156.9   54.5  102.4    0.0
 1992 290   106   9.30  20.50  15.70  1.971  1.971  1.339  0.633  0.000  158.9   55.9  103.0    0.0
 1992 291   107  23.40  21.20  12.00  4.835  4.835  3.383  1.452  0.000  163.7   59.3  104.5    0.0
 1992 292   108  25.90  21.20   7.50  5.132  5.132  3.674  1.458  0.000  168.9   62.9  105.9    0.0
 1992 293   109   9.10  19.80  11.20  1.826  1.826  1.328  0.498  0.000  170.7   64.3  106.4    0.0
 1992 294   110  24.10  18.60  10.30  4.712  4.712  3.486  1.225  0.000  175.4   67.7  107.6    0.0
 1992 295   111  26.10  21.30   5.50  5.060  5.060  3.797  1.264  0.000  180.5   71.5  108.9    0.0
 1992 296   112  24.90  24.50   7.60  5.124  5.124  3.890  1.234  0.000  185.6   75.4  110.1    0.0
 1992 297   113  25.00  27.30  12.00  5.513  5.513  4.252  1.261  0.000  191.1   79.7  111.4    0.0
 1992 298   114  24.60  30.90  14.60  5.757  5.675  4.537  1.139  0.000  196.8   84.2  112.5    0.0
 1992 299   115   9.50  26.40  17.60  2.155  2.155  1.740  0.415  0.000  198.9   86.0  113.0    0.0
 1992 300   116  26.70  27.40  17.30  6.102  6.102  4.994  1.108  0.000  205.0   91.0  114.1    0.0
 1992 301   117  27.40  30.00  15.80  6.363  6.135  5.081  1.054  0.000  211.2   96.0  115.1    0.0
 1992 302   118  10.50  15.30   6.40  1.852  1.852  1.622  0.230  0.000  213.0   97.7  115.4    0.0
 1992 303   119  27.70  21.90   3.90  5.236  4.230  3.613  0.617  0.000  217.2  101.3  116.0    0.0
 1992 304   120  26.80  21.80   6.40  5.179  4.283  3.640  0.642  0.000  221.5  104.9  116.6    0.0
 1992 305   121  26.90  23.80   6.80  5.356  4.166  3.514  0.652  0.000  225.7  108.4  117.3    0.0
 1992 306   122  27.10  27.10   9.00  5.730  4.047  3.357  0.690  0.000  229.7  111.8  118.0    0.0
 1992 307   123  27.30  30.20  13.00  6.181  3.747  3.002  0.745  0.000  233.5  114.8  118.7    0.0
 1992 308   124  21.90  19.80   9.40  4.232  3.152  2.634  0.518  0.000  236.6  117.4  119.2    0.0
 1992 309   125  27.20  14.10   6.50  4.717  4.717  4.133  0.584  0.000  241.4  121.6  119.8    0.0
 1992 310   126  24.50  16.40   2.70  4.234  4.234  3.714  0.520  0.000  245.6  125.3  120.3    0.0
 1992 311   127  27.00  19.20   4.80  4.981  4.981  4.224  0.757  0.000  250.6  129.5  121.1    0.0
 1992 312   128  27.40  21.50   7.30  5.339  3.739  2.921  0.818  0.000  254.3  132.4  121.9    0.0
 1992 313   129  28.00  25.20   8.30  5.777  3.155  2.253  0.902  0.000  257.5  134.7  122.8    0.0
 1992 314   130  28.20  29.80  10.00  6.245  2.976  1.967  1.009  0.000  260.4  136.6  123.8    0.0
 1992 315   131   8.60  22.00  16.00  1.821  1.821  1.514  0.307  0.000  262.3  138.1  124.1    0.0
 1992 316   132  23.60  28.40  16.10  5.393  2.490  1.600  0.891  0.000  264.8  139.7  125.0    0.0
 1992 317   133  28.00  29.50  15.30  6.447  2.816  1.703  1.113  0.000  267.6  141.4  126.1    0.0
 1992 318   134  28.50  27.90  12.90  6.332  2.516  1.369  1.148  0.000  270.1  142.8  127.3    0.0
 1992 319   135  19.40  31.40  14.40  4.545  2.487  1.617  0.869  0.000  272.6  144.4  128.1    0.0
 1992 320   136  23.00  25.50  17.30  5.154  2.874  1.858  1.016  0.000  275.4  146.3  129.2    0.0
 1992 321   137  28.80  20.40  11.50  5.780  5.780  4.607  1.173  0.000  281.2  150.9  130.3    0.0
 1992 322   138  28.20  21.50   7.70  5.550  5.535  4.435  1.100  0.000  286.8  155.3  131.4    0.0
 1992 323   139  28.80  23.90   7.20  5.821  5.821  4.688  1.134  0.000  292.6  160.0  132.6    0.0
 1992 324   140  29.50  28.10  11.20  6.491  6.438  5.201  1.238  0.000  299.0  165.2  133.8    0.0
 1992 325   141  22.20  30.00  13.80  5.091  4.852  4.154  0.698  0.000  303.9  169.4  134.5    0.0
 1992 326   142   8.70  21.20  13.60  1.790  1.753  1.437  0.316  0.000  305.6  170.8  134.8    0.0
 1992 327   143  25.70  19.30  10.00  4.998  4.303  3.414  0.889  0.000  309.9  174.2  135.7    0.0
 1992 328   144  22.10  20.60   6.40  4.236  3.509  2.746  0.763  0.000  313.4  177.0  136.5    0.0
 1992 329   145  24.00  26.00  11.10  5.138  3.262  2.322  0.940  0.000  316.7  179.3  137.4    0.0
 1992 330   146  21.90  23.90  15.40  4.738  2.821  1.921  0.900  0.000  319.5  181.2  138.3    0.0
 1992 331   147  19.00  26.00  14.30  4.183  2.480  1.656  0.824  0.000  322.0  182.9  139.1    0.0
 1992 332   148  30.10  27.20  12.90  6.655  2.619  1.515  1.105  0.000  324.6  184.4  140.2    0.0
 1992 333   149  21.00  27.70  13.50  4.700  2.261  1.338  0.922  0.000  326.9  185.7  141.2    0.0
 1992 334   150  19.80  29.80  16.90  4.667  1.178  1.153  0.024  0.000  328.1  186.9  141.2    0.0
 1992 335   151  21.90  28.00  18.70  5.135  1.090  1.070  0.020  0.000  329.1  187.9  141.2    0.0
 1992 336   152  29.50  23.90  14.00  6.365  6.314  4.724  1.590  0.000  335.5  192.7  142.8    0.0
 1992 337   153  30.20  24.80   8.90  6.317  6.317  4.733  1.584  0.000  341.8  197.4  144.4    0.0
 1992 338   154  26.20  27.40   9.70  5.698  5.651  4.217  1.434  0.000  347.4  201.6  145.8    0.0
 1992 339   155  30.30  29.10  13.50  6.930  6.778  5.179  1.599  0.000  354.2  206.8  147.4    0.0
 1992 340   156  18.70  28.20  13.80  4.243  3.983  2.907  1.076  0.000  358.2  209.7  148.5    0.0
 1992 341   157  25.20  29.60  18.90  6.039  4.474  2.937  1.537  0.000  362.7  212.6  150.0    0.0
 1992 342   158  23.30  26.40  15.40  5.247  5.217  3.849  1.368  0.000  367.9  216.5  151.4    0.0
 1992 343   159  25.40  27.90  14.80  5.794  5.794  4.284  1.510  0.000  373.7  220.8  152.9    0.0
 1992 344   160  21.00  26.70  16.50  4.787  4.769  3.521  1.248  0.000  378.4  224.3  154.1    0.0
 1992 345   161  22.70  27.30  18.10  5.274  4.859  3.899  0.960  0.000  383.3  228.2  155.1    0.0
 1992 346   162  23.20  26.50  15.70  5.243  5.124  3.758  1.367  0.000  388.4  232.0  156.5    0.0
 1992 347   163  29.50  27.30  13.40  6.609  5.034  3.311  1.723  0.000  393.5  235.3  158.2    0.0
 1992 348   164  30.90  30.20  14.90  7.248  3.839  2.449  1.390  0.000  397.3  237.7  159.6    0.0
 1992 349   165  28.90  28.40  15.70  6.690  3.095  2.010  1.085  0.000  400.4  239.7  160.7    0.0
 1992 350   166  30.30  28.00  10.00  6.687  2.681  1.760  0.921  0.000  403.1  241.5  161.6    0.0
 1992 351   167  24.80  29.80  12.50  5.711  2.368  1.553  0.815  0.000  405.4  243.0  162.4    0.0
 1992 352   168  19.40  27.60  17.70  4.540  2.155  1.416  0.739  0.000  407.6  244.5  163.1    0.0
 1992 353   169  29.70  30.40  14.50  7.013  1.769  1.282  0.486  0.000  409.4  245.7  163.6    0.0
 1992 354   170  18.00  30.80  14.60  4.281  1.170  1.141  0.029  0.000  410.5  246.9  163.7    0.0
 1992 355   171  31.80  33.80  18.10  8.029  0.846  0.822  0.024  0.000  411.4  247.7  163.7    0.0
 1992 356   172  25.50  32.40  15.70  6.248  0.792  0.772  0.020  0.000  412.2  248.5  163.7    0.0
 1992 357   173  11.20  29.40  18.60  2.718  0.734  0.717  0.017  0.000  412.9  249.2  163.7    0.0
 1992 358   174  11.20  27.70  20.80  2.714  1.703  0.678  1.025  0.000  414.6  249.9  164.7    0.0
 1992 359   175  27.80  28.90  17.70  6.678  3.030  0.468  2.562  0.000  417.6  250.3  167.3    0.0
 1992 360   176  22.90  27.40  15.10  5.314  5.245  3.125  2.119  0.000  422.9  253.5  169.4    0.0
 1992 361   177  31.40  27.40  13.20  7.180  6.558  4.306  2.251  0.000  429.4  257.8  171.7    0.0
 1992 362   178  31.00  28.00  12.60  7.107  6.824  4.135  2.689  0.000  436.3  261.9  174.4    0.0
 1992 363   179  30.00  32.00  13.10  7.233  5.391  3.977  1.415  0.000  441.7  265.9  175.8    0.0
 1992 364   180   9.10  25.60  19.70  2.146  1.804  0.928  0.876  0.000  443.5  266.8  176.7    0.0
 1992 365   181   9.10  23.30  19.60  2.089  1.724  0.862  0.862  0.000  445.2  267.7  177.5    0.0
 1992 366   182   9.10  20.20  19.20  2.007  1.761  0.922  0.838  0.000  446.9  268.6  178.4    0.0
 1993 001   183   9.10  21.20  19.60  2.040  2.040  1.177  0.863  0.000  449.0  269.8  179.2    0.0
 1993 002   184   9.10  21.80  19.40  2.053  2.053  1.174  0.879  0.000  451.0  270.9  180.1    0.0
 1993 003   185   9.10  21.90  19.70  2.062  2.062  1.168  0.894  0.000  453.1  272.1  181.0    0.0
 1993 004   186  14.90  28.90  19.80  3.666  3.666  2.058  1.608  0.000  456.8  274.2  182.6    0.0
 1993 005   187  23.60  30.80  21.50  6.006  6.006  3.341  2.665  0.000  462.8  277.5  185.3    0.0
 1993 006   188  29.90  32.00  19.70  7.615  6.939  4.197  2.741  0.000  469.7  281.7  188.0    0.0
 1993 007   189  12.50  27.20  20.30  3.036  3.036  1.658  1.378  0.000  472.8  283.4  189.4    0.0
 1993 008   190  20.20  26.60  20.10  4.870  4.870  2.632  2.238  0.000  477.6  286.0  191.6    0.0
 1993 009   191  30.70  26.90  16.00  7.204  7.204  3.848  3.356  0.000  484.8  289.8  195.0    0.0
 1993 010   192  30.90  31.10  16.00  7.613  6.337  4.016  2.321  0.000  491.2  293.9  197.3    0.0
 1993 011   193  31.30  32.20  17.60  7.906  6.188  4.113  2.075  0.000  497.4  298.0  199.4    0.0
 1993 012   194  30.90  32.70  19.60  7.970  5.400  4.082  1.318  0.000  502.8  302.1  200.7    0.0
 1993 013   195  22.70  33.00  20.70  5.919  4.082  3.032  1.050  0.000  506.8  305.1  201.7    0.0
 1993 014   196  17.40  30.10  22.30  4.450  3.179  2.279  0.900  0.000  510.0  307.4  202.6    0.0
