*SIMULATION OVERVIEW FILE

*DSSAT Cropping System Model Ver. 4.0.2.000               Jul 19, 2016; 12:53:16
                                                                                
*RUN   1        : UYMZ                                                          
 MODEL          : MZCER040 - MAIZE                                              
 EXPERIMENT     : UYMZ0006 SN late to create DSS                                
 TREATMENT  1   : UYMZ                                                          
                                                                                
 CROP           : MAIZE          CULTIVAR : CMEDIO UY        ECOTYPE :IB0001    
 STARTING DATE  : JUL  3 1990                                                   
 PLANTING DATE  : JUL  6 1990    PLANTS/m2 :  7.0     ROW SPACING :  15.cm      
 WEATHER        : UYTA   1990                                                   
 SOIL           : UYSS0N2002     TEXTURE :       -  N20-02    SNIA CLAY RISS    
 SOIL INITIAL C : DEPTH:125cm EXTR. H2O:186.3mm  NO3: 74.8kg/ha  NH4: 23.9kg/ha 
 WATER BALANCE  : RAINFED                                                       
 IRRIGATION     : NOT IRRIGATED                                                 
 NITROGEN BAL.  : SOIL-N & N-UPTAKE SIMULATION; NO N-FIXATION                   
 N-FERTILIZER   :       24 kg/ha IN     2 APPLICATIONS                          
 RESIDUE/MANURE : INITIAL :     0 kg/ha ;       0 kg/ha IN     0 APPLICATIONS   
 ENVIRONM. OPT. : DAYL=    0.00  SRAD=    0.00  TMAX=    0.00  TMIN=    0.00    
                  RAIN=    0.00  CO2 = R330.00  DEW =    0.00  WIND=    0.00    
 SIMULATION OPT : WATER   :Y  NITROGEN:Y  N-FIX:N  PHOSPH :N  PESTS  :N         
                  PHOTO   :C  ET      :R  INFIL:S  HYDROL :R  SOM    :G         
 MANAGEMENT OPT : PLANTING:R  IRRIG   :N  FERT :D  RESIDUE:N  HARVEST:M  WTH:M  
                                                                                
*SUMMARY OF SOIL AND GENETIC INPUT PARAMETERS                                   
                                                                                
   SOIL LOWER UPPER   SAT  EXTR  INIT   ROOT   BULK     pH    NO3    NH4    ORG 
  DEPTH LIMIT LIMIT    SW    SW    SW   DIST   DENS                          C  
   cm   cm3/cm3    cm3/cm3    cm3/cm3         g/cm3         ugN/g  ugN/g     %  
------------------------------------------------------------------------------- 
  0-  5 0.331 0.542 0.585 0.211 0.394   1.00   1.11   6.50  15.00   1.50   2.74 
  5- 15 0.331 0.542 0.585 0.211 0.394   1.00   1.11   6.50  15.00   1.50   2.74 
 15- 30 0.331 0.542 0.585 0.211 0.394   1.00   1.11   6.50  15.00   1.50   2.74 
 30- 45 0.290 0.438 0.491 0.148 0.334   0.43   1.26   6.50   8.50   1.50   1.07 
 45- 60 0.292 0.431 0.480 0.138 0.375   0.39   1.29   6.27   4.53   1.50   0.90 
 60- 90 0.293 0.419 0.466 0.126 0.419   0.32   1.34   6.00   0.00   1.50   0.64 
 90-108 0.286 0.408 0.460 0.122 0.408   0.23   1.36   6.00   0.00   1.50   0.35 
108-125 0.276 0.395 0.456 0.119 0.395   0.12   1.38   6.00   0.00   1.50   0.14 
                                                                                
TOT-125  37.3  55.9  62.1  18.6  49.1  <--cm   -  kg/ha-->   74.8   23.9 166127 
SOIL ALBEDO    : 0.09      EVAPORATION LIMIT : 6.00         MIN. FACTOR  : 1.00 
RUNOFF CURVE # :10.00      DRAINAGE RATE     : 0.40         FERT. FACTOR : 1.00 
                                                                                
 MAIZE      CULTIVAR :UY0370-CMEDIO UY          ECOTYPE :IB0001                 
 P1     : 280.00  P2     : 0.0000  P5     : 750.00                              
 G2     : 800.00  G3     :  7.500  PHINT  : 38.900                              
                                                                                
                                                                                
                                                                                
*SIMULATED CROP AND SOIL STATUS AT MAIN DEVELOPMENT STAGES

 RUN NO.     1     UYMZ                    

        CROP GROWTH   BIOMASS         LEAF   CROP N     STRESS  
   DATE  AGE STAGE      kg/ha    LAI   NUM  kg/ha  %   H2O    N 
 ------  --- ---------- -----  -----  ----  ---  ---  ----  ----
  3 JUL    0 Start Sim      0   0.00   0.0    0  0.0  0.00  0.00
  6 JUL    0 Sowing         0   0.00   0.0    0  0.0  0.00  0.00
 16 JUL   10 Germinate      0   0.00   0.0    0  0.0  0.00  0.00
  7 AUG   32 Emergence     28   0.00   2.0    1  4.4  0.00  0.00
 19 SEP   75 End Juveni   293   0.28   9.6   11  3.9  0.10  0.00
 23 SEP   79 Floral Ini   368   0.39  10.2   14  3.7  0.00  0.01
 13 NOV  130 75% Silkin  8257   3.97  21.5  141  1.7  0.00  0.03
 25 NOV  142 Beg Gr Fil 10811   3.82  21.5  145  1.3  0.00  0.02
  7 JAN  185 End Gr Fil 20394   1.94  21.5  168  0.8  0.00  0.17
  9 JAN  187 Maturity   20394   1.94  21.5  168  0.8  0.00  0.52
  9 JAN  187 Harvest    20394   1.94  21.5  168  0.8  0.00  0.00


*MAIN GROWTH AND DEVELOPMENT VARIABLES

@     VARIABLE                          SIMULATED     MEASURED
      --------                          ---------     --------
      Anthesis day (dap)                      130          -99
      Physiological maturity day (dap)        187          -99
      Yield at harvest maturity (kg [dm]/    9871          -99
      Number at maturity (no/m2)             3808          -99
      Unit wt at maturity (g [dm]/unit)    0.2592          -99
      Number at maturity (no/unit)          544.0          -99
      Tops weight at maturity (kg [dm]/ha   20394          -99
      By-product produced (stalk) at matu   10599          -99
      Leaf area index, maximum               3.99          -99
      Harvest index at maturity             0.484          -99
      Grain N at maturity (kg/ha)             126          -99
      Tops N at maturity (kg/ha)              168          -99
      Stem N at maturity (kg/ha)               42          -99
      Grain N at maturity (%)                 1.3          -99
      Tops weight at anthesis (kg [dm]/ha    7945          -99
      Tops N at anthesis (kg/ha)              141          -99
      Leaf number per stem at maturity      21.51          -99


*ENVIRONMENTAL AND STRESS FACTORS

 |-----Development Phase------|-------------Environment--------------|---------Stress----------|
                              |--------Average-------|---Cumulative--|  (0=Min, 1=Max Stress)  |
                         Time  Temp  Temp Solar Photop         Evapo |----Water---|--Nitrogen--|
                         Span   Max   Min   Rad  [day]   Rain  Trans  Photo         Photo
                         days    øC    øC MJ/m2     hr     mm     mm  synth Growth  synth Growth
------------------------------------------------------------------------------------------------
 Emergence-End Juvenile    43  19.4   8.0  13.7  11.21  128.0   67.9  0.058  0.096  0.002  0.001
 End Juvenil-Floral Init    4  18.5  12.5   9.0  11.96   32.0    9.7  0.000  0.000  0.000  0.000
 Floral Init-End Lf Grow   51  23.0  12.6  19.4  12.83  183.4  181.4  0.000  0.000  0.063  0.025
 End Lf Grth-Beg Grn Fil   12  28.3  16.7  22.1  13.70   56.5   63.6  0.000  0.000  0.072  0.029
 Grain Filling Phase       43  26.4  14.6  24.4  14.01  284.2  229.0  0.000  0.000  0.312  0.156

                     Maize YIELD :     9871 kg/ha    [Dry weight] 

************************************************************************************************

*DSSAT Cropping System Model Ver. 4.0.2.000               Jul 19, 2016; 12:53:16
                                                                                
*RUN   2        : UYMZ                                                          
 MODEL          : MZCER040 - MAIZE                                              
 EXPERIMENT     : UYMZ0006 SN late to create DSS                                
 TREATMENT  1   : UYMZ                                                          
                                                                                
 CROP           : MAIZE          CULTIVAR : CMEDIO UY        ECOTYPE :IB0001    
 STARTING DATE  : JUL  3 1990                                                   
 PLANTING DATE  : JUL  6 1990    PLANTS/m2 :  7.0     ROW SPACING :  15.cm      
 WEATHER        : UYTA   1990                                                   
 SOIL           : UYSS0N2002     TEXTURE :       -  N20-02    SNIA CLAY RISS    
 SOIL INITIAL C : DEPTH:125cm EXTR. H2O:186.3mm  NO3: 74.8kg/ha  NH4: 23.9kg/ha 
 WATER BALANCE  : RAINFED                                                       
 IRRIGATION     : NOT IRRIGATED                                                 
 NITROGEN BAL.  : SOIL-N & N-UPTAKE SIMULATION; NO N-FIXATION                   
 N-FERTILIZER   :       24 kg/ha IN     2 APPLICATIONS                          
 RESIDUE/MANURE : INITIAL :     0 kg/ha ;       0 kg/ha IN     0 APPLICATIONS   
 ENVIRONM. OPT. : DAYL=    0.00  SRAD=    0.00  TMAX=    0.00  TMIN=    0.00    
                  RAIN=    0.00  CO2 = R330.00  DEW =    0.00  WIND=    0.00    
 SIMULATION OPT : WATER   :Y  NITROGEN:Y  N-FIX:N  PHOSPH :N  PESTS  :N         
                  PHOTO   :C  ET      :R  INFIL:S  HYDROL :R  SOM    :G         
 MANAGEMENT OPT : PLANTING:R  IRRIG   :N  FERT :D  RESIDUE:N  HARVEST:M  WTH:M  
                                                                                
*SUMMARY OF SOIL AND GENETIC INPUT PARAMETERS                                   
                                                                                
   SOIL LOWER UPPER   SAT  EXTR  INIT   ROOT   BULK     pH    NO3    NH4    ORG 
  DEPTH LIMIT LIMIT    SW    SW    SW   DIST   DENS                          C  
   cm   cm3/cm3    cm3/cm3    cm3/cm3         g/cm3         ugN/g  ugN/g     %  
------------------------------------------------------------------------------- 
  0-  5 0.331 0.542 0.585 0.211 0.394   1.00   1.11   6.50  15.00   1.50   2.74 
  5- 15 0.331 0.542 0.585 0.211 0.394   1.00   1.11   6.50  15.00   1.50   2.74 
 15- 30 0.331 0.542 0.585 0.211 0.394   1.00   1.11   6.50  15.00   1.50   2.74 
 30- 45 0.290 0.438 0.491 0.148 0.334   0.43   1.26   6.50   8.50   1.50   1.07 
 45- 60 0.292 0.431 0.480 0.138 0.375   0.39   1.29   6.27   4.53   1.50   0.90 
 60- 90 0.293 0.419 0.466 0.126 0.419   0.32   1.34   6.00   0.00   1.50   0.64 
 90-108 0.286 0.408 0.460 0.122 0.408   0.23   1.36   6.00   0.00   1.50   0.35 
108-125 0.276 0.395 0.456 0.119 0.395   0.12   1.38   6.00   0.00   1.50   0.14 
                                                                                
TOT-125  37.3  55.9  62.1  18.6  49.1  <--cm   -  kg/ha-->   74.8   23.9 166127 
SOIL ALBEDO    : 0.09      EVAPORATION LIMIT : 6.00         MIN. FACTOR  : 1.00 
RUNOFF CURVE # :10.00      DRAINAGE RATE     : 0.40         FERT. FACTOR : 1.00 
                                                                                
 MAIZE      CULTIVAR :UY0370-CMEDIO UY          ECOTYPE :IB0001                 
 P1     : 280.00  P2     : 0.0000  P5     : 750.00                              
 G2     : 800.00  G3     :  7.500  PHINT  : 38.900                              
                                                                                
                                                                                
                                                                                
*SIMULATED CROP AND SOIL STATUS AT MAIN DEVELOPMENT STAGES

 RUN NO.     2     UYMZ                    

        CROP GROWTH   BIOMASS         LEAF   CROP N     STRESS  
   DATE  AGE STAGE      kg/ha    LAI   NUM  kg/ha  %   H2O    N 
 ------  --- ---------- -----  -----  ----  ---  ---  ----  ----
  3 JUL    0 Start Sim      0   0.00   0.0    0  0.0  0.00  0.00
  6 JUL    0 Sowing         0   0.00   0.0    0  0.0  0.00  0.00
 10 JUL    4 Germinate      0   0.00   0.0    0  0.0  0.00  0.00
 28 JUL   22 Emergence     28   0.00   2.0    1  4.4  0.00  0.00
  5 SEP   61 End Juveni   353   0.65   9.8   13  3.6  0.00  0.00
  9 SEP   65 Floral Ini   475   0.82  10.6   17  3.7  0.00  0.01
 10 NOV  127 75% Silkin  8037   3.23  22.1  103  1.3  0.00  0.06
 27 NOV  144 Beg Gr Fil 10049   2.76  22.1  114  1.1  0.00  0.07
  3 JAN  181 End Gr Fil 17529   1.32  22.1  137  0.8  0.00  0.19
  6 JAN  184 Maturity   17529   1.32  22.1  137  0.8  0.00  0.41
  6 JAN  184 Harvest    17529   1.32  22.1  137  0.8  0.00  0.00


*MAIN GROWTH AND DEVELOPMENT VARIABLES

@     VARIABLE                          SIMULATED     MEASURED
      --------                          ---------     --------
      Anthesis day (dap)                      127          -99
      Physiological maturity day (dap)        184          -99
      Yield at harvest maturity (kg [dm]/    7848          -99
      Number at maturity (no/m2)             3023          -99
      Unit wt at maturity (g [dm]/unit)    0.2596          -99
      Number at maturity (no/unit)          431.9          -99
      Tops weight at maturity (kg [dm]/ha   17529          -99
      By-product produced (stalk) at matu    9761          -99
      Leaf area index, maximum               3.47          -99
      Harvest index at maturity             0.448          -99
      Grain N at maturity (kg/ha)              93          -99
      Tops N at maturity (kg/ha)              137          -99
      Stem N at maturity (kg/ha)               44          -99
      Grain N at maturity (%)                 1.2          -99
      Tops weight at anthesis (kg [dm]/ha    7927          -99
      Tops N at anthesis (kg/ha)              103          -99
      Leaf number per stem at maturity      22.09          -99


*ENVIRONMENTAL AND STRESS FACTORS

 |-----Development Phase------|-------------Environment--------------|---------Stress----------|
                              |--------Average-------|---Cumulative--|  (0=Min, 1=Max Stress)  |
                         Time  Temp  Temp Solar Photop         Evapo |----Water---|--Nitrogen--|
                         Span   Max   Min   Rad  [day]   Rain  Trans  Photo         Photo
                         days    øC    øC MJ/m2     hr     mm     mm  synth Growth  synth Growth
------------------------------------------------------------------------------------------------
 Emergence-End Juvenile    39  19.4   9.4  10.6  10.85   97.3   48.5  0.000  0.000  0.002  0.001
 End Juvenil-Floral Init    4  23.2  14.0  12.0  11.50    7.6    6.5  0.000  0.000  0.002  0.001
 Floral Init-End Lf Grow   62  21.7  11.2  17.1  12.57  284.3  215.8  0.000  0.000  0.134  0.054
 End Lf Grth-Beg Grn Fil   17  23.8  12.2  20.5  13.68   82.0   70.7  0.000  0.000  0.193  0.077
 Grain Filling Phase       37  27.7  17.1  21.7  14.02  203.6  186.6  0.000  0.000  0.397  0.182

                     Maize YIELD :     7848 kg/ha    [Dry weight] 

************************************************************************************************

*DSSAT Cropping System Model Ver. 4.0.2.000               Jul 19, 2016; 12:53:16
                                                                                
*RUN   3        : UYMZ                                                          
 MODEL          : MZCER040 - MAIZE                                              
 EXPERIMENT     : UYMZ0006 SN late to create DSS                                
 TREATMENT  1   : UYMZ                                                          
                                                                                
 CROP           : MAIZE          CULTIVAR : CMEDIO UY        ECOTYPE :IB0001    
 STARTING DATE  : JUL  3 1990                                                   
 PLANTING DATE  : JUL  6 1990    PLANTS/m2 :  7.0     ROW SPACING :  15.cm      
 WEATHER        : UYTA   1990                                                   
 SOIL           : UYSS0N2002     TEXTURE :       -  N20-02    SNIA CLAY RISS    
 SOIL INITIAL C : DEPTH:125cm EXTR. H2O:186.3mm  NO3: 74.8kg/ha  NH4: 23.9kg/ha 
 WATER BALANCE  : RAINFED                                                       
 IRRIGATION     : NOT IRRIGATED                                                 
 NITROGEN BAL.  : SOIL-N & N-UPTAKE SIMULATION; NO N-FIXATION                   
 N-FERTILIZER   :       24 kg/ha IN     2 APPLICATIONS                          
 RESIDUE/MANURE : INITIAL :     0 kg/ha ;       0 kg/ha IN     0 APPLICATIONS   
 ENVIRONM. OPT. : DAYL=    0.00  SRAD=    0.00  TMAX=    0.00  TMIN=    0.00    
                  RAIN=    0.00  CO2 = R330.00  DEW =    0.00  WIND=    0.00    
 SIMULATION OPT : WATER   :Y  NITROGEN:Y  N-FIX:N  PHOSPH :N  PESTS  :N         
                  PHOTO   :C  ET      :R  INFIL:S  HYDROL :R  SOM    :G         
 MANAGEMENT OPT : PLANTING:R  IRRIG   :N  FERT :D  RESIDUE:N  HARVEST:M  WTH:M  
                                                                                
*SUMMARY OF SOIL AND GENETIC INPUT PARAMETERS                                   
                                                                                
   SOIL LOWER UPPER   SAT  EXTR  INIT   ROOT   BULK     pH    NO3    NH4    ORG 
  DEPTH LIMIT LIMIT    SW    SW    SW   DIST   DENS                          C  
   cm   cm3/cm3    cm3/cm3    cm3/cm3         g/cm3         ugN/g  ugN/g     %  
------------------------------------------------------------------------------- 
  0-  5 0.331 0.542 0.585 0.211 0.394   1.00   1.11   6.50  15.00   1.50   2.74 
  5- 15 0.331 0.542 0.585 0.211 0.394   1.00   1.11   6.50  15.00   1.50   2.74 
 15- 30 0.331 0.542 0.585 0.211 0.394   1.00   1.11   6.50  15.00   1.50   2.74 
 30- 45 0.290 0.438 0.491 0.148 0.334   0.43   1.26   6.50   8.50   1.50   1.07 
 45- 60 0.292 0.431 0.480 0.138 0.375   0.39   1.29   6.27   4.53   1.50   0.90 
 60- 90 0.293 0.419 0.466 0.126 0.419   0.32   1.34   6.00   0.00   1.50   0.64 
 90-108 0.286 0.408 0.460 0.122 0.408   0.23   1.36   6.00   0.00   1.50   0.35 
108-125 0.276 0.395 0.456 0.119 0.395   0.12   1.38   6.00   0.00   1.50   0.14 
                                                                                
TOT-125  37.3  55.9  62.1  18.6  49.1  <--cm   -  kg/ha-->   74.8   23.9 166127 
SOIL ALBEDO    : 0.09      EVAPORATION LIMIT : 6.00         MIN. FACTOR  : 1.00 
RUNOFF CURVE # :10.00      DRAINAGE RATE     : 0.40         FERT. FACTOR : 1.00 
                                                                                
 MAIZE      CULTIVAR :UY0370-CMEDIO UY          ECOTYPE :IB0001                 
 P1     : 280.00  P2     : 0.0000  P5     : 750.00                              
 G2     : 800.00  G3     :  7.500  PHINT  : 38.900                              
                                                                                
                                                                                
                                                                                
*SIMULATED CROP AND SOIL STATUS AT MAIN DEVELOPMENT STAGES

 RUN NO.     3     UYMZ                    

        CROP GROWTH   BIOMASS         LEAF   CROP N     STRESS  
   DATE  AGE STAGE      kg/ha    LAI   NUM  kg/ha  %   H2O    N 
 ------  --- ---------- -----  -----  ----  ---  ---  ----  ----
  2 JUL    0 Start Sim      0   0.00   0.0    0  0.0  0.00  0.00
  5 JUL    0 Sowing         0   0.00   0.0    0  0.0  0.00  0.00
 14 JUL    9 Germinate      0   0.00   0.0    0  0.0  0.00  0.00
 16 AUG   42 Emergence     28   0.00   1.8    1  4.4  0.00  0.00
 21 SEP   78 End Juveni   324   0.60   9.5   12  3.6  0.00  0.00
 25 SEP   82 Floral Ini   375   0.66   9.9   14  3.7  0.00  0.01
 21 NOV  139 75% Silkin  6344   2.52  20.9  119  1.9  0.17  0.02
  6 DEC  154 Beg Gr Fil  7597   1.96  20.9  112  1.5  0.44  0.02
 12 JAN  191 End Gr Fil 13286   1.05  20.9  130  1.0  0.28  0.06
 14 JAN  193 Maturity   13286   1.05  20.9  130  1.0  0.00  0.18
 14 JAN  193 Harvest    13286   1.05  20.9  130  1.0  0.00  0.00


*MAIN GROWTH AND DEVELOPMENT VARIABLES

@     VARIABLE                          SIMULATED     MEASURED
      --------                          ---------     --------
      Anthesis day (dap)                      139          -99
      Physiological maturity day (dap)        193          -99
      Yield at harvest maturity (kg [dm]/    5867          -99
      Number at maturity (no/m2)             2567          -99
      Unit wt at maturity (g [dm]/unit)    0.2286          -99
      Number at maturity (no/unit)          366.7          -99
      Tops weight at maturity (kg [dm]/ha   13286          -99
      By-product produced (stalk) at matu    7489          -99
      Leaf area index, maximum               3.12          -99
      Harvest index at maturity             0.442          -99
      Grain N at maturity (kg/ha)              91          -99
      Tops N at maturity (kg/ha)              130          -99
      Stem N at maturity (kg/ha)               39          -99
      Grain N at maturity (%)                 1.5          -99
      Tops weight at anthesis (kg [dm]/ha    6237          -99
      Tops N at anthesis (kg/ha)              119          -99
      Leaf number per stem at maturity      20.91          -99


*ENVIRONMENTAL AND STRESS FACTORS

 |-----Development Phase------|-------------Environment--------------|---------Stress----------|
                              |--------Average-------|---Cumulative--|  (0=Min, 1=Max Stress)  |
                         Time  Temp  Temp Solar Photop         Evapo |----Water---|--Nitrogen--|
                         Span   Max   Min   Rad  [day]   Rain  Trans  Photo         Photo
                         days    øC    øC MJ/m2     hr     mm     mm  synth Growth  synth Growth
------------------------------------------------------------------------------------------------
 Emergence-End Juvenile    36  20.1   9.5  13.9  11.41   22.8   35.5  0.000  0.000  0.002  0.001
 End Juvenil-Floral Init    4  21.7   7.9  16.3  12.06   21.8    7.6  0.000  0.000  0.001  0.000
 Floral Init-End Lf Grow   57  23.0   9.8  22.0  13.01  126.6  216.7  0.112  0.173  0.056  0.023
 End Lf Grth-Beg Grn Fil   15  25.7  12.8  23.5  13.89   34.0   54.3  0.288  0.401  0.062  0.025
 Grain Filling Phase       37  27.8  16.8  21.9  14.03  275.1  139.2  0.214  0.293  0.142  0.057

                     Maize YIELD :     5867 kg/ha    [Dry weight] 

************************************************************************************************
