*SOIL-PLANT-ATMOSPHERE MODULE OUTPUT FILE

*DSSAT Cropping System Model Ver. 4.0.2.000               Aug 12, 2016; 12:46:17

*RUN   1        : UYMZ                    
 MODEL          : MZCER040 - Maize           
 EXPERIMENT     : UYMZ0194 MZ    late to create DSS                             
 TREATMENT  1   : UYMZ                    

@YEAR DOY   DAS   SRAA   TMXA   TMNA   EOAA   ETAA   EPAA   ESAA   EFAD   ETAC   EPAC   ESAC   EFAC
 2001 097     0  16.10  24.40   9.20  3.613  2.640  0.000  2.640  0.000    2.6    0.0    2.6    0.0
 2001 098     1  10.90  24.80  16.40  2.607  1.410  0.000  1.410  0.000    4.0    0.0    4.0    0.0
 2001 099     2   5.80  17.60  15.40  1.258  1.258  0.000  1.258  0.000    5.3    0.0    5.3    0.0
 2001 100     3  18.20  24.60  13.20  4.233  4.233  0.000  4.233  0.000    9.5    0.0    9.5    0.0
 2001 101     4  17.70  26.20  12.10  4.160  3.203  0.000  3.203  0.000   12.7    0.0   12.7    0.0
 2001 102     5  14.40  26.20  15.60  3.480  2.347  0.000  2.347  0.000   15.1    0.0   15.1    0.0
 2001 103     6  12.20  26.00  15.40  2.937  1.371  0.000  1.371  0.000   16.5    0.0   16.5    0.0
 2001 104     7   9.10  27.80  18.20  2.285  1.076  0.000  1.076  0.000   17.5    0.0   17.5    0.0
 2001 105     8  17.30  26.40  14.20  4.145  0.916  0.000  0.916  0.000   18.5    0.0   18.5    0.0
 2001 106     9  16.50  24.20  10.20  3.725  0.811  0.000  0.811  0.000   19.3    0.0   19.3    0.0
 2001 107    10  15.50  25.60  12.60  3.630  0.742  0.007  0.736  0.000   20.0    0.0   20.0    0.0
 2001 108    11  16.70  29.20  14.60  4.145  0.693  0.015  0.678  0.000   20.7    0.0   20.7    0.0
 2001 109    12  17.20  23.80  15.80  4.043  0.986  0.026  0.960  0.000   21.7    0.0   21.6    0.0
 2001 110    13  16.60  22.20   9.40  3.624  0.680  0.032  0.648  0.000   22.4    0.1   22.3    0.0
 2001 111    14  16.50  20.80   6.10  3.433  0.644  0.037  0.607  0.000   23.0    0.1   22.9    0.0
 2001 112    15  16.30  21.00   2.60  3.292  0.614  0.040  0.574  0.000   23.6    0.2   23.5    0.0
 2001 113    16   5.10  17.40  12.40  1.072  0.758  0.013  0.745  0.000   24.4    0.2   24.2    0.0
 2001 114    17  12.70  18.40   9.40  2.633  2.633  0.044  2.589  0.000   27.0    0.2   26.8    0.0
 2001 115    18   8.60  20.40   6.00  1.776  1.203  0.038  1.165  0.000   28.2    0.3   28.0    0.0
 2001 116    19  15.20  22.20  14.00  3.444  2.833  0.089  2.745  0.000   31.1    0.3   30.7    0.0
 2001 117    20  11.50  22.60  10.40  2.538  1.509  0.089  1.420  0.000   32.6    0.4   32.1    0.0
 2001 118    21   4.80  17.00  10.20  0.980  0.980  0.043  0.937  0.000   33.5    0.5   33.1    0.0
 2001 119    22   8.10  18.40   5.00  1.606  1.531  0.079  1.452  0.000   35.1    0.6   34.5    0.0
 2001 120    23   5.30  18.80  11.80  1.124  0.939  0.059  0.880  0.000   36.0    0.6   35.4    0.0
 2001 121    24   4.80  19.80  15.00  1.060  1.060  0.064  0.995  0.000   37.1    0.7   36.4    0.0
 2001 122    25  15.10  17.80   9.10  3.077  3.077  0.221  2.857  0.000   40.1    0.9   39.3    0.0
 2001 123    26  13.30  15.80   6.60  2.571  2.571  0.203  2.368  0.000   42.7    1.1   41.6    0.0
 2001 124    27  10.70  15.80   8.20  2.099  1.640  0.175  1.465  0.000   44.4    1.3   43.1    0.0
 2001 125    28  13.00  18.80   8.00  2.654  2.654  0.235  2.419  0.000   47.0    1.5   45.5    0.0
 2001 126    29  10.10  18.60   4.20  1.983  1.832  0.190  1.642  0.000   48.8    1.7   47.1    0.0
 2001 127    30   6.40  20.40   7.40  1.327  1.320  0.130  1.190  0.000   50.2    1.8   48.3    0.0
 2001 128    31   4.40  18.20  14.40  0.942  0.942  0.100  0.842  0.000   51.1    1.9   49.2    0.0
 2001 129    32   6.30  19.20  12.60  1.343  1.343  0.159  1.184  0.000   52.5    2.1   50.4    0.0
 2001 130    33  10.80  17.80   8.70  2.179  2.179  0.284  1.894  0.000   54.6    2.4   52.3    0.0
 2001 131    34   5.20  14.60   7.60  0.991  0.991  0.138  0.853  0.000   55.6    2.5   53.1    0.0
 2001 132    35  10.80  17.40   7.40  2.137  2.137  0.308  1.829  0.000   57.8    2.8   54.9    0.0
 2001 133    36  11.00  14.20   3.80  2.002  1.499  0.305  1.195  0.000   59.3    3.1   56.1    0.0
 2001 134    37  11.30  17.80   3.40  2.163  2.163  0.320  1.844  0.000   61.4    3.4   58.0    0.0
 2001 135    38   4.40  16.20   6.20  0.846  0.846  0.122  0.724  0.000   62.3    3.6   58.7    0.0
 2001 136    39   4.10  15.80  11.80  0.826  0.826  0.125  0.701  0.000   63.1    3.7   59.4    0.0
 2001 137    40  10.00  18.60  11.20  2.079  2.079  0.335  1.745  0.000   65.2    4.0   61.1    0.0
 2001 138    41   5.20  18.40  10.40  1.069  1.069  0.188  0.880  0.000   66.2    4.2   62.0    0.0
 2001 139    42  11.20  19.00   7.60  2.260  2.260  0.425  1.835  0.000   68.5    4.6   63.9    0.0
 2001 140    43   4.00  17.00  11.30  0.811  0.598  0.162  0.436  0.000   69.1    4.8   64.3    0.0
 2001 141    44   4.00  15.20  12.10  0.796  0.796  0.169  0.627  0.000   69.9    5.0   64.9    0.0
 2001 142    45   4.50  19.20  13.00  0.952  0.952  0.213  0.738  0.000   70.8    5.2   65.7    0.0
 2001 143    46  10.00  19.00   8.30  2.018  2.018  0.488  1.530  0.000   72.9    5.7   67.2    0.0
 2001 144    47  12.20  22.40   6.00  2.522  2.522  0.643  1.878  0.000   75.4    6.3   69.1    0.0
 2001 145    48  12.20  22.20   8.80  2.573  2.265  0.697  1.569  0.000   77.7    7.0   70.6    0.0
 2001 146    49  10.90  24.40   8.00  2.344  2.344  0.679  1.666  0.000   80.0    7.7   72.3    0.0
 2001 147    50   9.50  24.80  10.50  2.093  2.093  0.649  1.443  0.000   82.1    8.3   73.7    0.0
 2001 148    51   7.60  20.80   7.80  1.549  1.549  0.518  1.030  0.000   83.6    8.9   74.8    0.0
 2001 149    52   9.20  24.20  14.40  2.068  1.905  0.725  1.180  0.000   85.5    9.6   76.0    0.0
 2001 150    53   4.10  19.60  13.40  0.860  0.860  0.326  0.533  0.000   86.4    9.9   76.5    0.0
 2001 151    54   3.80  22.20  17.40  0.850  0.850  0.338  0.512  0.000   87.3   10.2   77.0    0.0
 2001 152    55   4.70  23.20  15.60  1.046  1.046  0.434  0.613  0.000   88.3   10.7   77.6    0.0
 2001 153    56   3.70  18.80  16.00  0.781  0.781  0.339  0.442  0.000   89.1   11.0   78.1    0.0
 2001 154    57   3.70  20.80  16.30  0.801  0.801  0.360  0.441  0.000   89.9   11.4   78.5    0.0
 2001 155    58   3.60  20.20  13.80  0.756  0.756  0.351  0.406  0.000   90.6   11.7   78.9    0.0
 2001 156    59   3.60  20.80  15.40  0.772  0.772  0.365  0.407  0.000   91.4   12.1   79.3    0.0
 2001 157    60  12.40  17.00   7.90  2.360  2.360  1.146  1.214  0.000   93.8   13.2   80.5    0.0
 2001 158    61  12.30  21.60   4.20  2.409  2.409  1.193  1.216  0.000   96.2   14.4   81.7    0.0
 2001 159    62   4.20  20.00  10.80  0.854  0.854  0.429  0.425  0.000   97.0   14.9   82.2    0.0
 2001 160    63   3.70  20.80  12.40  0.769  0.769  0.397  0.372  0.000   97.8   15.3   82.5    0.0
 2001 161    64   3.60  21.20  15.70  0.773  0.773  0.408  0.365  0.000   98.6   15.7   82.9    0.0
 2001 162    65   7.80  20.80  14.00  1.640  1.640  0.884  0.756  0.000  100.2   16.6   83.7    0.0
 2001 163    66   7.70  25.00  13.20  1.691  1.691  0.950  0.741  0.000  101.9   17.5   84.4    0.0
 2001 164    67   6.50  26.60  12.60  1.446  1.446  0.836  0.610  0.000  103.3   18.3   85.0    0.0
 2001 165    68  11.70  25.80  16.20  2.649  2.333  1.559  0.774  0.000  105.7   19.9   85.8    0.0
 2001 166    69   3.50  14.00  11.90  0.654  0.654  0.396  0.258  0.000  106.3   20.3   86.0    0.0
 2001 167    70   5.20  13.80   8.80  0.941  0.941  0.572  0.369  0.000  107.3   20.9   86.4    0.0
 2001 168    71   4.70  13.80   7.80  0.842  0.842  0.514  0.327  0.000  108.1   21.4   86.7    0.0
 2001 169    72   9.90  15.20   5.00  1.760  1.760  1.080  0.680  0.000  109.9   22.5   87.4    0.0
 2001 170    73   3.50  12.80   7.60  0.616  0.616  0.379  0.237  0.000  110.5   22.8   87.7    0.0
 2001 171    74   7.70  11.80   3.90  1.284  1.284  0.792  0.492  0.000  111.8   23.6   88.2    0.0
 2001 172    75   9.10  12.20   2.40  1.505  1.505  0.907  0.598  0.000  113.3   24.5   88.7    0.0
 2001 173    76  10.60  14.00   1.40  1.794  1.794  0.995  0.799  0.000  115.1   25.5   89.5    0.0
 2001 174    77   9.50  13.80   2.20  1.631  1.631  0.776  0.855  0.000  116.7   26.3   90.4    0.0
 2001 175    78   7.90  15.40   2.80  1.406  1.406  0.604  0.802  0.000  118.1   26.9   91.2    0.0
 2001 176    79   3.50  15.00   9.40  0.663  0.663  0.266  0.397  0.000  118.8   27.2   91.6    0.0
 2001 177    80   8.20  14.80   5.10  1.484  1.484  0.600  0.885  0.000  120.3   27.8   92.5    0.0
 2001 178    81  11.70  16.00   1.00  2.068  2.068  0.843  1.225  0.000  122.3   28.6   93.7    0.0
 2001 179    82   9.20  17.60   3.00  1.714  1.714  0.568  1.145  0.000  124.0   29.2   94.9    0.0
 2001 180    83   8.60  18.40   5.80  1.668  1.372  0.525  0.847  0.000  125.4   29.7   95.7    0.0
 2001 181    84   9.40  20.80   8.40  1.929  1.667  0.621  1.047  0.000  127.1   30.3   96.8    0.0
 2001 182    85  11.10  20.60   6.20  2.224  2.224  0.736  1.488  0.000  129.3   31.1   98.2    0.0
 2001 183    86   4.40  16.40  10.20  0.862  0.862  0.295  0.568  0.000  130.2   31.4   98.8    0.0
 2001 184    87   4.30  19.00  10.00  0.871  0.871  0.300  0.571  0.000  131.0   31.7   99.4    0.0
 2001 185    88   3.60  18.20   5.00  0.689  0.689  0.240  0.449  0.000  131.7   31.9   99.8    0.0
 2001 186    89  11.20  17.00   2.90  2.062  2.062  0.718  1.344  0.000  133.8   32.6  101.2    0.0
 2001 187    90   8.90  17.20  -0.20  1.597  1.597  0.524  1.073  0.000  135.4   33.1  102.2    0.0
 2001 188    91   8.50  24.60  12.60  1.919  1.588  0.425  1.163  0.000  137.0   33.6  103.4    0.0
 2001 189    92   6.80  25.80  11.60  1.545  1.318  0.350  0.967  0.000  138.3   33.9  104.4    0.0
 2001 190    93   9.60  25.60  11.60  2.174  1.348  0.502  0.846  0.000  139.6   34.4  105.2    0.0
 2001 191    94   3.60  12.40   8.00  0.659  0.659  0.156  0.503  0.000  140.3   34.6  105.7    0.0
 2001 192    95  10.40  13.40   5.20  1.879  1.879  0.446  1.433  0.000  142.2   35.0  107.2    0.0
 2001 193    96  11.30  12.00   0.60  1.901  1.901  0.456  1.446  0.000  144.1   35.5  108.6    0.0
 2001 194    97   8.60  13.80   0.60  1.500  1.500  0.267  1.233  0.000  145.6   35.7  109.8    0.0
 2001 195    98  10.00  17.00   4.20  1.911  1.911  0.251  1.660  0.000  147.5   36.0  111.5    0.0
 2001 196    99  12.50  19.80   0.20  2.393  1.652  0.312  1.340  0.000  149.1   36.3  112.8    0.0
 2001 197   100   7.60  24.00   7.80  1.660  1.660  0.152  1.507  0.000  150.8   36.5  114.3    0.0
 2001 198   101   3.70  19.60  12.80  0.797  0.797  0.075  0.722  0.000  151.6   36.5  115.1    0.0
 2001 199   102  10.20  18.40   8.70  2.083  2.083  0.197  1.886  0.000  153.7   36.7  117.0    0.0
 2001 200   103   3.80  16.80   7.80  0.752  0.752  0.073  0.679  0.000  154.4   36.8  117.6    0.0
 2001 201   104   6.10  15.80  11.00  1.227  1.227  0.120  1.107  0.000  155.7   36.9  118.7    0.0
 2001 202   105   9.30  13.40   6.80  1.734  1.734  0.172  1.562  0.000  157.4   37.1  120.3    0.0
 2001 203   106  11.00  11.00   2.30  1.884  1.884  0.190  1.694  0.000  159.3   37.3  122.0    0.0
 2001 204   107  12.40  11.00  -1.10  2.047  1.956  0.181  1.775  0.000  161.2   37.5  123.8    0.0
 2001 205   108  10.30  13.40   0.20  1.804  1.804  0.081  1.723  0.000  163.0   37.6  125.5    0.0
 2001 206   109   3.90  15.40   6.80  0.755  0.755  0.023  0.732  0.000  163.8   37.6  126.2    0.0
 2001 207   110   4.10  10.40   4.80  0.720  0.720  0.022  0.698  0.000  164.5   37.6  126.9    0.0
 2001 208   111  10.10  10.20   1.40  1.703  1.703  0.051  1.652  0.000  166.2   37.6  128.6    0.0
 2001 209   112  13.10  12.00   0.00  2.243  2.243  0.053  2.190  0.000  168.5   37.7  130.8    0.0
 2001 210   113  13.30  16.20  -0.60  2.423  1.895  0.037  1.859  0.000  170.4   37.7  132.6    0.0
 2001 211   114   6.00  18.40   8.20  1.231  1.231  0.011  1.221  0.000  171.6   37.7  133.8    0.0
 2001 212   115   6.80  23.20  11.80  1.535  1.481  0.013  1.468  0.000  173.1   37.8  135.3    0.0
 2001 213   116  10.50  26.20  11.00  2.444  2.203  0.021  2.181  0.000  175.3   37.8  137.5    0.0
 2001 214   117  12.90  28.80  14.80  3.190  3.185  0.027  3.157  0.000  178.5   37.8  140.6    0.0
 2001 215   118  13.70  29.00  12.80  3.344  1.473  0.029  1.444  0.000  179.9   37.8  142.1    0.0
 2001 216   119  13.30  23.60   9.60  2.962  1.135  0.025  1.110  0.000  181.1   37.9  143.2    0.0
 2001 217   120   8.70  20.80  15.00  1.957  0.953  0.017  0.936  0.000  182.0   37.9  144.1    0.0
 2001 218   121   7.00  22.60  12.80  1.581  0.839  0.013  0.825  0.000  182.9   37.9  145.0    0.0
 2001 219   122  14.10  16.60   6.20  2.768  2.057  0.024  2.033  0.000  184.9   37.9  147.0    0.0
 2001 220   123  14.70  20.20   2.80  2.942  2.617  0.025  2.592  0.000  187.5   37.9  149.6    0.0
 2001 221   124   8.20  15.80   5.90  1.587  1.416  0.012  1.404  0.000  188.9   38.0  151.0    0.0
 2001 222   125   9.50  17.80   7.40  1.919  1.106  0.015  1.092  0.000  190.1   38.0  152.1    0.0
 2001 223   126  11.80  21.00   6.90  2.480  0.944  0.019  0.925  0.000  191.0   38.0  153.0    0.0
 2001 224   127  12.60  23.00  13.80  2.885  0.840  0.022  0.818  0.000  191.8   38.0  153.8    0.0
 2001 225   128   6.10  23.80  13.40  1.406  0.751  0.011  0.741  0.000  192.6   38.0  154.6    0.0
 2001 226   129  12.30  25.80  14.80  2.937  1.504  0.022  1.482  0.000  194.1   38.0  156.1    0.0
 2001 227   130   5.70  21.20  12.80  1.265  0.645  0.009  0.635  0.000  194.7   38.1  156.7    0.0
 2001 228   131   4.70  20.20  16.40  1.062  1.018  0.008  1.010  0.000  195.8   38.1  157.7    0.0
 2001 229   132   4.70  19.10  16.80  1.051  1.051  0.008  1.043  0.000  196.8   38.1  158.7    0.0
 2001 230   133   4.70  18.00  13.30  1.005  1.005  0.007  0.997  0.000  197.8   38.1  159.7    0.0
 2001 231   134  10.40  17.20   5.10  2.038  2.038  0.015  2.023  0.000  199.8   38.1  161.8    0.0
 2001 232   135  16.60  17.00   4.60  3.228  3.228  0.024  3.204  0.000  203.1   38.1  165.0    0.0
 2001 233   136  16.10  17.40   3.60  3.119  2.189  0.022  2.167  0.000  205.3   38.1  167.1    0.0
 2001 234   137  13.10  18.80   3.20  2.580  2.391  0.018  2.373  0.000  207.7   38.2  169.5    0.0
 2001 235   138   8.40  20.60   5.20  1.729  1.386  0.011  1.375  0.000  209.0   38.2  170.9    0.0
 2001 236   139  12.40  20.20  14.00  2.745  1.297  0.017  1.280  0.000  210.3   38.2  172.2    0.0
 2001 237   140  10.10  19.80   9.40  2.137  1.150  0.013  1.136  0.000  211.5   38.2  173.3    0.0
 2001 238   141   6.70  22.80  11.80  1.505  0.961  0.009  0.952  0.000  212.5   38.2  174.2    0.0
 2001 239   142  10.90  22.60   6.00  2.322  1.995  0.014  1.981  0.000  214.4   38.2  176.2    0.0
 2001 240   143  11.00  22.80   4.40  2.317  2.317  0.014  2.302  0.000  216.8   38.2  178.5    0.0
 2001 241   144  14.40  21.80   5.80  3.030  1.703  0.018  1.685  0.000  218.5   38.3  180.2    0.0
 2001 242   145  12.20  23.20  14.00  2.805  1.223  0.017  1.206  0.000  219.7   38.3  181.4    0.0
 2001 243   146   5.30  19.80  15.60  1.184  1.184  0.007  1.176  0.000  220.9   38.3  182.6    0.0
 2001 244   147   5.30  18.60  15.80  1.167  1.167  0.007  1.160  0.000  222.0   38.3  183.8    0.0
 2001 245   148   5.40  15.20  12.00  1.098  1.098  0.007  1.092  0.000  223.1   38.3  184.8    0.0
 2001 246   149   5.40  15.40  11.90  1.100  1.100  0.007  1.094  0.000  224.2   38.3  185.9    0.0
 2001 247   150   9.80  16.20  11.60  2.014  2.014  0.012  2.002  0.000  226.3   38.3  187.9    0.0
 2001 248   151  14.90  17.60   9.60  3.065  3.065  0.019  3.046  0.000  229.3   38.3  191.0    0.0
 2001 249   152  11.70  19.20   9.40  2.455  1.543  0.015  1.528  0.000  230.9   38.3  192.5    0.0
 2001 250   153   5.60  17.40  14.80  1.204  1.204  0.007  1.197  0.000  232.1   38.3  193.7    0.0
 2001 251   154  19.10  18.20   9.20  3.947  3.947  0.024  3.923  0.000  236.0   38.4  197.6    0.0
 2001 252   155  13.90  17.80   4.80  2.740  2.482  0.017  2.465  0.000  238.5   38.4  200.1    0.0
 2001 253   156  19.50  17.80   3.20  3.785  3.156  0.023  3.134  0.000  241.6   38.4  203.2    0.0
 2001 254   157  19.50  17.00   4.80  3.800  1.464  0.021  1.443  0.000  243.1   38.4  204.7    0.0
 2001 255   158  18.30  19.20   2.90  3.615  1.129  0.020  1.110  0.000  244.2   38.5  205.8    0.0
 2001 256   159   5.90  13.40   7.60  1.121  0.942  0.005  0.936  0.000  245.2   38.5  206.7    0.0
 2001 257   160  10.40  17.20   6.80  2.072  1.835  0.010  1.825  0.000  247.0   38.5  208.5    0.0
 2001 258   161  15.00  14.80   5.20  2.841  0.760  0.014  0.746  0.000  247.8   38.5  209.3    0.0
 2001 259   162  16.20  14.80   3.80  3.025  1.535  0.015  1.520  0.000  249.3   38.5  210.8    0.0
 2001 260   163  19.10  16.80   0.40  3.552  0.732  0.016  0.716  0.000  250.0   38.5  211.5    0.0
 2001 261   164  20.10  22.60   5.60  4.269  0.676  0.014  0.662  0.000  250.7   38.5  212.2    0.0
 2001 262   165  17.20  24.80   6.60  3.793  0.631  0.012  0.619  0.000  251.4   38.5  212.8    0.0
 2001 263   166  17.50  25.40   9.40  3.982  0.597  0.013  0.584  0.000  251.9   38.6  213.4    0.0
 2001 264   167  12.30  21.80  10.80  2.706  0.562  0.009  0.554  0.000  252.5   38.6  213.9    0.0
 2001 265   168  15.60  25.40  14.30  3.695  0.540  0.012  0.528  0.000  253.1   38.6  214.5    0.0
 2001 266   169  12.50  24.40  14.60  2.932  0.515  0.009  0.505  0.000  253.6   38.6  215.0    0.0
 2001 267   170  14.60  21.80  16.20  3.361  0.496  0.011  0.486  0.000  254.1   38.6  215.5    0.0
 2001 268   171  12.40  18.60  11.20  2.624  2.624  0.008  2.616  0.000  256.7   38.6  218.1    0.0
 2001 269   172  11.80  18.80   8.90  2.452  0.577  0.008  0.569  0.000  257.3   38.6  218.7    0.0
 2001 270   173   8.20  18.60   7.80  1.682  0.547  0.005  0.541  0.000  257.8   38.6  219.2    0.0
 2001 271   174   6.70  18.40  14.60  1.457  0.522  0.005  0.517  0.000  258.3   38.6  219.7    0.0
 2001 272   175   8.00  21.20  15.80  1.822  0.502  0.006  0.496  0.000  258.8   38.6  220.2    0.0
 2001 273   176   6.70  17.50  16.40  1.463  1.463  0.005  1.458  0.000  260.3   38.6  221.7    0.0
 2001 274   177  16.60  24.40  16.40  3.950  3.950  0.013  3.938  0.000  264.2   38.6  225.6    0.0
 2001 275   178   8.70  20.60  15.40  1.960  1.960  0.006  1.954  0.000  266.2   38.6  227.6    0.0
 2001 276   179  11.00  21.80  15.40  2.516  2.516  0.008  2.508  0.000  268.7   38.7  230.1    0.0
 2001 277   180  13.00  19.80  15.00  2.889  2.889  0.009  2.880  0.000  271.6   38.7  232.9    0.0
 2001 278   181  15.30  21.60  13.40  3.432  3.432  0.011  3.421  0.000  275.0   38.7  236.4    0.0
 2001 279   182  18.70  23.20  14.60  4.323  3.156  0.014  3.142  0.000  278.2   38.7  239.5    0.0
 2001 280   183   7.10  20.40  15.90  1.602  1.602  0.005  1.597  0.000  279.8   38.7  241.1    0.0
 2001 281   184   9.50  22.60  15.90  2.203  2.203  0.007  2.196  0.000  282.0   38.7  243.3    0.0
 2001 282   185   8.20  20.60  14.80  1.838  1.838  0.006  1.832  0.000  283.8   38.7  245.1    0.0
 2001 283   186  19.40  25.20  13.80  4.565  4.565  0.015  4.551  0.000  288.4   38.7  249.7    0.0
 2001 284   187  22.50  20.60   9.30  4.808  3.671  0.015  3.656  0.000  292.1   38.7  253.3    0.0
 2001 285   188  15.40  19.00   5.80  3.119  2.197  0.010  2.187  0.000  294.3   38.7  255.5    0.0
 2001 286   189  23.90  22.40   9.40  5.234  1.358  0.017  1.342  0.000  295.6   38.8  256.9    0.0
 2001 287   190  14.60  23.20   9.20  3.225  1.072  0.010  1.062  0.000  296.7   38.8  257.9    0.0
 2001 288   191   7.40  18.80  15.80  1.635  0.912  0.005  0.907  0.000  297.6   38.8  258.8    0.0
 2001 289   192   7.50  18.80  15.40  1.651  1.651  0.005  1.646  0.000  299.3   38.8  260.5    0.0
 2001 290   193   8.00  21.20  15.00  1.810  1.810  0.006  1.804  0.000  301.1   38.8  262.3    0.0
 2001 291   194  10.40  22.80  17.80  2.455  2.455  0.008  2.447  0.000  303.5   38.8  264.7    0.0
 2001 292   195  18.70  25.80  18.60  4.603  4.188  0.015  4.174  0.000  307.7   38.8  268.9    0.0
 2001 293   196  19.70  26.80  16.90  4.841  2.949  0.015  2.933  0.000  310.7   38.8  271.8    0.0
 2001 294   197  19.80  21.00  10.80  4.310  4.310  0.014  4.297  0.000  315.0   38.8  276.1    0.0
 2001 295   198  20.90  19.80   8.90  4.403  3.329  0.014  3.315  0.000  318.3   38.9  279.5    0.0
 2001 296   199  25.70  24.80   7.20  5.697  2.260  0.018  2.242  0.000  320.6   38.9  281.7    0.0
 2001 297   200  24.90  27.10   9.20  5.777  1.371  0.018  1.352  0.000  321.9   38.9  283.0    0.0
 2001 298   201  21.50  28.60  13.10  5.239  1.084  0.017  1.067  0.000  323.0   38.9  284.1    0.0
 2001 299   202   7.90  24.80  18.00  1.913  1.286  0.006  1.280  0.000  324.3   38.9  285.4    0.0
 2001 300   203   7.90  24.60  17.90  1.907  1.907  0.006  1.901  0.000  326.2   38.9  287.3    0.0
 2001 301   204   8.00  21.20  18.60  1.864  1.864  0.006  1.858  0.000  328.1   38.9  289.2    0.0
 2001 302   205   8.50  25.20  19.40  2.091  2.091  0.007  2.084  0.000  330.2   38.9  291.2    0.0
 2001 303   206  20.10  21.60  16.40  4.623  4.623  0.015  4.609  0.000  334.8   38.9  295.8    0.0
 2001 304   207  26.90  23.00  12.90  6.116  4.234  0.019  4.214  0.000  339.0   39.0  300.1    0.0
 2001 305   208  27.10  24.00   9.40  6.059  1.693  0.019  1.674  0.000  340.7   39.0  301.7    0.0

*DSSAT Cropping System Model Ver. 4.0.2.000               Aug 12, 2016; 12:46:17

*RUN   2        : UYMZ                    
 MODEL          : MZCER040 - Maize           
 EXPERIMENT     : UYMZ0194 MZ    late to create DSS                             
 TREATMENT  1   : UYMZ                    

@YEAR DOY   DAS   SRAA   TMXA   TMNA   EOAA   ETAA   EPAA   ESAA   EFAD   ETAC   EPAC   ESAC   EFAC
 2002 097     0  10.90  28.00  19.80  2.777  2.362  0.000  2.362  0.000    2.4    0.0    2.4    0.0
 2002 098     1  11.00  27.20  20.40  2.790  2.790  0.000  2.790  0.000    5.2    0.0    5.2    0.0
 2002 099     2  15.90  26.60  18.80  3.957  1.507  0.000  1.507  0.000    6.7    0.0    6.7    0.0
 2002 100     3   5.60  20.80  17.90  1.292  0.611  0.000  0.611  0.000    7.3    0.0    7.3    0.0
 2002 101     4   5.60  21.20  13.80  1.255  0.130  0.000  0.130  0.000    7.4    0.0    7.4    0.0
 2002 102     5  11.40  20.20  13.00  2.504  2.504  0.000  2.504  0.000    9.9    0.0    9.9    0.0
 2002 103     6  10.20  20.40   9.60  2.181  2.181  0.000  2.181  0.000   12.1    0.0   12.1    0.0
 2002 104     7   7.20  22.20  13.80  1.633  1.506  0.000  1.506  0.000   13.6    0.0   13.6    0.0
 2002 105     8  13.80  25.00  15.20  3.277  3.277  0.000  3.277  0.000   16.9    0.0   16.9    0.0
 2002 106     9   5.30  21.60  17.80  1.234  1.234  0.000  1.234  0.000   18.1    0.0   18.1    0.0
 2002 107    10  15.90  24.80  14.80  3.755  3.755  0.000  3.755  0.000   21.9    0.0   21.9    0.0
 2002 108    11  16.20  20.40   9.80  3.469  2.982  0.008  2.975  0.000   24.8    0.0   24.8    0.0
 2002 109    12  16.50  22.80   8.80  3.614  2.858  0.012  2.846  0.000   27.7    0.0   27.7    0.0
 2002 110    13  16.00  19.40  11.30  3.425  3.425  0.017  3.408  0.000   31.1    0.0   31.1    0.0
 2002 111    14  16.70  17.80   5.60  3.318  3.036  0.021  3.015  0.000   34.2    0.1   34.1    0.0
 2002 112    15   5.10  18.40   7.40  1.039  1.039  0.007  1.032  0.000   35.2    0.1   35.1    0.0
 2002 113    16   5.00  18.60  15.80  1.101  1.101  0.009  1.092  0.000   36.3    0.1   36.2    0.0
 2002 114    17   5.00  17.00  14.20  1.063  1.063  0.011  1.052  0.000   37.4    0.1   37.3    0.0
 2002 115    18  15.20  21.80  14.90  3.458  3.458  0.040  3.418  0.000   40.8    0.1   40.7    0.0
 2002 116    19  11.20  22.20  11.00  2.478  2.478  0.031  2.447  0.000   43.3    0.2   43.1    0.0
 2002 117    20  16.40  19.20   5.80  3.325  2.194  0.062  2.132  0.000   45.5    0.2   45.3    0.0
 2002 118    21  16.10  20.60   3.40  3.253  2.267  0.074  2.193  0.000   47.8    0.3   47.5    0.0
 2002 119    22   4.80  15.60  10.20  0.963  0.672  0.024  0.648  0.000   48.4    0.3   48.1    0.0
 2002 120    23  10.90  20.80  11.20  2.368  2.368  0.070  2.298  0.000   50.8    0.4   50.4    0.0
 2002 121    24  14.30  21.20   8.20  3.039  3.039  0.114  2.925  0.000   53.8    0.5   53.3    0.0
 2002 122    25  15.70  22.90   5.60  3.332  2.370  0.150  2.220  0.000   56.2    0.7   55.6    0.0
 2002 123    26  15.40  22.90   7.20  3.312  2.517  0.174  2.343  0.000   58.7    0.8   57.9    0.0
 2002 124    27  14.90  24.20   9.00  3.307  1.574  0.204  1.370  0.000   60.3    1.0   59.3    0.0
 2002 125    28  13.80  19.20  10.40  2.900  1.287  0.212  1.076  0.000   61.6    1.2   60.3    0.0
 2002 126    29  14.90  21.40   5.00  3.070  1.167  0.251  0.916  0.000   62.8    1.5   61.3    0.0
 2002 127    30   9.10  21.00   6.60  1.890  0.979  0.168  0.811  0.000   63.7    1.7   62.1    0.0
 2002 128    31  11.80  22.00   9.70  2.551  0.983  0.248  0.736  0.000   64.7    1.9   62.8    0.0
 2002 129    32  14.40  18.80   5.00  2.853  0.988  0.310  0.678  0.000   65.7    2.2   63.5    0.0
 2002 130    33  10.00  22.20   6.00  2.094  0.872  0.240  0.632  0.000   66.6    2.5   64.1    0.0
 2002 131    34  13.20  26.60   8.00  2.973  0.964  0.370  0.595  0.000   67.5    2.8   64.7    0.0
 2002 132    35   4.40  27.20  16.80  1.069  1.069  0.150  0.919  0.000   68.6    3.0   65.6    0.0
 2002 133    36   4.20  24.60  16.60  0.986  0.986  0.160  0.825  0.000   69.6    3.1   66.5    0.0
 2002 134    37  13.90  29.80  17.20  3.475  3.475  0.613  2.862  0.000   73.1    3.8   69.3    0.0
 2002 135    38   4.20  20.00  16.80  0.928  0.928  0.197  0.731  0.000   74.0    3.9   70.0    0.0
 2002 136    39   4.20  19.80  15.40  0.914  0.914  0.208  0.706  0.000   74.9    4.2   70.8    0.0
 2002 137    40   4.10  18.40  17.00  0.886  0.886  0.217  0.669  0.000   75.8    4.4   71.4    0.0
 2002 138    41   5.90  20.80  16.00  1.301  1.301  0.344  0.957  0.000   77.1    4.7   72.4    0.0
 2002 139    42  10.60  17.40  12.80  2.169  2.169  0.628  1.541  0.000   79.3    5.3   73.9    0.0
 2002 140    43   5.90  16.80  10.40  1.169  1.169  0.359  0.811  0.000   80.4    5.7   74.7    0.0
 2002 141    44  13.20  17.00   6.10  2.515  2.515  0.806  1.710  0.000   83.0    6.5   76.4    0.0
 2002 142    45  11.60  18.20   3.20  2.185  2.185  0.721  1.464  0.000   85.1    7.2   77.9    0.0
 2002 143    46  12.80  22.00   7.60  2.651  2.116  0.839  1.277  0.000   87.3    8.1   79.2    0.0
 2002 144    47  12.60  23.20   8.60  2.669  2.669  0.895  1.773  0.000   89.9    9.0   81.0    0.0
 2002 145    48  10.60  23.40   6.60  2.207  2.207  0.790  1.417  0.000   92.1    9.8   82.4    0.0
 2002 146    49   5.80  22.90  10.80  1.241  1.241  0.469  0.773  0.000   93.4   10.2   83.1    0.0
 2002 147    50   3.80  19.40  14.80  0.802  0.802  0.322  0.480  0.000   94.2   10.5   83.6    0.0
 2002 148    51   3.90  17.80  16.00  0.814  0.814  0.340  0.473  0.000   95.0   10.9   84.1    0.0
 2002 149    52   3.70  17.60  14.00  0.755  0.755  0.329  0.426  0.000   95.7   11.2   84.5    0.0
 2002 150    53   6.80  18.00  10.00  1.343  1.343  0.606  0.737  0.000   97.1   11.8   85.3    0.0
 2002 151    54  10.10  16.80   8.90  1.940  1.940  0.895  1.046  0.000   99.0   12.7   86.3    0.0
 2002 152    55   9.30  20.30   9.20  1.877  1.877  0.886  0.991  0.000  100.9   13.6   87.3    0.0
 2002 153    56   4.30  20.00  15.00  0.908  0.908  0.445  0.463  0.000  101.8   14.0   87.8    0.0
 2002 154    57   7.10  23.60  14.20  1.555  1.555  0.787  0.767  0.000  103.4   14.8   88.5    0.0
 2002 155    58   4.30  26.00  17.80  0.994  0.994  0.529  0.465  0.000  104.4   15.4   89.0    0.0
 2002 156    59   3.70  24.20  13.90  0.810  0.810  0.443  0.367  0.000  105.2   15.8   89.4    0.0
 2002 157    60  11.70  17.40   9.20  2.250  2.250  1.248  1.002  0.000  107.4   17.1   90.4    0.0
 2002 158    61   8.70  16.60   7.20  1.622  1.622  0.910  0.712  0.000  109.0   18.0   91.1    0.0
 2002 159    62  12.10  17.80   4.20  2.228  2.228  1.268  0.960  0.000  111.3   19.2   92.0    0.0
 2002 160    63   8.20  19.40   7.20  1.589  1.589  0.902  0.687  0.000  112.9   20.1   92.7    0.0
 2002 161    64  11.80  10.80   1.10  1.885  1.885  1.094  0.791  0.000  114.7   21.2   93.5    0.0
 2002 162    65   9.20  11.20  -0.20  1.473  1.473  0.714  0.759  0.000  116.2   21.9   94.3    0.0
 2002 163    66  11.40  12.20  -1.20  1.866  1.807  0.629  1.178  0.000  118.0   22.6   95.5    0.0
 2002 164    67  10.90  12.20  -2.00  1.799  1.799  0.328  1.472  0.000  119.8   22.9   96.9    0.0
 2002 165    68  10.00  14.20   0.20  1.769  1.769  0.127  1.642  0.000  121.6   23.0   98.6    0.0
 2002 166    69  10.80  15.00  -1.20  1.911  1.639  0.097  1.542  0.000  123.2   23.1  100.1    0.0
 2002 167    70   3.60  15.40   2.40  0.667  0.667  0.018  0.650  0.000  123.9   23.1  100.8    0.0
 2002 168    71   3.50  14.40  12.80  0.708  0.708  0.017  0.691  0.000  124.6   23.2  101.4    0.0
 2002 169    72  11.20  16.60   7.80  2.229  2.229  0.054  2.176  0.000  126.8   23.2  103.6    0.0
 2002 170    73  11.50  18.40   4.00  2.264  2.264  0.060  2.204  0.000  129.1   23.3  105.8    0.0
 2002 171    74  11.60  18.60   3.00  2.268  2.035  0.064  1.970  0.000  131.1   23.3  107.8    0.0
 2002 172    75   9.80  11.60   4.00  1.740  1.740  0.050  1.690  0.000  132.9   23.4  109.5    0.0
 2002 173    76   9.50  11.20   0.20  1.608  1.608  0.046  1.562  0.000  134.5   23.4  111.0    0.0
 2002 174    77  10.30  10.40  -2.60  1.667  1.653  0.032  1.621  0.000  136.1   23.5  112.7    0.0
 2002 175    78  10.90  12.60  -1.20  1.864  1.109  0.010  1.099  0.000  137.2   23.5  113.8    0.0
 2002 176    79   9.90  14.80  -1.20  1.755  0.934  0.004  0.930  0.000  138.2   23.5  114.7    0.0
 2002 177    80   6.10  15.00   0.20  1.101  0.822  0.001  0.821  0.000  139.0   23.5  115.5    0.0
 2002 178    81   3.50  13.60   5.60  0.654  0.654  0.000  0.653  0.000  139.7   23.5  116.2    0.0
 2002 179    82   4.70  19.80   6.60  0.970  0.691  0.000  0.690  0.000  140.3   23.5  116.9    0.0
 2002 180    83   6.00  22.60  12.20  1.350  1.043  0.000  1.042  0.000  141.4   23.5  117.9    0.0
 2002 181    84   3.50  14.40   6.90  0.671  0.603  0.000  0.603  0.000  142.0   23.5  118.5    0.0
 2002 182    85   4.60  14.20   4.00  0.853  0.570  0.000  0.570  0.000  142.6   23.5  119.1    0.0
 2002 183    86   3.50  16.80  10.00  0.715  0.542  0.000  0.542  0.000  143.1   23.5  119.6    0.0
 2002 184    87   3.50  18.60  14.00  0.760  0.760  0.000  0.760  0.000  143.9   23.5  120.4    0.0
 2002 185    88   3.60  16.80  11.80  0.748  0.748  0.000  0.748  0.000  144.6   23.5  121.1    0.0
 2002 186    89   3.90  18.40  13.60  0.841  0.841  0.000  0.841  0.000  145.4   23.5  122.0    0.0
 2002 187    90   3.60  12.00  10.80  0.692  0.692  0.000  0.692  0.000  146.1   23.5  122.7    0.0
 2002 188    91  10.00  12.80   6.00  1.853  1.853  0.000  1.853  0.000  148.0   23.5  124.5    0.0
 2002 189    92   6.30  12.20   4.40  1.138  1.138  0.000  1.138  0.000  149.1   23.5  125.7    0.0
 2002 190    93   9.60  11.00   0.30  1.626  1.626  0.000  1.626  0.000  150.8   23.5  127.3    0.0
 2002 191    94  11.20  10.80  -2.40  1.833  1.377  0.000  1.377  0.000  152.1   23.5  128.7    0.0
 2002 192    95   9.10  11.00  -2.00  1.502  1.502  0.000  1.502  0.000  153.6   23.5  130.2    0.0
 2002 193    96   5.10  13.60   2.00  0.918  0.918  0.000  0.918  0.000  154.6   23.5  131.1    0.0
 2002 194    97  12.10  18.20   6.00  2.428  1.574  0.000  1.574  0.000  156.1   23.5  132.6    0.0

*DSSAT Cropping System Model Ver. 4.0.2.000               Aug 12, 2016; 12:46:17

*RUN   3        : UYMZ                    
 MODEL          : MZCER040 - Maize           
 EXPERIMENT     : UYMZ0194 MZ    late to create DSS                             
 TREATMENT  1   : UYMZ                    

@YEAR DOY   DAS   SRAA   TMXA   TMNA   EOAA   ETAA   EPAA   ESAA   EFAD   ETAC   EPAC   ESAC   EFAC
 2003 097     0  16.80  24.40   8.80  3.757  3.273  0.000  3.273  0.000    3.3    0.0    3.3    0.0
 2003 098     1  18.50  26.40   9.60  4.271  2.848  0.000  2.848  0.000    6.1    0.0    6.1    0.0
 2003 099     2  16.60  24.00   8.70  3.690  0.934  0.000  0.934  0.000    7.1    0.0    7.1    0.0
 2003 100     3  18.70  19.80   5.60  3.824  0.134  0.000  0.134  0.000    7.2    0.0    7.2    0.0
 2003 101     4  11.10  16.80   9.90  2.266  0.129  0.000  0.129  0.000    7.3    0.0    7.3    0.0
 2003 102     5  16.80  20.60   5.20  3.461  0.125  0.000  0.125  0.000    7.4    0.0    7.4    0.0
 2003 103     6  18.30  21.20   4.00  3.759  0.121  0.000  0.121  0.000    7.6    0.0    7.6    0.0
 2003 104     7  18.00  25.80   4.00  3.933  0.117  0.000  0.117  0.000    7.7    0.0    7.7    0.0
 2003 105     8  17.40  26.80   6.60  3.938  0.114  0.000  0.114  0.000    7.8    0.0    7.8    0.0
 2003 106     9  17.00  26.40   8.20  3.879  0.111  0.000  0.111  0.000    7.9    0.0    7.9    0.0
 2003 107    10  11.70  27.20  12.40  2.790  0.108  0.000  0.108  0.000    8.0    0.0    8.0    0.0
 2003 108    11   5.40  20.60  17.00  1.233  0.106  0.000  0.106  0.000    8.1    0.0    8.1    0.0
 2003 109    12   8.00  18.20  10.00  1.666  0.104  0.000  0.104  0.000    8.2    0.0    8.2    0.0
 2003 110    13  17.00  22.20   4.80  3.567  3.109  0.000  3.109  0.000   11.3    0.0   11.3    0.0
 2003 111    14  17.10  25.40   6.00  3.782  2.881  0.000  2.881  0.000   14.2    0.0   14.2    0.0
 2003 112    15  12.50  25.60   7.60  2.810  1.430  0.000  1.430  0.000   15.6    0.0   15.6    0.0
 2003 113    16   5.00  18.80  15.90  1.106  0.905  0.000  0.905  0.000   16.5    0.0   16.5    0.0
 2003 114    17   5.00  20.40  16.10  1.131  1.131  0.000  1.131  0.000   17.7    0.0   17.7    0.0
 2003 115    18   7.00  22.20  14.70  1.600  1.600  0.000  1.600  0.000   19.3    0.0   19.3    0.0
 2003 116    19   4.90  19.60  13.60  1.074  1.074  0.000  1.074  0.000   20.4    0.0   20.4    0.0
 2003 117    20   4.80  17.60  14.80  1.035  1.035  0.002  1.033  0.000   21.4    0.0   21.4    0.0
 2003 118    21   5.40  19.80  13.20  1.182  1.182  0.003  1.178  0.000   22.6    0.0   22.6    0.0
 2003 119    22   5.50  16.80   9.90  1.122  1.122  0.005  1.117  0.000   23.7    0.0   23.7    0.0
 2003 120    23   4.70  17.60  12.80  0.995  0.995  0.005  0.990  0.000   24.7    0.0   24.7    0.0
 2003 121    24  14.30  20.80   7.30  3.009  3.009  0.019  2.990  0.000   27.7    0.0   27.7    0.0
 2003 122    25  16.30  20.40   5.20  3.346  3.222  0.026  3.196  0.000   30.9    0.1   30.9    0.0
 2003 123    26  13.70  19.40   3.80  2.736  2.736  0.024  2.712  0.000   33.7    0.1   33.6    0.0
 2003 124    27   8.90  19.80   3.20  1.778  1.662  0.016  1.646  0.000   35.3    0.1   35.2    0.0
 2003 125    28  13.30  21.40   5.60  2.777  1.217  0.026  1.192  0.000   36.5    0.1   36.4    0.0
 2003 126    29  11.40  17.80   7.20  2.298  1.008  0.024  0.984  0.000   37.5    0.2   37.4    0.0
 2003 127    30  14.30  19.20   8.10  2.964  0.892  0.035  0.857  0.000   38.4    0.2   38.2    0.0
 2003 128    31  14.20  20.20   4.80  2.893  0.816  0.046  0.769  0.000   39.2    0.2   39.0    0.0
 2003 129    32  13.10  20.20   2.60  2.613  0.756  0.051  0.704  0.000   40.0    0.3   39.7    0.0
 2003 130    33   7.20  20.60   6.90  1.503  0.684  0.031  0.653  0.000   40.7    0.3   40.4    0.0
 2003 131    34  12.60  24.40   7.20  2.772  0.682  0.070  0.612  0.000   41.4    0.4   41.0    0.0
 2003 132    35   7.60  19.00   2.00  1.479  0.626  0.049  0.578  0.000   42.0    0.4   41.6    0.0
 2003 133    36   7.20  20.20  10.80  1.546  0.595  0.046  0.548  0.000   42.6    0.5   42.1    0.0
 2003 134    37  10.50  25.20  14.80  2.481  0.616  0.093  0.523  0.000   43.2    0.6   42.6    0.0
 2003 135    38   6.40  25.20  12.80  1.486  0.577  0.076  0.501  0.000   43.8    0.6   43.1    0.0
 2003 136    39   4.10  18.80  16.00  0.901  0.540  0.058  0.482  0.000   44.3    0.7   43.6    0.0
 2003 137    40   4.10  20.20  14.80  0.907  0.907  0.069  0.838  0.000   45.2    0.8   44.5    0.0
 2003 138    41   5.70  18.40  12.00  1.200  1.200  0.105  1.095  0.000   46.4    0.9   45.6    0.0
 2003 139    42   4.00  18.80  13.80  0.859  0.859  0.084  0.775  0.000   47.3    1.0   46.3    0.0
 2003 140    43   6.80  20.60  15.00  1.509  1.509  0.162  1.347  0.000   48.8    1.1   47.7    0.0
 2003 141    44   4.00  18.80  13.80  0.858  0.858  0.095  0.763  0.000   49.7    1.2   48.4    0.0
 2003 142    45   3.90  18.00  15.90  0.842  0.842  0.102  0.740  0.000   50.5    1.3   49.2    0.0
 2003 143    46   9.70  17.60  11.00  1.994  1.994  0.248  1.746  0.000   52.5    1.6   50.9    0.0
 2003 144    47   8.00  14.80   9.40  1.558  1.558  0.196  1.362  0.000   54.1    1.8   52.3    0.0
 2003 145    48   9.20  16.20   6.00  1.768  1.768  0.234  1.533  0.000   55.8    2.0   53.8    0.0
 2003 146    49  12.00  18.40   3.40  2.320  2.065  0.324  1.741  0.000   57.9    2.3   55.6    0.0
 2003 147    50  12.90  17.20   3.60  2.456  2.456  0.336  2.119  0.000   60.3    2.7   57.7    0.0
 2003 148    51  12.60  16.60   5.20  2.416  2.128  0.328  1.801  0.000   62.5    3.0   59.5    0.0
 2003 149    52   9.10  21.80   4.80  1.869  1.510  0.266  1.244  0.000   64.0    3.3   60.7    0.0
 2003 150    53   7.00  23.90   9.40  1.537  1.247  0.235  1.012  0.000   65.2    3.5   61.7    0.0
 2003 151    54   6.30  19.00  10.20  1.304  1.101  0.225  0.876  0.000   66.3    3.7   62.6    0.0
 2003 152    55   5.30  20.00   6.00  1.068  0.983  0.201  0.783  0.000   67.3    3.9   63.4    0.0
 2003 153    56   3.70  17.20   8.80  0.735  0.735  0.147  0.589  0.000   68.0    4.1   64.0    0.0
 2003 154    57  10.50  14.20   5.10  1.924  1.924  0.406  1.518  0.000   70.0    4.5   65.5    0.0
 2003 155    58  11.60  16.60   1.00  2.114  2.114  0.453  1.661  0.000   72.1    4.9   67.2    0.0
 2003 156    59   3.60  15.60   5.40  0.679  0.679  0.115  0.564  0.000   72.8    5.0   67.7    0.0
 2003 157    60  11.50  18.60   4.60  2.246  2.246  0.393  1.853  0.000   75.0    5.4   69.6    0.0
 2003 158    61   8.50  12.80   0.30  1.454  1.300  0.266  1.034  0.000   76.3    5.7   70.6    0.0
 2003 159    62  12.40  13.80  -1.20  2.133  2.133  0.273  1.860  0.000   78.4    6.0   72.5    0.0
 2003 160    63   3.80  14.20   0.60  0.676  0.676  0.044  0.632  0.000   79.1    6.0   73.1    0.0
 2003 161    64   3.60  13.20   8.60  0.685  0.685  0.033  0.653  0.000   79.8    6.0   73.8    0.0
 2003 162    65  10.40  16.80   6.20  2.038  2.038  0.102  1.936  0.000   81.8    6.1   75.7    0.0
 2003 163    66   3.60  14.40   4.00  0.665  0.491  0.040  0.451  0.000   82.3    6.2   76.1    0.0
 2003 164    67   7.40  17.60   7.00  1.477  1.477  0.089  1.388  0.000   83.8    6.3   77.5    0.0
 2003 165    68   5.50  14.60   4.40  1.023  1.023  0.071  0.952  0.000   84.8    6.3   78.5    0.0
 2003 166    69   6.30  20.00   8.10  1.311  1.311  0.095  1.216  0.000   86.1    6.4   79.7    0.0
 2003 167    70   7.50  14.80   1.90  1.362  1.362  0.112  1.250  0.000   87.5    6.6   81.0    0.0
 2003 168    71   6.60  14.00   0.90  1.172  1.172  0.085  1.087  0.000   88.7    6.6   82.0    0.0
 2003 169    72   3.50  14.60   2.60  0.640  0.640  0.036  0.604  0.000   89.3    6.7   82.6    0.0
 2003 170    73   5.30  18.60   5.00  1.054  1.054  0.055  0.999  0.000   90.4    6.7   83.6    0.0
 2003 171    74   6.30  20.00  10.20  1.338  1.330  0.076  1.254  0.000   91.7    6.8   84.9    0.0
 2003 172    75   6.30  17.60  10.20  1.294  1.285  0.083  1.202  0.000   93.0    6.9   86.1    0.0
 2003 173    76  11.40  18.40   1.60  2.182  2.182  0.158  2.023  0.000   95.2    7.0   88.1    0.0
 2003 174    77   4.10  16.80   8.00  0.816  0.816  0.055  0.761  0.000   96.0    7.1   88.9    0.0
 2003 175    78  10.50  19.00   3.60  2.067  2.067  0.149  1.918  0.000   98.0    7.2   90.8    0.0
 2003 176    79   3.50  12.80  10.80  0.674  0.674  0.055  0.620  0.000   98.7    7.3   91.4    0.0
 2003 177    80   3.50  13.50  10.00  0.676  0.676  0.057  0.619  0.000   99.4    7.4   92.0    0.0
 2003 178    81   3.50  14.60  11.90  0.699  0.699  0.061  0.638  0.000  100.1    7.4   92.7    0.0
 2003 179    82   3.60  16.60  12.20  0.741  0.741  0.068  0.673  0.000  100.8    7.5   93.3    0.0
 2003 180    83   7.20  15.60   8.80  1.415  1.415  0.137  1.277  0.000  102.3    7.6   94.6    0.0
 2003 181    84   8.20  18.40   6.00  1.631  1.631  0.174  1.457  0.000  103.9    7.8   96.1    0.0
 2003 182    85   3.50  19.20   8.00  0.716  0.716  0.086  0.630  0.000  104.6    7.9   96.7    0.0
 2003 183    86  10.90  12.60   1.80  1.900  1.900  0.242  1.658  0.000  106.5    8.1   98.4    0.0
 2003 184    87   3.50  15.60   2.80  0.647  0.647  0.072  0.575  0.000  107.1    8.2   98.9    0.0
 2003 185    88   3.60  15.20  10.00  0.711  0.711  0.074  0.637  0.000  107.9    8.3   99.6    0.0
 2003 186    89   8.80  15.80   9.60  1.745  1.745  0.189  1.556  0.000  109.6    8.5  101.1    0.0
 2003 187    90  10.00  16.80   8.80  1.993  1.993  0.240  1.753  0.000  111.6    8.7  102.9    0.0
 2003 188    91   9.60  18.40   7.20  1.925  1.925  0.262  1.662  0.000  113.5    9.0  104.6    0.0
 2003 189    92   3.80  15.00   6.80  0.721  0.721  0.111  0.610  0.000  114.2    9.1  105.2    0.0
 2003 190    93  12.30   9.60   0.00  1.992  1.810  0.318  1.492  0.000  116.1    9.4  106.7    0.0
 2003 191    94  11.90  13.20   0.20  2.064  2.064  0.219  1.844  0.000  118.1    9.6  108.5    0.0
 2003 192    95  11.80  12.00   0.60  2.022  2.022  0.155  1.867  0.000  120.1    9.8  110.4    0.0
 2003 193    96   8.60  12.80   0.10  1.488  1.405  0.086  1.319  0.000  121.5    9.9  111.7    0.0
 2003 194    97   6.00  13.60  -1.20  1.039  1.039  0.042  0.998  0.000  122.6    9.9  112.7    0.0
 2003 195    98  12.00  18.40   4.10  2.367  1.454  0.048  1.407  0.000  124.0    9.9  114.1    0.0
 2003 196    99   5.20  15.80   4.00  0.986  0.986  0.022  0.964  0.000  125.0   10.0  115.1    0.0
 2003 197   100  12.50  13.00   1.00  2.200  2.200  0.050  2.149  0.000  127.2   10.0  117.2    0.0
 2003 198   101  12.30  15.00   0.20  2.217  2.217  0.041  2.176  0.000  129.4   10.1  119.4    0.0
 2003 199   102   6.60  16.00   2.80  1.241  0.873  0.017  0.856  0.000  130.3   10.1  120.2    0.0
 2003 200   103  10.10  21.80   9.20  2.189  2.189  0.028  2.161  0.000  132.5   10.1  122.4    0.0
 2003 201   104   5.40  27.80  10.80  1.278  1.278  0.019  1.260  0.000  133.8   10.1  123.7    0.0
 2003 202   105  12.70  14.00   3.60  2.335  2.258  0.036  2.222  0.000  136.0   10.2  125.9    0.0
 2003 203   106   9.70  14.80   0.00  1.739  1.079  0.027  1.052  0.000  137.1   10.2  126.9    0.0
 2003 204   107   3.90  12.20   7.80  0.729  0.729  0.008  0.721  0.000  137.8   10.2  127.7    0.0
 2003 205   108  11.80  14.80   3.60  2.198  1.143  0.023  1.120  0.000  139.0   10.2  128.8    0.0
 2003 206   109  10.90  15.80  -0.20  1.983  1.042  0.021  1.021  0.000  140.0   10.2  129.8    0.0
 2003 207   110  10.50  18.20   4.80  2.082  0.895  0.014  0.881  0.000  140.9   10.2  130.7    0.0
 2003 208   111   4.00  15.60   7.20  0.782  0.782  0.005  0.776  0.000  141.7   10.3  131.5    0.0
 2003 209   112   4.10  17.80  13.40  0.875  0.725  0.006  0.718  0.000  142.4   10.3  132.2    0.0
 2003 210   113   7.30  15.80   7.80  1.439  0.810  0.010  0.800  0.000  143.2   10.3  133.0    0.0
 2003 211   114  13.60  18.80   3.20  2.678  1.498  0.019  1.479  0.000  144.7   10.3  134.4    0.0
 2003 212   115  13.90  18.00   1.60  2.664  0.651  0.019  0.633  0.000  145.4   10.3  135.1    0.0
 2003 213   116  10.00  18.00   1.20  1.909  0.606  0.011  0.595  0.000  146.0   10.3  135.7    0.0
 2003 214   117   6.10  18.60   6.00  1.231  0.569  0.006  0.563  0.000  146.6   10.3  136.2    0.0
 2003 215   118   4.20  14.60  11.40  0.842  0.842  0.004  0.838  0.000  147.4   10.3  137.1    0.0
 2003 216   119   4.20  17.80  12.80  0.892  0.892  0.004  0.888  0.000  148.3   10.3  138.0    0.0
 2003 217   120   4.20  17.60   9.20  0.861  0.861  0.004  0.857  0.000  149.2   10.3  138.8    0.0
 2003 218   121   7.10  12.80   6.60  1.323  1.323  0.006  1.317  0.000  150.5   10.3  140.1    0.0
 2003 219   122  14.00  16.20   6.20  2.734  2.734  0.012  2.722  0.000  153.2   10.4  142.9    0.0
 2003 220   123   6.70  16.40   4.80  1.294  1.294  0.006  1.288  0.000  154.5   10.4  144.1    0.0
 2003 221   124   6.70  12.20   4.90  1.216  1.216  0.006  1.210  0.000  155.7   10.4  145.4    0.0
 2003 222   125  14.30  15.00   2.20  2.635  2.635  0.012  2.624  0.000  158.4   10.4  148.0    0.0
 2003 223   126  12.10  15.80   4.20  2.303  2.252  0.009  2.243  0.000  160.6   10.4  150.2    0.0
 2003 224   127  14.90  18.80   2.60  2.918  2.918  0.011  2.908  0.000  163.5   10.4  153.1    0.0
 2003 225   128   6.90  16.60   2.80  1.311  1.311  0.004  1.307  0.000  164.8   10.4  154.4    0.0
 2003 226   129   6.50  15.00   7.60  1.265  1.265  0.004  1.261  0.000  166.1   10.4  155.7    0.0
 2003 227   130  12.30  16.80   6.90  2.440  1.119  0.007  1.112  0.000  167.2   10.4  156.8    0.0
 2003 228   131  15.60  15.80   2.40  2.917  0.946  0.008  0.938  0.000  168.2   10.4  157.8    0.0
 2003 229   132  15.30  18.40   1.00  2.933  0.833  0.007  0.826  0.000  169.0   10.4  158.6    0.0
 2003 230   133  12.10  22.20   3.20  2.501  0.752  0.005  0.747  0.000  169.8   10.4  159.3    0.0
 2003 231   134  15.60  25.60   6.60  3.476  0.693  0.006  0.687  0.000  170.5   10.4  160.0    0.0
 2003 232   135  13.40  26.30   7.00  3.023  0.644  0.005  0.639  0.000  171.1   10.4  160.6    0.0
 2003 233   136  12.50  30.20  11.80  3.072  0.606  0.005  0.600  0.000  171.7   10.5  161.3    0.0
 2003 234   137   4.90  10.80   5.70  0.877  0.877  0.001  0.876  0.000  172.6   10.5  162.1    0.0
 2003 235   138   5.00  10.40   6.20  0.894  0.894  0.001  0.893  0.000  173.5   10.5  163.0    0.0
 2003 236   139  11.50  14.40   0.80  2.070  2.070  0.003  2.067  0.000  175.5   10.5  165.1    0.0
 2003 237   140  14.70  12.20  -0.40  2.521  2.521  0.002  2.518  0.000  178.1   10.5  167.6    0.0
 2003 238   141  10.00  12.40  -2.00  1.690  1.580  0.001  1.579  0.000  179.6   10.5  169.2    0.0
 2003 239   142   5.90  11.80   5.00  1.065  1.065  0.000  1.065  0.000  180.7   10.5  170.2    0.0
 2003 240   143  16.60  15.00   4.60  3.136  3.136  0.000  3.136  0.000  183.8   10.5  173.4    0.0
 2003 241   144  16.00  16.20   2.20  3.005  1.490  0.000  1.490  0.000  185.3   10.5  174.9    0.0
 2003 242   145  12.20  15.80   1.60  2.263  1.130  0.000  1.130  0.000  186.5   10.5  176.0    0.0

*DSSAT Cropping System Model Ver. 4.0.2.000               Aug 12, 2016; 12:46:17

*RUN   4        : UYMZ                    
 MODEL          : MZCER040 - Maize           
 EXPERIMENT     : UYMZ0194 MZ    late to create DSS                             
 TREATMENT  1   : UYMZ                    

@YEAR DOY   DAS   SRAA   TMXA   TMNA   EOAA   ETAA   EPAA   ESAA   EFAD   ETAC   EPAC   ESAC   EFAC
 2004 097     0  12.10  31.20  19.40  3.184  2.863  0.000  2.863  0.000    2.9    0.0    2.9    0.0
 2004 098     1  16.30  30.00  15.60  4.115  3.052  0.000  3.052  0.000    5.9    0.0    5.9    0.0
 2004 099     2  17.20  29.40  17.60  4.379  1.137  0.000  1.137  0.000    7.1    0.0    7.1    0.0
 2004 100     3   5.60  21.40  17.30  1.295  1.295  0.000  1.295  0.000    8.3    0.0    8.3    0.0
 2004 101     4   9.40  23.80  13.20  2.165  2.165  0.000  2.165  0.000   10.5    0.0   10.5    0.0
 2004 102     5  13.50  27.00  13.60  3.242  3.121  0.000  3.121  0.000   13.6    0.0   13.6    0.0
 2004 103     6  14.90  30.80  16.80  3.830  3.324  0.000  3.324  0.000   17.0    0.0   17.0    0.0
 2004 104     7  17.90  35.00  18.60  4.876  1.448  0.000  1.448  0.000   18.4    0.0   18.4    0.0
 2004 105     8  15.60  33.60  20.60  4.246  1.112  0.000  1.112  0.000   19.5    0.0   19.5    0.0
 2004 106     9   8.10  24.00  18.20  1.946  1.946  0.007  1.939  0.000   21.5    0.0   21.5    0.0
 2004 107    10   5.30  23.80  18.80  1.276  1.276  0.008  1.268  0.000   22.7    0.0   22.7    0.0
 2004 108    11  17.60  24.10  11.40  4.004  4.004  0.035  3.970  0.000   26.7    0.0   26.7    0.0
 2004 109    12  17.20  24.60   7.60  3.813  3.116  0.042  3.075  0.000   29.9    0.1   29.8    0.0
 2004 110    13  17.20  20.60   7.70  3.620  2.655  0.047  2.608  0.000   32.5    0.1   32.4    0.0
 2004 111    14  17.30  21.00   6.80  3.630  1.459  0.053  1.406  0.000   34.0    0.2   33.8    0.0
 2004 112    15  15.20  24.60   5.00  3.291  1.157  0.065  1.093  0.000   35.1    0.3   34.9    0.0
 2004 113    16   5.00  20.80  18.40  1.155  1.155  0.030  1.125  0.000   36.3    0.3   36.0    0.0
 2004 114    17  14.70  22.80  14.80  3.374  3.374  0.122  3.252  0.000   39.7    0.4   39.3    0.0
 2004 115    18   9.50  18.20  10.00  1.968  1.968  0.093  1.875  0.000   41.6    0.5   41.1    0.0
 2004 116    19  11.80  18.40   5.10  2.341  1.803  0.124  1.679  0.000   43.4    0.6   42.8    0.0
 2004 117    20  16.30  20.00   4.00  3.272  2.972  0.187  2.785  0.000   46.4    0.8   45.6    0.0
 2004 118    21  16.00  22.80   3.80  3.331  1.624  0.200  1.423  0.000   48.0    1.0   47.0    0.0
 2004 119    22  14.90  23.80   4.80  3.171  1.305  0.204  1.101  0.000   49.3    1.2   48.1    0.0
 2004 120    23   6.20  22.80  15.60  1.427  1.034  0.103  0.931  0.000   50.4    1.3   49.0    0.0
 2004 121    24  13.20  19.00   7.90  2.701  2.701  0.235  2.466  0.000   53.1    1.6   51.5    0.0
 2004 122    25  14.70  19.60   4.00  2.922  2.922  0.278  2.644  0.000   56.0    1.8   54.2    0.0
 2004 123    26  10.50  20.40   6.80  2.165  1.740  0.211  1.528  0.000   57.7    2.0   55.7    0.0
 2004 124    27   6.00  18.20   8.00  1.213  1.213  0.129  1.084  0.000   58.9    2.2   56.8    0.0
 2004 125    28   4.70  18.40  11.40  0.982  0.982  0.112  0.870  0.000   59.9    2.3   57.6    0.0
 2004 126    29   7.30  18.60  12.00  1.535  1.535  0.191  1.344  0.000   61.5    2.5   59.0    0.0
 2004 127    30   4.40  16.60  13.20  0.909  0.909  0.124  0.785  0.000   62.4    2.6   59.8    0.0
 2004 128    31   4.50  19.80  14.90  0.983  0.983  0.146  0.838  0.000   63.3    2.7   60.6    0.0
 2004 129    32   9.30  22.30  13.00  2.060  2.060  0.345  1.715  0.000   65.4    3.1   62.3    0.0
 2004 130    33   7.50  22.20  10.40  1.619  1.619  0.305  1.314  0.000   67.0    3.4   63.6    0.0
 2004 131    34   9.00  24.00  11.10  1.995  1.995  0.413  1.582  0.000   69.0    3.8   65.2    0.0
 2004 132    35   7.00  22.40  15.00  1.567  1.567  0.360  1.208  0.000   70.6    4.2   66.4    0.0
 2004 133    36  10.00  21.40  15.40  2.213  1.623  0.557  1.066  0.000   72.2    4.7   67.5    0.0
 2004 134    37   4.20  16.20  12.90  0.848  0.848  0.233  0.614  0.000   73.1    5.0   68.1    0.0
 2004 135    38   4.20  16.00  12.00  0.837  0.837  0.242  0.595  0.000   73.9    5.2   68.7    0.0
 2004 136    39   7.40  16.60   6.20  1.406  1.406  0.426  0.980  0.000   75.3    5.6   69.7    0.0
 2004 137    40  13.00  15.80   4.20  2.392  2.392  0.743  1.648  0.000   77.7    6.4   71.3    0.0
 2004 138    41  10.00  15.80   6.20  1.877  1.877  0.579  1.298  0.000   79.6    6.9   72.6    0.0
 2004 139    42  12.70  13.40   1.90  2.198  2.198  0.694  1.504  0.000   81.8    7.6   74.1    0.0
 2004 140    43  12.20  14.80  -0.50  2.115  1.728  0.577  1.150  0.000   83.5    8.2   75.3    0.0
 2004 141    44  10.10  15.40   0.10  1.799  1.799  0.306  1.493  0.000   85.3    8.5   76.8    0.0
 2004 142    45   4.30  17.70   4.80  0.836  0.551  0.098  0.453  0.000   85.8    8.6   77.2    0.0
 2004 143    46   5.00  18.80  12.00  1.054  0.754  0.131  0.623  0.000   86.6    8.8   77.8    0.0
 2004 144    47   3.90  16.20  13.60  0.804  0.804  0.110  0.694  0.000   87.4    8.9   78.5    0.0
 2004 145    48   3.80  17.80  14.00  0.803  0.803  0.117  0.686  0.000   88.2    9.0   79.2    0.0
 2004 146    49   3.80  16.00  12.90  0.775  0.775  0.121  0.654  0.000   89.0    9.1   79.9    0.0
 2004 147    50  10.00  15.80   8.30  1.946  1.946  0.323  1.624  0.000   90.9    9.4   81.5    0.0
 2004 148    51   7.70  14.80   3.90  1.414  1.414  0.235  1.179  0.000   92.3    9.7   82.7    0.0
 2004 149    52  12.50  15.80   2.20  2.291  2.291  0.374  1.917  0.000   94.6   10.0   84.6    0.0
 2004 150    53   6.90  15.00   1.00  1.236  1.236  0.183  1.054  0.000   95.9   10.2   85.7    0.0
 2004 151    54   8.00  13.80   1.40  1.417  1.007  0.165  0.842  0.000   96.9   10.4   86.5    0.0
 2004 152    55   6.40  16.60   0.90  1.181  1.181  0.113  1.068  0.000   98.1   10.5   87.6    0.0
 2004 153    56  10.80  19.40   9.10  2.249  2.249  0.172  2.076  0.000  100.3   10.7   89.6    0.0
 2004 154    57   5.20  18.60  10.40  1.082  1.082  0.100  0.982  0.000  101.4   10.8   90.6    0.0
 2004 155    58   6.60  18.60   8.90  1.353  1.289  0.137  1.152  0.000  102.7   10.9   91.8    0.0
 2004 156    59   6.30  18.90   8.20  1.287  1.106  0.145  0.961  0.000  103.8   11.0   92.7    0.0
 2004 157    60   7.30  19.60   7.20  1.490  1.028  0.186  0.842  0.000  104.8   11.2   93.6    0.0
 2004 158    61   8.80  17.80   3.90  1.695  0.995  0.237  0.758  0.000  105.8   11.5   94.3    0.0
 2004 159    62  12.20  16.20   0.00  2.203  1.025  0.329  0.696  0.000  106.8   11.8   95.0    0.0
 2004 160    63   9.10  20.60  -1.60  1.737  0.831  0.185  0.647  0.000  107.7   12.0   95.7    0.0
 2004 161    64   8.00  19.00   6.20  1.617  0.692  0.085  0.606  0.000  108.4   12.1   96.3    0.0
 2004 162    65   3.60  16.20   7.00  0.704  0.704  0.042  0.662  0.000  109.1   12.1   96.9    0.0
 2004 163    66   9.20  14.80   3.20  1.697  1.274  0.105  1.169  0.000  110.3   12.2   98.1    0.0
 2004 164    67  11.70  12.60   2.80  2.076  2.076  0.129  1.947  0.000  112.4   12.3  100.1    0.0
 2004 165    68  12.20  15.60   1.00  2.228  1.901  0.134  1.767  0.000  114.3   12.5  101.8    0.0
 2004 166    69   6.40  17.40  -2.20  1.164  1.164  0.059  1.105  0.000  115.5   12.5  102.9    0.0
 2004 167    70   9.40  18.60  -1.20  1.765  1.058  0.032  1.026  0.000  116.5   12.6  104.0    0.0
 2004 168    71   5.20  21.60   4.00  1.073  0.895  0.010  0.885  0.000  117.4   12.6  104.8    0.0
 2004 169    72   7.50  17.60   3.90  1.461  1.461  0.015  1.446  0.000  118.9   12.6  106.3    0.0
 2004 170    73  10.70  16.10   0.00  1.959  1.496  0.020  1.476  0.000  120.4   12.6  107.8    0.0
 2004 171    74   6.70  25.40   8.80  1.516  1.135  0.011  1.124  0.000  121.5   12.6  108.9    0.0
 2004 172    75   3.80  26.20  10.00  0.877  0.877  0.007  0.870  0.000  122.4   12.6  109.8    0.0
 2004 173    76   3.50  19.30   8.20  0.727  0.727  0.006  0.721  0.000  123.1   12.6  110.5    0.0
 2004 174    77   6.80  15.80   4.80  1.302  1.302  0.011  1.291  0.000  124.4   12.6  111.8    0.0
 2004 175    78   3.40  15.80  10.20  0.686  0.686  0.006  0.680  0.000  125.1   12.7  112.5    0.0
 2004 176    79   4.10  14.60   8.90  0.803  0.803  0.007  0.795  0.000  125.9   12.7  113.3    0.0
 2004 177    80   3.50  15.60   7.80  0.688  0.688  0.006  0.682  0.000  126.6   12.7  113.9    0.0
 2004 178    81   3.50  17.00  14.40  0.745  0.745  0.007  0.739  0.000  127.3   12.7  114.7    0.0
 2004 179    82   3.50  15.60  11.30  0.711  0.711  0.007  0.704  0.000  128.1   12.7  115.4    0.0
 2004 180    83   6.20  18.80  10.30  1.304  1.304  0.013  1.291  0.000  129.4   12.7  116.7    0.0
 2004 181    84   5.10  22.60  11.20  1.136  1.136  0.012  1.124  0.000  130.5   12.7  117.8    0.0
 2004 182    85   3.50  17.40  14.70  0.751  0.751  0.008  0.743  0.000  131.3   12.7  118.5    0.0
 2004 183    86   4.90  19.70  13.80  1.075  1.075  0.012  1.064  0.000  132.3   12.7  119.6    0.0
 2004 184    87   4.70  24.80  13.00  1.093  1.093  0.012  1.080  0.000  133.4   12.7  120.7    0.0
 2004 185    88   7.40  15.40   4.10  1.398  1.398  0.016  1.382  0.000  134.8   12.8  122.1    0.0
 2004 186    89   9.90  16.00   4.80  1.900  1.900  0.021  1.879  0.000  136.7   12.8  123.9    0.0
 2004 187    90  11.00  18.00   3.80  2.153  2.153  0.025  2.128  0.000  138.9   12.8  126.1    0.0
 2004 188    91  11.40  20.20   2.60  2.276  1.621  0.026  1.595  0.000  140.5   12.8  127.7    0.0
 2004 189    92   4.90  15.40   8.70  0.968  0.968  0.010  0.958  0.000  141.5   12.8  128.6    0.0
 2004 190    93  11.80  12.60  -0.30  2.037  2.037  0.022  2.015  0.000  143.5   12.9  130.6    0.0
 2004 191    94   6.70  14.00  -1.20  1.172  1.172  0.008  1.165  0.000  144.7   12.9  131.8    0.0
 2004 192    95  12.30  11.20   2.80  2.148  1.088  0.007  1.082  0.000  145.8   12.9  132.9    0.0
 2004 193    96  11.70  12.20   0.00  2.015  0.925  0.005  0.919  0.000  146.7   12.9  133.8    0.0
 2004 194    97  10.40  14.40  -1.80  1.821  1.817  0.003  1.814  0.000  148.5   12.9  135.6    0.0
 2004 195    98   4.00  16.00   5.00  0.770  0.738  0.000  0.738  0.000  149.2   12.9  136.4    0.0
 2004 196    99   3.90  16.20   8.20  0.777  0.777  0.000  0.776  0.000  150.0   12.9  137.1    0.0
 2004 197   100  11.60  13.60   5.00  2.154  0.654  0.001  0.653  0.000  150.7   12.9  137.8    0.0
 2004 198   101  10.10  13.20   1.20  1.791  0.612  0.000  0.612  0.000  151.3   12.9  138.4    0.0
 2004 199   102   8.30  10.20  -2.10  1.349  0.578  0.000  0.578  0.000  151.9   12.9  139.0    0.0
 2004 200   103  10.50  14.20  -2.90  1.811  0.548  0.000  0.548  0.000  152.4   12.9  139.5    0.0
 2004 201   104   4.60  15.60   2.40  0.858  0.523  0.000  0.523  0.000  152.9   12.9  140.0    0.0
 2004 202   105  12.40  18.40   9.20  2.571  0.501  0.000  0.501  0.000  153.4   12.9  140.5    0.0
 2004 203   106  12.60  18.20   7.80  2.572  0.482  0.000  0.482  0.000  153.9   12.9  141.0    0.0
 2004 204   107   7.30  18.80  10.80  1.544  0.465  0.000  0.465  0.000  154.4   12.9  141.5    0.0
 2004 205   108  11.90  21.20   8.80  2.553  0.449  0.000  0.449  0.000  154.8   12.9  141.9    0.0
 2004 206   109  12.20  24.20   7.80  2.698  0.435  0.000  0.435  0.000  155.3   12.9  142.4    0.0
 2004 207   110  10.80  24.20   5.60  2.344  0.422  0.000  0.422  0.000  155.7   12.9  142.8    0.0
 2004 208   111  12.30  22.60   7.40  2.655  0.410  0.000  0.410  0.000  156.1   12.9  143.2    0.0
 2004 209   112  12.90  17.60   4.60  2.533  0.400  0.000  0.400  0.000  156.5   12.9  143.6    0.0
 2004 210   113   8.20  22.60  10.40  1.817  0.390  0.000  0.390  0.000  156.9   12.9  144.0    0.0
 2004 211   114   4.10  13.20   7.20  0.774  0.774  0.000  0.774  0.000  157.7   12.9  144.8    0.0
 2004 212   115   6.00  13.20   3.80  1.094  1.094  0.000  1.094  0.000  158.7   12.9  145.9    0.0
 2004 213   116   4.10  15.80  11.40  0.837  0.837  0.000  0.837  0.000  159.6   12.9  146.7    0.0
 2004 214   117   7.50  20.20  13.00  1.647  1.647  0.000  1.647  0.000  161.2   12.9  148.3    0.0
 2004 215   118  10.80  19.00  12.30  2.321  2.321  0.000  2.321  0.000  163.6   12.9  150.7    0.0
 2004 216   119   5.20  20.20  11.80  1.130  1.130  0.000  1.130  0.000  164.7   12.9  151.8    0.0
 2004 217   120   4.20  27.20  10.70  0.988  0.953  0.000  0.953  0.000  165.6   12.9  152.8    0.0
 2004 218   121   5.80  26.20  12.20  1.364  1.364  0.000  1.364  0.000  167.0   12.9  154.1    0.0
 2004 219   122   6.20  13.40   8.30  1.187  1.187  0.000  1.187  0.000  168.2   12.9  155.3    0.0
 2004 220   123   9.70  12.20   2.30  1.713  1.713  0.000  1.713  0.000  169.9   12.9  157.0    0.0
 2004 221   124  14.40  14.60   0.40  2.590  1.941  0.000  1.941  0.000  171.8   12.9  159.0    0.0
 2004 222   125  11.80  17.60  -0.20  2.209  1.010  0.000  1.010  0.000  172.9   12.9  160.0    0.0
 2004 223   126  12.90  19.00   3.20  2.550  0.874  0.000  0.874  0.000  173.7   12.9  160.8    0.0
 2004 224   127   8.50  17.60   4.00  1.659  0.782  0.000  0.782  0.000  174.5   12.9  161.6    0.0
 2004 225   128  13.60  20.80   9.80  2.928  0.714  0.000  0.714  0.000  175.2   12.9  162.3    0.0
 2004 226   129  12.30  24.00   8.80  2.737  0.661  0.000  0.661  0.000  175.9   12.9  163.0    0.0
 2004 227   130  14.50  25.40   8.80  3.284  0.618  0.000  0.618  0.000  176.5   12.9  163.6    0.0
 2004 228   131  10.20  25.60  10.60  2.351  0.583  0.000  0.583  0.000  177.1   12.9  164.2    0.0
 2004 229   132   4.70  22.40  14.60  1.076  1.076  0.000  1.076  0.000  178.2   12.9  165.3    0.0
 2004 230   133   6.60  20.80  14.40  1.479  1.479  0.000  1.479  0.000  179.6   12.9  166.8    0.0
 2004 231   134   4.80  15.40  13.00  0.989  0.989  0.000  0.989  0.000  180.6   12.9  167.7    0.0
 2004 232   135   4.80  15.40  12.60  0.985  0.985  0.000  0.985  0.000  181.6   12.9  168.7    0.0
 2004 233   136   5.00  15.60  11.10  1.015  1.015  0.000  1.015  0.000  182.6   12.9  169.7    0.0
 2004 234   137   7.80  11.20   7.30  1.429  1.429  0.000  1.429  0.000  184.1   12.9  171.2    0.0
 2004 235   138  10.60  14.40   6.80  2.029  2.029  0.000  2.029  0.000  186.1   12.9  173.2    0.0
 2004 236   139  12.90  13.80   3.40  2.364  2.364  0.000  2.364  0.000  188.5   12.9  175.6    0.0
 2004 237   140  15.20  20.00   3.00  3.042  1.896  0.000  1.896  0.000  190.3   12.9  177.5    0.0
 2004 238   141  14.40  19.60   4.30  2.901  2.181  0.000  2.181  0.000  192.5   12.9  179.6    0.0
 2004 239   142  17.00  16.40  -1.60  3.080  1.340  0.000  1.340  0.000  193.9   12.9  181.0    0.0
 2004 240   143   9.00  20.00   3.20  1.805  1.061  0.000  1.061  0.000  194.9   12.9  182.0    0.0
 2004 241   144  15.40  21.20   5.60  3.210  0.907  0.000  0.907  0.000  195.8   12.9  183.0    0.0
 2004 242   145  16.60  24.40   7.00  3.656  0.805  0.000  0.805  0.000  196.6   12.9  183.8    0.0
 2004 243   146  17.70  19.20   5.90  3.599  0.731  0.000  0.731  0.000  197.4   12.9  184.5    0.0
 2004 244   147  12.90  18.00   7.80  2.626  0.674  0.000  0.674  0.000  198.0   12.9  185.2    0.0
 2004 245   148  11.20  20.80   9.70  2.409  0.629  0.000  0.629  0.000  198.7   12.9  185.8    0.0
 2004 246   149   6.10  19.00  11.60  1.303  1.303  0.000  1.303  0.000  200.0   12.9  187.1    0.0
 2004 247   150  15.50  20.20  11.70  3.367  0.939  0.000  0.939  0.000  200.9   12.9  188.0    0.0
 2004 248   151  15.00  23.00  11.20  3.363  0.827  0.000  0.827  0.000  201.7   12.9  188.9    0.0
 2004 249   152  14.60  29.40  15.00  3.645  0.748  0.000  0.748  0.000  202.5   12.9  189.6    0.0
 2004 250   153   5.60  32.40  13.40  1.429  0.688  0.000  0.688  0.000  203.2   12.9  190.3    0.0
 2004 251   154  11.40  18.40  10.00  2.381  0.640  0.000  0.640  0.000  203.8   12.9  190.9    0.0
 2004 252   155   5.70  11.80   7.00  1.051  1.051  0.000  1.051  0.000  204.9   12.9  192.0    0.0
 2004 253   156   5.80  13.80   7.00  1.102  1.102  0.000  1.102  0.000  206.0   12.9  193.1    0.0
 2004 254   157  18.90  16.60   5.20  3.678  3.678  0.000  3.678  0.000  209.7   12.9  196.8    0.0
 2004 255   158  18.30  13.80   4.90  3.405  2.531  0.000  2.531  0.000  212.2   12.9  199.3    0.0
 2004 256   159  17.70  17.60   0.80  3.347  2.426  0.000  2.426  0.000  214.6   12.9  201.7    0.0
 2004 257   160  12.10  19.20   2.40  2.380  1.383  0.000  1.383  0.000  216.0   12.9  203.1    0.0
 2004 258   161  14.70  23.20  11.80  3.321  1.782  0.000  1.782  0.000  217.8   12.9  204.9    0.0
 2004 259   162  14.10  17.90   5.00  2.791  0.919  0.000  0.919  0.000  218.7   12.9  205.8    0.0
 2004 260   163  20.00  19.20   3.00  3.957  0.814  0.000  0.814  0.000  219.5   12.9  206.6    0.0
 2004 261   164  19.70  21.80   4.00  4.081  0.738  0.000  0.738  0.000  220.2   12.9  207.4    0.0
 2004 262   165  15.60  28.10   7.60  3.618  0.680  0.000  0.680  0.000  220.9   12.9  208.0    0.0

*DSSAT Cropping System Model Ver. 4.0.2.000               Aug 12, 2016; 12:46:17

*RUN   5        : UYMZ                    
 MODEL          : MZCER040 - Maize           
 EXPERIMENT     : UYMZ0194 MZ    late to create DSS                             
 TREATMENT  1   : UYMZ                    

@YEAR DOY   DAS   SRAA   TMXA   TMNA   EOAA   ETAA   EPAA   ESAA   EFAD   ETAC   EPAC   ESAC   EFAC
 2005 097     0   8.80  33.00  16.20  2.307  2.189  0.000  2.189  0.000    2.2    0.0    2.2    0.0
 2005 098     1  13.60  22.00   8.60  2.944  2.944  0.000  2.944  0.000    5.1    0.0    5.1    0.0
 2005 099     2  14.10  23.60   7.40  3.084  3.073  0.000  3.073  0.000    8.2    0.0    8.2    0.0
 2005 100     3   5.60  22.10  17.20  1.305  1.305  0.000  1.305  0.000    9.5    0.0    9.5    0.0
 2005 101     4   5.60  19.80  16.00  1.256  1.256  0.000  1.256  0.000   10.8    0.0   10.8    0.0
 2005 102     5  11.40  19.20  10.20  2.411  2.411  0.000  2.411  0.000   13.2    0.0   13.2    0.0
 2005 103     6  13.10  21.40   9.80  2.843  2.843  0.000  2.843  0.000   16.0    0.0   16.0    0.0
 2005 104     7   5.40  19.60  17.20  1.220  1.220  0.000  1.220  0.000   17.2    0.0   17.2    0.0
 2005 105     8   9.70  21.60  13.90  2.186  2.186  0.000  2.186  0.000   19.4    0.0   19.4    0.0
 2005 106     9  17.50  23.60  11.00  3.947  3.947  0.000  3.947  0.000   23.4    0.0   23.4    0.0
 2005 107    10  17.40  23.60  10.80  3.918  2.898  0.000  2.898  0.000   26.3    0.0   26.3    0.0
 2005 108    11  15.80  24.60   8.80  3.543  2.290  0.000  2.290  0.000   28.6    0.0   28.6    0.0
 2005 109    12  15.80  26.20  11.00  3.680  1.367  0.006  1.361  0.000   29.9    0.0   29.9    0.0
 2005 110    13   9.90  20.80  12.00  2.172  1.079  0.008  1.071  0.000   31.0    0.0   31.0    0.0
 2005 111    14  16.70  20.20   7.80  3.502  0.931  0.018  0.913  0.000   31.9    0.0   31.9    0.0
 2005 112    15  14.90  23.60   6.20  3.223  0.829  0.020  0.809  0.000   32.8    0.1   32.7    0.0
 2005 113    16  16.00  26.20   8.00  3.633  0.762  0.028  0.734  0.000   33.5    0.1   33.4    0.0
 2005 114    17   7.00  20.20   9.20  1.486  0.692  0.015  0.677  0.000   34.2    0.1   34.1    0.0
 2005 115    18  13.40  17.40   6.20  2.661  0.662  0.030  0.631  0.000   34.9    0.1   34.8    0.0
 2005 116    19  16.10  18.20   4.80  3.190  0.633  0.039  0.594  0.000   35.5    0.2   35.4    0.0
 2005 117    20  15.20  18.30   2.20  2.941  0.601  0.038  0.562  0.000   36.1    0.2   35.9    0.0
 2005 118    21  14.20  19.80   3.20  2.835  0.569  0.033  0.535  0.000   36.7    0.2   36.4    0.0
 2005 119    22  14.80  21.40   6.60  3.117  0.555  0.043  0.512  0.000   37.2    0.3   37.0    0.0
 2005 120    23  15.30  22.40   5.60  3.235  0.553  0.062  0.491  0.000   37.8    0.3   37.5    0.0
 2005 121    24  14.30  24.50   6.40  3.128  0.551  0.078  0.473  0.000   38.3    0.4   37.9    0.0
 2005 122    25  15.30  24.20   5.40  3.303  0.563  0.107  0.457  0.000   38.9    0.5   38.4    0.0
 2005 123    26  14.60  25.40   7.60  3.259  0.572  0.130  0.442  0.000   39.5    0.7   38.8    0.0
 2005 124    27  12.50  27.00  10.20  2.905  0.573  0.144  0.428  0.000   40.1    0.8   39.3    0.0
 2005 125    28   4.50  19.40  15.00  0.988  0.988  0.062  0.927  0.000   41.0    0.9   40.2    0.0
 2005 126    29   4.40  15.40  13.30  0.902  0.902  0.066  0.835  0.000   41.9    0.9   41.0    0.0
 2005 127    30  11.80  18.00   9.10  2.409  2.409  0.196  2.213  0.000   44.3    1.1   43.2    0.0
 2005 128    31   9.70  20.60   6.00  1.993  1.993  0.177  1.817  0.000   46.3    1.3   45.0    0.0
 2005 129    32   4.40  19.80  14.00  0.960  0.960  0.092  0.867  0.000   47.3    1.4   45.9    0.0
 2005 130    33   8.40  22.60  12.50  1.872  1.872  0.203  1.669  0.000   49.2    1.6   47.6    0.0
 2005 131    34  13.00  20.60  10.30  2.766  2.766  0.340  2.426  0.000   51.9    1.9   50.0    0.0
 2005 132    35   7.30  21.80   9.80  1.569  1.569  0.212  1.357  0.000   53.5    2.1   51.4    0.0
 2005 133    36   4.20  19.60  17.30  0.934  0.934  0.138  0.796  0.000   54.4    2.3   52.2    0.0
 2005 134    37   4.20  19.40  14.40  0.907  0.907  0.153  0.754  0.000   55.3    2.4   52.9    0.0
 2005 135    38   4.20  17.80  14.10  0.885  0.885  0.161  0.723  0.000   56.2    2.6   53.6    0.0
 2005 136    39   4.20  17.00  14.20  0.875  0.875  0.171  0.704  0.000   57.1    2.8   54.3    0.0
 2005 137    40   7.80  18.20  11.40  1.610  1.442  0.145  1.297  0.000   58.6    2.9   55.6    0.0
 2005 138    41   4.10  18.60  13.40  0.866  0.866  0.168  0.698  0.000   59.4    3.1   56.3    0.0
 2005 139    42  10.10  21.20  13.00  2.195  2.195  0.463  1.732  0.000   61.6    3.5   58.1    0.0
 2005 140    43   7.00  17.40  10.90  1.417  1.417  0.329  1.088  0.000   63.0    3.9   59.2    0.0
 2005 141    44  13.10  13.50   4.40  2.349  1.834  0.579  1.254  0.000   64.9    4.5   60.4    0.0
 2005 142    45  12.10  15.80   2.00  2.193  2.193  0.537  1.657  0.000   67.1    5.0   62.1    0.0
 2005 143    46   5.00  17.20   4.20  0.949  0.949  0.203  0.746  0.000   68.0    5.2   62.8    0.0
 2005 144    47  12.30  18.40   6.60  2.431  2.072  0.522  1.550  0.000   70.1    5.7   64.4    0.0
 2005 145    48   7.90  15.20   2.20  1.425  1.425  0.324  1.101  0.000   71.5    6.0   65.5    0.0
 2005 146    49   9.70  17.00   1.80  1.796  1.332  0.362  0.970  0.000   72.8    6.4   66.4    0.0
 2005 147    50  10.40  20.40   4.60  2.084  1.211  0.363  0.848  0.000   74.0    6.8   67.3    0.0
 2005 148    51  12.20  23.60   8.00  2.628  1.250  0.486  0.763  0.000   75.3    7.3   68.0    0.0
 2005 149    52   6.60  25.80  12.20  1.509  1.016  0.316  0.699  0.000   76.3    7.6   68.7    0.0
 2005 150    53   6.50  16.00   8.10  1.257  1.257  0.294  0.963  0.000   77.6    7.9   69.7    0.0
 2005 151    54   3.70  17.60   6.20  0.718  0.718  0.177  0.541  0.000   78.3    8.0   70.2    0.0
 2005 152    55   9.70  24.80  15.00  2.230  2.230  0.573  1.656  0.000   80.5    8.6   71.9    0.0
 2005 153    56  10.70  27.00  17.60  2.565  2.565  0.755  1.810  0.000   83.1    9.4   73.7    0.0
 2005 154    57   3.70  24.20  17.20  0.852  0.852  0.287  0.565  0.000   83.9    9.7   74.3    0.0
 2005 155    58   3.60  19.00  16.60  0.772  0.772  0.271  0.501  0.000   84.7    9.9   74.8    0.0
 2005 156    59   3.80  22.00  16.90  0.847  0.847  0.310  0.538  0.000   85.6   10.2   75.3    0.0
 2005 157    60   3.60  20.00  15.80  0.774  0.774  0.294  0.481  0.000   86.3   10.5   75.8    0.0
 2005 158    61  11.50  27.00  17.20  2.723  2.245  0.555  1.690  0.000   88.6   11.1   77.5    0.0
 2005 159    62   8.10  24.60  14.70  1.825  1.825  0.720  1.105  0.000   90.4   11.8   78.6    0.0
 2005 160    63   3.60  18.00  12.40  0.729  0.729  0.308  0.421  0.000   91.1   12.1   79.0    0.0
 2005 161    64   8.70  24.60  14.60  1.950  1.950  0.846  1.105  0.000   93.1   13.0   80.1    0.0
 2005 162    65   3.60  18.00  13.80  0.735  0.735  0.339  0.396  0.000   93.8   13.3   80.5    0.0
 2005 163    66   6.40  18.00  12.80  1.294  1.294  0.610  0.684  0.000   95.1   13.9   81.2    0.0
 2005 164    67   3.50  17.60  13.20  0.705  0.705  0.342  0.364  0.000   95.8   14.2   81.6    0.0
 2005 165    68   6.20  15.00  10.00  1.169  1.169  0.576  0.593  0.000   97.0   14.8   82.2    0.0
 2005 166    69   3.50  16.60  14.00  0.700  0.700  0.351  0.349  0.000   97.7   15.2   82.5    0.0
 2005 167    70   3.60  17.80  15.20  0.738  0.738  0.375  0.363  0.000   98.4   15.5   82.9    0.0
 2005 168    71   3.50  19.20  16.20  0.737  0.737  0.378  0.359  0.000   99.2   15.9   83.2    0.0
 2005 169    72   3.60  16.20  12.80  0.707  0.707  0.365  0.342  0.000   99.9   16.3   83.6    0.0
 2005 170    73   5.30  13.20   8.20  0.954  0.954  0.495  0.458  0.000  100.8   16.8   84.0    0.0
 2005 171    74   9.00  12.20   5.20  1.547  1.547  0.807  0.740  0.000  102.4   17.6   84.8    0.0
 2005 172    75  11.10  11.60   1.00  1.806  1.806  0.946  0.860  0.000  104.2   18.5   85.6    0.0
 2005 173    76   5.80  14.60   0.20  0.992  0.992  0.426  0.566  0.000  105.2   19.0   86.2    0.0
 2005 174    77   7.40  15.00   6.10  1.370  1.370  0.430  0.940  0.000  106.5   19.4   87.1    0.0
 2005 175    78   6.80  15.60   2.80  1.229  1.229  0.392  0.837  0.000  107.8   19.8   88.0    0.0
 2005 176    79   7.60  19.00   4.20  1.467  1.467  0.436  1.032  0.000  109.2   20.2   89.0    0.0
 2005 177    80   3.70  15.60   8.30  0.708  0.708  0.210  0.497  0.000  109.9   20.4   89.5    0.0
 2005 178    81   3.80  20.80   7.80  0.777  0.610  0.233  0.378  0.000  110.5   20.7   89.9    0.0
 2005 179    82   3.50  17.20  13.00  0.715  0.715  0.216  0.499  0.000  111.3   20.9   90.4    0.0
 2005 180    83   3.70  19.20  11.80  0.767  0.767  0.234  0.533  0.000  112.0   21.1   90.9    0.0
 2005 181    84   4.30  17.90  10.10  0.863  0.863  0.266  0.597  0.000  112.9   21.4   91.5    0.0
 2005 182    85   4.90  24.60  10.80  1.079  1.079  0.336  0.743  0.000  114.0   21.7   92.2    0.0
 2005 183    86   7.00  27.80  17.60  1.690  1.690  0.533  1.157  0.000  115.7   22.3   93.4    0.0
 2005 184    87   6.90  19.00  11.90  1.426  1.426  0.458  0.968  0.000  117.1   22.7   94.4    0.0
 2005 185    88   4.50  12.60   5.00  0.794  0.794  0.259  0.534  0.000  117.9   23.0   94.9    0.0
 2005 186    89   8.90  11.60   1.00  1.480  1.208  0.482  0.726  0.000  119.1   23.5   95.6    0.0
 2005 187    90  10.70  13.60   1.60  1.864  1.348  0.481  0.867  0.000  120.4   23.9   96.5    0.0
 2005 188    91   7.70  15.20   0.40  1.364  1.364  0.296  1.068  0.000  121.8   24.2   97.6    0.0
 2005 189    92   7.80  17.60   5.00  1.511  1.511  0.237  1.274  0.000  123.3   24.5   98.8    0.0
 2005 190    93   9.00  18.60   7.80  1.815  1.815  0.288  1.527  0.000  125.1   24.8  100.4    0.0
 2005 191    94  10.70  19.60   4.40  2.119  1.517  0.346  1.171  0.000  126.6   25.1  101.5    0.0
 2005 192    95   7.70  20.20   8.40  1.595  1.235  0.263  0.972  0.000  127.9   25.4  102.5    0.0
 2005 193    96   9.10  18.60   6.60  1.813  1.155  0.306  0.849  0.000  129.0   25.7  103.4    0.0
 2005 194    97   4.10  19.20  10.80  0.855  0.855  0.148  0.707  0.000  129.9   25.8  104.1    0.0
 2005 195    98   8.30  24.60  13.80  1.902  1.036  0.332  0.704  0.000  130.9   26.1  104.8    0.0
 2005 196    99   5.60  20.60  10.80  1.189  0.866  0.212  0.653  0.000  131.8   26.4  105.4    0.0
 2005 197   100   3.70  13.80  11.00  0.717  0.717  0.130  0.587  0.000  132.5   26.5  106.0    0.0
 2005 198   101  12.10  13.80   6.20  2.236  2.236  0.407  1.829  0.000  134.7   26.9  107.8    0.0
 2005 199   102  12.10  11.40   3.90  2.102  2.102  0.390  1.712  0.000  136.8   27.3  109.6    0.0
 2005 200   103  12.20  12.20   1.00  2.082  2.082  0.375  1.707  0.000  138.9   27.7  111.3    0.0
 2005 201   104  10.30  14.00  -0.80  1.783  1.471  0.250  1.221  0.000  140.4   27.9  112.5    0.0
 2005 202   105   5.80  15.60   4.00  1.089  1.089  0.086  1.003  0.000  141.5   28.0  113.5    0.0
 2005 203   106   7.60  15.00   8.00  1.472  1.472  0.113  1.359  0.000  143.0   28.1  114.8    0.0
 2005 204   107  12.00  13.50   3.20  2.165  2.165  0.169  1.996  0.000  145.1   28.3  116.8    0.0
 2005 205   108   7.70  12.60   2.20  1.356  1.338  0.100  1.238  0.000  146.5   28.4  118.1    0.0
 2005 206   109   4.10  13.60   6.90  0.771  0.771  0.049  0.722  0.000  147.2   28.4  118.8    0.0
 2005 207   110   4.00  12.20   7.00  0.737  0.737  0.047  0.690  0.000  148.0   28.5  119.5    0.0
 2005 208   111  10.90  15.60   1.20  1.993  0.956  0.127  0.829  0.000  148.9   28.6  120.3    0.0
 2005 209   112  12.80  18.80   2.00  2.480  0.874  0.125  0.749  0.000  149.8   28.7  121.1    0.0
 2005 210   113   7.30  20.80   3.80  1.481  0.754  0.066  0.688  0.000  150.6   28.8  121.8    0.0
 2005 211   114   8.60  29.40  14.60  2.130  0.732  0.092  0.640  0.000  151.3   28.9  122.4    0.0
 2005 212   115   7.80  27.00  17.20  1.917  0.686  0.085  0.601  0.000  152.0   29.0  123.0    0.0
 2005 213   116   4.20  21.30  16.40  0.958  0.611  0.042  0.569  0.000  152.6   29.0  123.6    0.0
 2005 214   117   8.10  27.20  16.90  1.991  0.628  0.088  0.541  0.000  153.2   29.1  124.1    0.0
 2005 215   118   9.80  24.80  13.60  2.281  0.617  0.100  0.517  0.000  153.8   29.2  124.6    0.0
 2005 216   119  12.80  29.00  17.80  3.233  0.637  0.142  0.496  0.000  154.5   29.3  125.1    0.0
 2005 217   120  12.80  28.60  11.90  3.076  0.611  0.134  0.477  0.000  155.1   29.5  125.6    0.0
 2005 218   121  11.40  14.80   3.90  2.122  0.552  0.092  0.460  0.000  155.6   29.6  126.1    0.0
 2005 219   122   5.10  11.20   0.80  0.868  0.481  0.036  0.445  0.000  156.1   29.6  126.5    0.0
 2005 220   123  13.00  16.00   1.20  2.401  0.505  0.073  0.431  0.000  156.6   29.7  126.9    0.0
 2005 221   124  13.80  17.00   3.80  2.658  0.481  0.063  0.419  0.000  157.1   29.7  127.4    0.0
 2005 222   125  10.40  18.20   0.80  1.980  0.452  0.045  0.407  0.000  157.5   29.8  127.8    0.0
 2005 223   126  11.50  18.40   3.60  2.258  0.434  0.037  0.397  0.000  158.0   29.8  128.2    0.0
 2005 224   127  10.90  18.00   4.00  2.136  0.420  0.033  0.387  0.000  158.4   29.9  128.5    0.0
 2005 225   128  11.20  21.00   3.80  2.286  0.412  0.034  0.378  0.000  158.8   29.9  128.9    0.0
 2005 226   129   5.40  17.60   9.10  1.105  0.385  0.016  0.369  0.000  159.2   29.9  129.3    0.0
 2005 227   130   7.30  15.00   9.60  1.446  0.382  0.020  0.361  0.000  159.6   29.9  129.7    0.0
 2005 228   131   6.50  18.80  10.00  1.363  1.363  0.019  1.344  0.000  160.9   29.9  131.0    0.0
 2005 229   132   4.70  15.80  10.10  0.946  0.946  0.013  0.933  0.000  161.9   30.0  131.9    0.0
 2005 230   133   9.00  16.00  10.20  1.819  1.819  0.026  1.793  0.000  163.7   30.0  133.7    0.0
 2005 231   134  10.80  19.80   7.00  2.234  1.210  0.031  1.179  0.000  164.9   30.0  134.9    0.0
 2005 232   135  13.20  20.60   8.80  2.805  1.015  0.039  0.976  0.000  165.9   30.1  135.9    0.0
 2005 233   136   4.90  19.40  14.80  1.080  0.867  0.015  0.852  0.000  166.8   30.1  136.7    0.0
 2005 234   137  11.80  23.20  13.60  2.702  1.203  0.037  1.166  0.000  168.0   30.1  137.9    0.0
 2005 235   138   8.70  24.10  10.00  1.955  1.955  0.027  1.928  0.000  170.0   30.1  139.8    0.0
 2005 236   139   5.80  12.80   7.90  1.094  1.094  0.015  1.079  0.000  171.0   30.1  140.9    0.0
 2005 237   140  14.80  15.60   6.80  2.879  2.879  0.040  2.839  0.000  173.9   30.2  143.7    0.0
 2005 238   141  13.40  18.40   3.80  2.637  2.429  0.036  2.393  0.000  176.4   30.2  146.1    0.0
 2005 239   142  11.60  21.20   5.80  2.419  2.419  0.032  2.388  0.000  178.8   30.3  148.5    0.0
 2005 240   143   7.30  17.40   8.20  1.477  1.477  0.019  1.457  0.000  180.3   30.3  150.0    0.0
 2005 241   144   5.20  13.20   9.80  1.006  1.006  0.013  0.993  0.000  181.3   30.3  151.0    0.0
 2005 242   145  16.10  15.60   3.30  3.025  3.025  0.040  2.986  0.000  184.3   30.3  154.0    0.0
 2005 243   146  10.90  13.40   2.40  1.962  1.962  0.024  1.938  0.000  186.2   30.4  155.9    0.0
 2005 244   147   5.30  14.90   7.40  1.027  1.027  0.011  1.016  0.000  187.3   30.4  156.9    0.0
 2005 245   148  11.10  15.60   9.40  2.215  2.215  0.023  2.191  0.000  189.5   30.4  159.1    0.0
 2005 246   149  14.80  17.00   4.80  2.883  2.883  0.030  2.852  0.000  192.4   30.4  162.0    0.0
 2005 247   150   8.60  15.60   6.60  1.670  1.670  0.017  1.653  0.000  194.0   30.4  163.6    0.0
 2005 248   151  11.80  16.80   7.20  2.345  2.345  0.024  2.321  0.000  196.4   30.5  165.9    0.0
 2005 249   152  18.30  17.40   4.60  3.578  3.578  0.037  3.541  0.000  200.0   30.5  169.5    0.0
 2005 250   153  18.60  20.20   3.80  3.757  2.365  0.038  2.326  0.000  202.3   30.5  171.8    0.0
 2005 251   154  18.50  21.00   6.40  3.870  2.025  0.038  1.987  0.000  204.4   30.6  173.8    0.0
 2005 252   155   6.10  19.60  14.20  1.342  1.342  0.013  1.329  0.000  205.7   30.6  175.1    0.0
 2005 253   156   5.80  20.20  10.90  1.250  1.250  0.012  1.237  0.000  206.9   30.6  176.3    0.0
 2005 254   157  15.40  13.60   6.30  2.895  2.895  0.028  2.867  0.000  209.8   30.6  179.2    0.0
 2005 255   158  20.30  14.00   2.80  3.704  3.490  0.036  3.454  0.000  213.3   30.7  182.7    0.0
 2005 256   159  17.90  13.60   2.40  3.233  3.222  0.028  3.194  0.000  216.6   30.7  185.9    0.0
[...]
 2010 116    19   8.00  21.50   9.40  1.726  1.661  0.058  1.602  0.000   27.3    0.4   27.0    0.0
 2010 117    20  12.60  20.20   6.40  2.598  1.803  0.107  1.695  0.000   29.1    0.5   28.7    0.0
 2010 118    21  14.50  23.00   5.00  3.064  2.649  0.144  2.505  0.000   31.8    0.6   31.2    0.0
 2010 119    22  15.10  22.80   4.80  3.175  1.565  0.171  1.394  0.000   33.4    0.8   32.6    0.0
 2010 120    23  15.20  23.00   9.50  3.336  1.289  0.202  1.087  0.000   34.6    1.0   33.7    0.0
 2010 121    24  15.30  25.20  11.00  3.493  1.172  0.249  0.922  0.000   35.8    1.2   34.6    0.0
 2010 122    25  12.90  25.80   8.20  2.894  1.062  0.246  0.816  0.000   36.9    1.5   35.4    0.0
 2010 123    26   4.60  21.20   7.50  0.965  0.834  0.095  0.739  0.000   37.7    1.6   36.1    0.0
 2010 124    27  11.90  23.80  11.00  2.659  0.965  0.284  0.681  0.000   38.7    1.9   36.8    0.0
 2010 125    28   8.10  23.60  10.20  1.790  0.852  0.218  0.634  0.000   39.5    2.1   37.5    0.0
 2010 126    29   7.80  21.80   9.60  1.673  0.824  0.227  0.596  0.000   40.4    2.3   38.1    0.0
 2010 127    30  10.00  17.20   5.50  1.937  0.852  0.288  0.565  0.000   41.2    2.6   38.6    0.0
 2010 128    31  13.60  18.40   3.30  2.622  0.942  0.405  0.537  0.000   42.1    3.0   39.2    0.0
 2010 129    32  13.50  19.60   1.80  2.612  0.904  0.391  0.514  0.000   43.1    3.4   39.7    0.0
 2010 130    33   7.20  18.80   3.20  1.399  0.676  0.183  0.493  0.000   43.7    3.6   40.2    0.0
 2010 131    34  10.70  19.20   7.60  2.179  0.753  0.278  0.474  0.000   44.5    3.8   40.6    0.0
 2010 132    35  11.00  22.20   5.20  2.280  0.778  0.320  0.458  0.000   45.3    4.2   41.1    0.0
 2010 133    36   6.90  20.30   9.80  1.451  0.666  0.223  0.443  0.000   45.9    4.4   41.5    0.0
 2010 134    37  11.10  22.60   7.60  2.356  0.824  0.395  0.429  0.000   46.7    4.8   42.0    0.0
 2010 135    38   9.70  26.40  11.10  2.221  0.826  0.409  0.417  0.000   47.6    5.2   42.4    0.0
 2010 136    39  13.20  16.20   5.50  2.502  0.930  0.525  0.406  0.000   48.5    5.7   42.8    0.0
 2010 137    40   7.90  19.00   7.30  1.584  0.739  0.344  0.395  0.000   49.2    6.1   43.2    0.0
 2010 138    41   4.10  18.80  14.70  0.875  0.586  0.200  0.385  0.000   49.8    6.3   43.6    0.0
 2010 139    42   6.10  21.40  16.90  1.368  1.368  0.337  1.030  0.000   51.2    6.6   44.6    0.0
 2010 140    43   4.10  21.20  17.20  0.917  0.917  0.250  0.666  0.000   52.1    6.8   45.3    0.0
 2010 141    44   4.40  22.20  17.20  0.994  0.994  0.289  0.704  0.000   53.1    7.1   46.0    0.0
 2010 142    45   8.80  23.20  16.40  1.995  1.090  0.620  0.470  0.000   54.2    7.8   46.4    0.0
 2010 143    46   6.30  23.80  16.40  1.433  0.946  0.492  0.454  0.000   55.1    8.2   46.9    0.0
 2010 144    47   3.90  20.40  15.20  0.840  0.840  0.311  0.529  0.000   56.0    8.6   47.4    0.0
 2010 145    48   9.40  18.80  11.80  1.922  1.922  0.744  1.178  0.000   57.9    9.3   48.6    0.0
 2010 146    49   4.20  18.20   6.60  0.810  0.810  0.330  0.480  0.000   58.7    9.6   49.1    0.0
 2010 147    50   3.90  20.00  13.10  0.816  0.816  0.342  0.474  0.000   59.5   10.0   49.6    0.0
 2010 148    51   5.10  21.20  13.40  1.085  1.085  0.472  0.613  0.000   60.6   10.4   50.2    0.0
 2010 149    52   3.70  16.00  15.20  0.745  0.745  0.339  0.406  0.000   61.4   10.8   50.6    0.0
 2010 150    53   3.70  17.20   9.40  0.718  0.718  0.336  0.382  0.000   62.1   11.1   51.0    0.0
 2010 151    54   7.10  15.10   4.70  1.275  1.275  0.612  0.663  0.000   63.4   11.7   51.6    0.0
 2010 152    55  10.00  17.40   2.10  1.811  1.811  0.873  0.937  0.000   65.2   12.6   52.6    0.0
 2010 153    56   9.90  19.20   3.80  1.880  1.880  0.822  1.058  0.000   67.0   13.4   53.6    0.0
 2010 154    57   8.20  20.80   5.00  1.610  1.610  0.705  0.905  0.000   68.7   14.1   54.5    0.0
 2010 155    58   8.80  20.80   9.00  1.788  1.788  0.815  0.974  0.000   70.4   14.9   55.5    0.0
 2010 156    59  12.00  18.20   6.20  2.288  2.288  1.097  1.190  0.000   72.7   16.0   56.7    0.0
 2010 157    60  11.80  20.40   6.20  2.316  1.924  1.145  0.779  0.000   74.7   17.2   57.5    0.0
 2010 158    61  10.20  17.90   5.20  1.911  1.911  0.980  0.931  0.000   76.6   18.2   58.4    0.0
 2010 159    62   9.60  16.00   1.50  1.684  1.684  0.882  0.801  0.000   78.3   19.1   59.2    0.0
 2010 160    63   7.90  13.60  -0.40  1.318  1.318  0.600  0.718  0.000   79.6   19.7   59.9    0.0
 2010 161    64   8.10  16.10   7.10  1.541  1.541  0.471  1.070  0.000   81.1   20.1   61.0    0.0
 2010 162    65   7.40  17.60   2.30  1.371  1.371  0.441  0.930  0.000   82.5   20.6   61.9    0.0
 2010 163    66   7.40  17.10  11.40  1.488  1.488  0.444  1.044  0.000   84.0   21.0   63.0    0.0
 2010 164    67   4.20  19.20  12.20  0.873  0.873  0.274  0.599  0.000   84.8   21.3   63.6    0.0
 2010 165    68   3.50  17.90  12.80  0.718  0.718  0.231  0.487  0.000   85.6   21.5   64.0    0.0
 2010 166    69  10.80  20.60   8.00  2.201  2.201  0.719  1.482  0.000   87.8   22.2   65.5    0.0
 2010 167    70   3.50  14.40   6.40  0.642  0.642  0.220  0.422  0.000   88.4   22.5   66.0    0.0
 2010 168    71   3.50  16.80   6.90  0.668  0.668  0.231  0.437  0.000   89.1   22.7   66.4    0.0
 2010 169    72   3.50  17.20   7.40  0.675  0.675  0.236  0.440  0.000   89.7   22.9   66.8    0.0
 2010 170    73   8.10  16.40   5.50  1.516  1.516  0.534  0.982  0.000   91.3   23.5   67.8    0.0
 2010 171    74   7.00  16.60   3.20  1.283  1.283  0.462  0.821  0.000   92.5   23.9   68.6    0.0
 2010 172    75   9.00  12.40   0.70  1.508  1.508  0.518  0.990  0.000   94.1   24.4   69.6    0.0
 2010 173    76  10.40  17.20   0.30  1.889  1.889  0.499  1.389  0.000   95.9   24.9   71.0    0.0
 2010 174    77   9.80  22.20   1.20  1.947  1.947  0.376  1.571  0.000   97.9   25.3   72.6    0.0
 2010 175    78   4.60  18.00   7.40  0.916  0.916  0.146  0.770  0.000   98.8   25.5   73.4    0.0
 2010 176    79   3.90  15.40   3.00  0.716  0.587  0.116  0.471  0.000   99.4   25.6   73.8    0.0
 2010 177    80   4.40  16.00   0.00  0.792  0.792  0.119  0.673  0.000  100.2   25.7   74.5    0.0
 2010 178    81   3.50  17.00  11.20  0.717  0.717  0.072  0.645  0.000  100.9   25.8   75.1    0.0
 2010 179    82  11.20  16.00   4.20  2.116  2.116  0.214  1.902  0.000  103.0   26.0   77.0    0.0
 2010 180    83   8.60  17.40   0.70  1.602  1.602  0.162  1.440  0.000  104.6   26.1   78.5    0.0
 2010 181    84   4.40  17.80  10.20  0.905  0.905  0.069  0.837  0.000  105.5   26.2   79.3    0.0
 2010 182    85   4.00  17.60  11.00  0.827  0.827  0.064  0.763  0.000  106.4   26.3   80.1    0.0
 2010 183    86   6.10  22.80  12.80  1.371  1.371  0.107  1.264  0.000  107.7   26.4   81.3    0.0
 2010 184    87  10.50  23.80  10.40  2.341  1.579  0.186  1.393  0.000  109.3   26.6   82.7    0.0
 2010 185    88  11.40  25.20   9.10  2.558  2.558  0.211  2.347  0.000  111.9   26.8   85.1    0.0
 2010 186    89  10.60  27.40  12.60  2.513  1.669  0.216  1.452  0.000  113.5   27.0   86.5    0.0
 2010 187    90   5.10  20.10  13.10  1.109  1.109  0.099  1.010  0.000  114.6   27.1   87.5    0.0
 2010 188    91   3.60  19.20   9.20  0.747  0.747  0.068  0.680  0.000  115.4   27.2   88.2    0.0
 2010 189    92  12.00  17.80   3.60  2.316  2.316  0.211  2.105  0.000  117.7   27.4   90.3    0.0
 2010 190    93  12.10  17.80   1.20  2.282  2.282  0.203  2.079  0.000  120.0   27.6   92.4    0.0
 2010 191    94   9.10  15.40   0.80  1.651  1.651  0.118  1.533  0.000  121.6   27.7   93.9    0.0
 2010 192    95   3.70  18.00   5.60  0.733  0.569  0.039  0.530  0.000  122.2   27.7   94.5    0.0
 2010 193    96   6.10  14.90   3.90  1.136  1.136  0.061  1.075  0.000  123.3   27.8   95.5    0.0
 2010 194    97  12.30  10.80   0.20  2.062  2.062  0.107  1.955  0.000  125.4   27.9   97.5    0.0
 2010 195    98   6.40  10.10   2.10  1.085  1.085  0.038  1.048  0.000  126.5   27.9   98.6    0.0
 2010 196    99   9.90  10.20  -0.80  1.628  1.628  0.048  1.580  0.000  128.1   28.0  100.1    0.0
 2010 197   100   9.90  11.20  -1.90  1.638  1.130  0.026  1.104  0.000  129.2   28.0  101.2    0.0
 2010 198   101   3.80  10.20  -2.60  0.614  0.614  0.004  0.610  0.000  129.9   28.0  101.8    0.0
 2010 199   102   3.70  14.60   8.10  0.719  0.719  0.001  0.718  0.000  130.6   28.0  102.6    0.0
 2010 200   103   3.80  14.40   6.40  0.724  0.724  0.001  0.723  0.000  131.3   28.0  103.3    0.0
 2010 201   104  11.60  14.80   3.70  2.165  2.165  0.002  2.163  0.000  133.5   28.0  105.5    0.0
 2010 202   105   3.80  10.80   2.60  0.658  0.658  0.000  0.658  0.000  134.1   28.0  106.1    0.0
 2010 203   106   7.10  12.50   0.60  1.237  1.237  0.001  1.236  0.000  135.4   28.0  107.3    0.0
 2010 204   107  12.80  14.40   0.80  2.304  2.160  0.000  2.160  0.000  137.5   28.0  109.5    0.0
 2010 205   108   6.50  14.00   0.80  1.163  1.163  0.000  1.163  0.000  138.7   28.0  110.7    0.0
 2010 206   109   4.70  13.20  10.20  0.914  0.914  0.000  0.914  0.000  139.6   28.0  111.6    0.0
 2010 207   110  13.00  15.60   3.90  2.461  2.461  0.000  2.461  0.000  142.1   28.0  114.0    0.0
 2010 208   111  13.20  17.80   2.10  2.536  2.536  0.000  2.536  0.000  144.6   28.0  116.6    0.0
 2010 209   112  10.70  18.60   3.90  2.117  2.117  0.000  2.117  0.000  146.7   28.0  118.7    0.0
 2010 210   113  12.30  17.50   3.40  2.383  2.383  0.000  2.383  0.000  149.1   28.0  121.1    0.0
 2010 211   114   4.80  20.80   9.10  1.027  0.737  0.000  0.737  0.000  149.8   28.0  121.8    0.0
 2010 212   115  11.30  15.60   3.30  2.126  2.126  0.000  2.126  0.000  152.0   28.0  123.9    0.0
 2010 213   116  13.60  11.20   1.80  2.350  2.350  0.000  2.350  0.000  154.3   28.0  126.3    0.0
 2010 214   117  13.20  11.00  -1.00  2.203  1.931  0.000  1.931  0.000  156.2   28.0  128.2    0.0
 2010 215   118  12.00  10.50  -1.80  1.968  1.968  0.000  1.968  0.000  158.2   28.0  130.2    0.0
 2010 216   119  10.00  12.20  -0.80  1.707  1.707  0.000  1.707  0.000  159.9   28.0  131.9    0.0
 2010 217   120  10.20  14.80   2.00  1.871  1.595  0.000  1.595  0.000  161.5   28.0  133.5    0.0
 2010 218   121   9.90  15.20   3.70  1.859  1.639  0.000  1.639  0.000  163.2   28.0  135.1    0.0

*DSSAT Cropping System Model Ver. 4.0.2.000               Aug 12, 2016; 12:46:17

*RUN  11        : UYMZ                    
 MODEL          : MZCER040 - Maize           
 EXPERIMENT     : UYMZ0194 MZ    late to create DSS                             
 TREATMENT  1   : UYMZ                    

@YEAR DOY   DAS   SRAA   TMXA   TMNA   EOAA   ETAA   EPAA   ESAA   EFAD   ETAC   EPAC   ESAC   EFAC
 2011 097     0  14.90  25.60   7.20  3.338  2.966  0.000  2.966  0.000    3.0    0.0    3.0    0.0
 2011 098     1  13.50  25.00  14.10  3.178  2.986  0.000  2.986  0.000    6.0    0.0    6.0    0.0
 2011 099     2  16.70  23.20  11.00  3.748  1.103  0.000  1.103  0.000    7.1    0.0    7.1    0.0
 2011 100     3  11.90  24.70  12.60  2.757  0.134  0.000  0.134  0.000    7.2    0.0    7.2    0.0
 2011 101     4  12.30  24.70  12.60  2.850  0.129  0.000  0.129  0.000    7.3    0.0    7.3    0.0
 2011 102     5  10.10  26.60  15.20  2.445  0.125  0.000  0.125  0.000    7.4    0.0    7.4    0.0
 2011 103     6  16.60  28.40  16.60  4.147  0.621  0.000  0.621  0.000    8.1    0.0    8.1    0.0
 2011 104     7   8.30  23.20  13.80  1.907  0.117  0.000  0.117  0.000    8.2    0.0    8.2    0.0
 2011 105     8   7.90  21.20  12.80  1.755  1.614  0.000  1.614  0.000    9.8    0.0    9.8    0.0
 2011 106     9  10.10  20.10  13.00  2.216  2.216  0.000  2.216  0.000   12.0    0.0   12.0    0.0
 2011 107    10   9.70  21.80  12.20  2.160  2.160  0.000  2.160  0.000   14.2    0.0   14.2    0.0
 2011 108    11  17.70  21.20   8.00  3.771  3.771  0.000  3.771  0.000   17.9    0.0   17.9    0.0
 2011 109    12  16.70  22.40   5.00  3.519  2.139  0.000  2.139  0.000   20.1    0.0   20.1    0.0
 2011 110    13   5.10  19.60  10.40  1.086  1.086  0.000  1.086  0.000   21.2    0.0   21.2    0.0
 2011 111    14   5.50  19.40  13.40  1.200  1.200  0.000  1.200  0.000   22.4    0.0   22.4    0.0
 2011 112    15  16.00  27.40  11.00  3.782  3.782  0.000  3.782  0.000   26.1    0.0   26.1    0.0
 2011 113    16  15.30  20.40   6.40  3.177  2.796  0.007  2.790  0.000   28.9    0.0   28.9    0.0
 2011 114    17  16.10  21.50   4.40  3.332  2.985  0.010  2.975  0.000   31.9    0.0   31.9    0.0
 2011 115    18  14.20  22.60   0.70  2.884  1.448  0.011  1.436  0.000   33.4    0.0   33.3    0.0
 2011 116    19  12.00  23.80   6.80  2.617  1.115  0.009  1.106  0.000   34.5    0.0   34.5    0.0
 2011 117    20  15.00  24.40   7.20  3.307  0.950  0.016  0.934  0.000   35.4    0.1   35.4    0.0
 2011 118    21   9.60  24.60  10.60  2.184  0.838  0.014  0.824  0.000   36.3    0.1   36.2    0.0
 2011 119    22  11.50  24.60  12.40  2.654  0.768  0.023  0.745  0.000   37.0    0.1   37.0    0.0
 2011 120    23   5.90  23.60  16.30  1.388  0.701  0.015  0.686  0.000   37.7    0.1   37.6    0.0
 2011 121    24   8.70  20.00  12.60  1.895  1.895  0.038  1.858  0.000   39.6    0.1   39.5    0.0
 2011 122    25  12.70  18.50   8.80  2.619  1.785  0.070  1.716  0.000   41.4    0.2   41.2    0.0
 2011 123    26  14.90  19.00   3.80  2.952  2.560  0.094  2.466  0.000   44.0    0.3   43.7    0.0
 2011 124    27  10.40  20.00   5.20  2.117  1.460  0.072  1.389  0.000   45.5    0.4   45.1    0.0
 2011 125    28  14.60  22.40   9.80  3.196  1.207  0.122  1.085  0.000   46.7    0.5   46.2    0.0
 2011 126    29  14.20  19.20   4.60  2.838  1.054  0.133  0.921  0.000   47.7    0.6   47.1    0.0
 2011 127    30  13.90  22.50   2.40  2.849  0.959  0.144  0.815  0.000   48.7    0.8   47.9    0.0
 2011 128    31  12.00  19.00   2.00  2.332  0.853  0.115  0.738  0.000   49.5    0.9   48.6    0.0
 2011 129    32  13.90  18.60   0.00  2.634  0.798  0.117  0.680  0.000   50.3    1.0   49.3    0.0
 2011 130    33  12.20  22.80   2.40  2.516  0.711  0.077  0.634  0.000   51.0    1.1   49.9    0.0
 2011 131    34  13.50  23.80   7.60  2.955  0.692  0.096  0.596  0.000   51.7    1.2   50.5    0.0
 2011 132    35   5.90  16.60   6.80  1.161  0.614  0.050  0.564  0.000   52.3    1.2   51.1    0.0
 2011 133    36   5.60  19.40   7.20  1.150  0.592  0.055  0.537  0.000   52.9    1.3   51.6    0.0
 2011 134    37   4.30  16.40   9.50  0.864  0.864  0.048  0.817  0.000   53.8    1.3   52.5    0.0
 2011 135    38   8.10  19.00   5.70  1.628  0.901  0.101  0.800  0.000   54.7    1.4   53.3    0.0
 2011 136    39   9.50  17.80   2.80  1.824  0.605  0.124  0.481  0.000   55.3    1.6   53.7    0.0
 2011 137    40   6.80  17.70   4.60  1.327  0.550  0.086  0.464  0.000   55.9    1.6   54.2    0.0
 2011 138    41  11.70  20.20   5.40  2.383  0.612  0.163  0.448  0.000   56.5    1.8   54.7    0.0
 2011 139    42   6.60  18.60   8.20  1.348  0.537  0.103  0.434  0.000   57.0    1.9   55.1    0.0
 2011 140    43  11.10  24.80   6.80  2.430  0.628  0.207  0.422  0.000   57.6    2.1   55.5    0.0
 2011 141    44  11.10  23.20   8.00  2.401  0.648  0.238  0.410  0.000   58.3    2.4   55.9    0.0
 2011 142    45   6.90  21.30  10.20  1.482  1.482  0.168  1.314  0.000   59.8    2.5   57.2    0.0
 2011 143    46   9.00  16.60   5.50  1.732  1.083  0.220  0.863  0.000   60.8    2.7   58.1    0.0
 2011 144    47   6.90  15.70   3.40  1.282  1.282  0.172  1.111  0.000   62.1    2.9   59.2    0.0
 2011 145    48   4.50  19.00  12.00  0.951  0.951  0.123  0.828  0.000   63.1    3.0   60.0    0.0
 2011 146    49   5.00  16.80   7.90  0.986  0.986  0.139  0.847  0.000   64.1    3.2   60.9    0.0
 2011 147    50   8.80  17.40   7.40  1.740  1.740  0.262  1.478  0.000   65.8    3.4   62.4    0.0
 2011 148    51  11.10  17.80   7.20  2.201  2.201  0.350  1.851  0.000   68.0    3.8   64.2    0.0
 2011 149    52   6.50  16.80   3.00  1.218  1.212  0.207  1.006  0.000   69.2    4.0   65.2    0.0
 2011 150    53   4.80  16.30   5.20  0.914  0.914  0.146  0.768  0.000   70.1    4.1   66.0    0.0
 2011 151    54   7.60  18.80   8.70  1.548  1.548  0.256  1.293  0.000   71.7    4.4   67.3    0.0
 2011 152    55   7.90  17.60   6.80  1.553  1.553  0.277  1.275  0.000   73.2    4.7   68.5    0.0
 2011 153    56   8.10  17.20   3.20  1.527  1.527  0.288  1.239  0.000   74.8    5.0   69.8    0.0
 2011 154    57   7.60  15.80   7.00  1.458  1.447  0.264  1.183  0.000   76.2    5.2   71.0    0.0
 2011 155    58  11.10  13.20   1.20  1.928  1.344  0.365  0.979  0.000   77.5    5.6   72.0    0.0
 2011 156    59  10.90  14.40  -2.20  1.869  1.135  0.282  0.854  0.000   78.7    5.9   72.8    0.0
 2011 157    60   6.30  13.60   0.10  1.105  1.105  0.058  1.047  0.000   79.8    5.9   73.9    0.0
 2011 158    61   4.10  15.00   5.80  0.781  0.541  0.028  0.513  0.000   80.3    6.0   74.4    0.0
 2011 159    62   9.30  15.80   4.80  1.774  1.774  0.067  1.707  0.000   82.1    6.0   76.1    0.0
 2011 160    63   3.80  15.20   5.00  0.720  0.720  0.031  0.688  0.000   82.8    6.1   76.8    0.0
 2011 161    64   9.00  16.30   6.20  1.752  1.752  0.079  1.673  0.000   84.6    6.1   78.4    0.0
 2011 162    65   8.30  20.80   5.40  1.708  1.306  0.090  1.216  0.000   85.9    6.2   79.6    0.0
 2011 163    66   8.30  22.40   5.20  1.740  1.107  0.110  0.997  0.000   87.0    6.3   80.6    0.0
 2011 164    67   7.70  15.40   3.40  1.434  0.973  0.107  0.866  0.000   88.0    6.4   81.5    0.0
 2011 165    68   7.30  16.60   0.40  1.343  0.877  0.101  0.776  0.000   88.8    6.5   82.3    0.0
 2011 166    69   5.10  19.80  10.20  1.081  0.769  0.060  0.709  0.000   89.6    6.6   83.0    0.0
 2011 167    70   4.50  22.80   8.20  0.974  0.974  0.061  0.914  0.000   90.6    6.7   83.9    0.0
 2011 168    71   3.50  19.00  13.20  0.752  0.752  0.051  0.701  0.000   91.3    6.7   84.6    0.0
 2011 169    72   3.80  18.00  12.80  0.803  0.803  0.059  0.744  0.000   92.1    6.8   85.4    0.0
 2011 170    73   4.50  19.40  15.40  0.990  0.990  0.078  0.912  0.000   93.1    6.9   86.3    0.0
 2011 171    74   3.70  16.40  13.20  0.767  0.767  0.066  0.701  0.000   93.9    6.9   87.0    0.0
 2011 172    75   9.00  15.30   1.40  1.637  1.637  0.150  1.487  0.000   95.5    7.1   88.5    0.0
 2011 173    76   8.10  17.20   9.70  1.645  1.645  0.128  1.517  0.000   97.2    7.2   90.0    0.0
 2011 174    77   3.60  18.20  11.20  0.751  0.751  0.067  0.684  0.000   97.9    7.3   90.7    0.0
 2011 175    78  11.10  15.40   5.70  2.111  2.111  0.200  1.911  0.000  100.0    7.5   92.6    0.0
 2011 176    79   6.50  14.40   3.60  1.190  1.190  0.127  1.063  0.000  101.2    7.6   93.6    0.0
 2011 177    80   4.30  10.40   5.20  0.752  0.752  0.080  0.672  0.000  102.0    7.7   94.3    0.0
 2011 178    81   7.90  12.60   5.20  1.430  1.430  0.155  1.275  0.000  103.4    7.8   95.6    0.0
 2011 179    82  11.00  15.00   3.20  2.023  1.418  0.232  1.186  0.000  104.8    8.1   96.8    0.0
 2011 180    83  10.10  15.20   1.80  1.836  1.836  0.213  1.623  0.000  106.7    8.3   98.4    0.0
 2011 181    84   9.40  17.60  -0.40  1.736  1.736  0.183  1.552  0.000  108.4    8.5   99.9    0.0
 2011 182    85  11.40  11.20  -1.50  1.884  1.429  0.134  1.295  0.000  109.8    8.6  101.2    0.0
 2011 183    86  10.40  10.20  -1.80  1.690  1.094  0.056  1.039  0.000  110.9    8.6  102.3    0.0
 2011 184    87   6.40   9.40  -1.40  1.033  0.906  0.014  0.892  0.000  111.8    8.7  103.2    0.0
 2011 185    88  10.40  10.80   0.40  1.757  0.805  0.011  0.795  0.000  112.6    8.7  104.0    0.0
 2011 186    89  11.20  13.00  -0.40  1.945  0.732  0.008  0.723  0.000  113.4    8.7  104.7    0.0
 2011 187    90  10.70  12.60   0.10  1.857  0.673  0.005  0.669  0.000  114.0    8.7  105.4    0.0
 2011 188    91   9.60  14.80  -3.00  1.670  0.627  0.003  0.624  0.000  114.7    8.7  106.0    0.0
 2011 189    92   7.40  16.80   1.50  1.392  0.589  0.000  0.588  0.000  115.3    8.7  106.6    0.0
