*WATER BALANCE OUTPUT FILE

*DSSAT Cropping System Model Ver. 4.0.2.000               Aug 12, 2016; 12:46:17

*RUN   1        : UYMZ                    
 MODEL          : MZCER040 - Maize           
 EXPERIMENT     : UYMZ0194 MZ    late to create DSS                             
 TREATMENT  1   : UYMZ                    


     WATER BALANCE PARAMETERS
     ========================                  --mm--

     Soil H20 (start) on Year/day 2001/097     388.00
     Soil H20 (final) on Year/day 2001/305     437.40
     Effective Irrigation                        0.00
     Precipitation                             867.50
     Drainage                                  369.34
     Runoff                                    108.04
     Soil Evaporation                          301.74
     Transpiration                              38.99
     Potential ET                              473.34

     Final Balance                             0.0001


*DSSAT Cropping System Model Ver. 4.0.2.000               Aug 12, 2016; 12:46:17

*RUN   2        : UYMZ                    
 MODEL          : MZCER040 - Maize           
 EXPERIMENT     : UYMZ0194 MZ    late to create DSS                             
 TREATMENT  1   : UYMZ                    


     WATER BALANCE PARAMETERS
     ========================                  --mm--

     Soil H20 (start) on Year/day 2002/097     388.00
     Soil H20 (final) on Year/day 2002/194     431.86
     Effective Irrigation                        0.00
     Precipitation                             562.70
     Drainage                                  270.47
     Runoff                                     92.25
     Soil Evaporation                          132.65
     Transpiration                              23.48
     Potential ET                              184.83

     Final Balance                            -0.0001


*DSSAT Cropping System Model Ver. 4.0.2.000               Aug 12, 2016; 12:46:17

*RUN   3        : UYMZ                    
 MODEL          : MZCER040 - Maize           
 EXPERIMENT     : UYMZ0194 MZ    late to create DSS                             
 TREATMENT  1   : UYMZ                    


     WATER BALANCE PARAMETERS
     ========================                  --mm--

     Soil H20 (start) on Year/day 2003/097     388.00
     Soil H20 (final) on Year/day 2003/242     431.75
     Effective Irrigation                        0.00
     Precipitation                             687.80
     Drainage                                  283.36
     Runoff                                    174.23
     Soil Evaporation                          176.01
     Transpiration                              10.46
     Potential ET                              271.40

     Final Balance                             0.0000


*DSSAT Cropping System Model Ver. 4.0.2.000               Aug 12, 2016; 12:46:17

*RUN   4        : UYMZ                    
 MODEL          : MZCER040 - Maize           
 EXPERIMENT     : UYMZ0194 MZ    late to create DSS                             
 TREATMENT  1   : UYMZ                    


     WATER BALANCE PARAMETERS
     ========================                  --mm--

     Soil H20 (start) on Year/day 2004/097     388.00
     Soil H20 (final) on Year/day 2004/262     428.07
     Effective Irrigation                        0.00
     Precipitation                             655.90
     Drainage                                  307.26
     Runoff                                     87.65
     Soil Evaporation                          208.04
     Transpiration                              12.88
     Potential ET                              333.26

     Final Balance                            -0.0001


*DSSAT Cropping System Model Ver. 4.0.2.000               Aug 12, 2016; 12:46:17

*RUN   5        : UYMZ                    
 MODEL          : MZCER040 - Maize           
 EXPERIMENT     : UYMZ0194 MZ    late to create DSS                             
 TREATMENT  1   : UYMZ                    


     WATER BALANCE PARAMETERS
     ========================                  --mm--

     Soil H20 (start) on Year/day 2005/097     388.00
     Soil H20 (final) on Year/day 2005/321     427.91
     Effective Irrigation                        0.00
     Precipitation                            1232.90
     Drainage                                  498.24
     Runoff                                    360.54
     Soil Evaporation                          301.88
     Transpiration                              32.33
     Potential ET                              571.85

     Final Balance                            -0.0001


*DSSAT Cropping System Model Ver. 4.0.2.000               Aug 12, 2016; 12:46:17

*RUN   6        : UYMZ                    
 MODEL          : MZCER040 - Maize           
 EXPERIMENT     : UYMZ0194 MZ    late to create DSS                             
 TREATMENT  1   : UYMZ                    


     WATER BALANCE PARAMETERS
     ========================                  --mm--

     Soil H20 (start) on Year/day 2006/097     388.00
     Soil H20 (final) on Year/day 2006/328     428.61
     Effective Irrigation                        0.00
     Precipitation                             859.70
     Drainage                                  323.82
     Runoff                                    180.73
     Soil Evaporation                          296.13
     Transpiration                              18.41
     Potential ET                              641.14

     Final Balance                             0.0001


*DSSAT Cropping System Model Ver. 4.0.2.000               Aug 12, 2016; 12:46:17

*RUN   7        : UYMZ                    
 MODEL          : MZCER040 - Maize           
 EXPERIMENT     : UYMZ0194 MZ    late to create DSS                             
 TREATMENT  1   : UYMZ                    


     WATER BALANCE PARAMETERS
     ========================                  --mm--

     Soil H20 (start) on Year/day 2007/097     388.00
     Soil H20 (final) on Year/day 2007/208     426.61
     Effective Irrigation                        0.00
     Precipitation                             564.10
     Drainage                                  162.75
     Runoff                                    217.15
     Soil Evaporation                          132.25
     Transpiration                              13.34
     Potential ET                              211.87

     Final Balance                             0.0001


*DSSAT Cropping System Model Ver. 4.0.2.000               Aug 12, 2016; 12:46:17

*RUN   8        : UYMZ                    
 MODEL          : MZCER040 - Maize           
 EXPERIMENT     : UYMZ0194 MZ    late to create DSS                             
 TREATMENT  1   : UYMZ                    


     WATER BALANCE PARAMETERS
     ========================                  --mm--

     Soil H20 (start) on Year/day 2008/097     388.00
     Soil H20 (final) on Year/day 2008/326     420.35
     Effective Irrigation                        0.00
     Precipitation                             543.60
     Drainage                                  196.87
     Runoff                                     28.78
     Soil Evaporation                          253.91
     Transpiration                              31.69
     Potential ET                              640.64

     Final Balance                             0.0000


*DSSAT Cropping System Model Ver. 4.0.2.000               Aug 12, 2016; 12:46:17

*RUN   9        : UYMZ                    
 MODEL          : MZCER040 - Maize           
 EXPERIMENT     : UYMZ0194 MZ    late to create DSS                             
 TREATMENT  1   : UYMZ                    


     WATER BALANCE PARAMETERS
     ========================                  --mm--

     Soil H20 (start) on Year/day 2009/097     388.00
     Soil H20 (final) on Year/day 2009/121     378.65
     Effective Irrigation                        0.00
     Precipitation                               0.40
     Drainage                                    0.00
     Runoff                                      0.00
     Soil Evaporation                            9.75
     Transpiration                               0.00
     Potential ET                               81.86

     Final Balance                             0.0000


*DSSAT Cropping System Model Ver. 4.0.2.000               Aug 12, 2016; 12:46:17

*RUN  10        : UYMZ                    
 MODEL          : MZCER040 - Maize           
 EXPERIMENT     : UYMZ0194 MZ    late to create DSS                             
 TREATMENT  1   : UYMZ                    


     WATER BALANCE PARAMETERS
     ========================                  --mm--

     Soil H20 (start) on Year/day 2010/097     388.00
     Soil H20 (final) on Year/day 2010/218     431.30
     Effective Irrigation                        0.00
     Precipitation                             368.40
     Drainage                                  138.67
     Runoff                                     23.28
     Soil Evaporation                          135.13
     Transpiration                              28.02
     Potential ET                              226.37

     Final Balance                             0.0000


*DSSAT Cropping System Model Ver. 4.0.2.000               Aug 12, 2016; 12:46:17

*RUN  11        : UYMZ                    
 MODEL          : MZCER040 - Maize           
 EXPERIMENT     : UYMZ0194 MZ    late to create DSS                             
 TREATMENT  1   : UYMZ                    


     WATER BALANCE PARAMETERS
     ========================                  --mm--

     Soil H20 (start) on Year/day 2011/097     388.00
     Soil H20 (final) on Year/day 2011/189     424.77
     Effective Irrigation                        0.00
     Precipitation                             382.30
     Drainage                                  173.24
     Runoff                                     57.04
     Soil Evaporation                          106.56
     Transpiration                               8.69
     Potential ET                              179.27

     Final Balance                            -0.0001

