*SIMULATION OVERVIEW FILE

*DSSAT Cropping System Model Ver. 4.0.2.000               Aug 01, 2016; 15:44:49
                                                                                
*RUN   1        : UYMZ                                                          
 MODEL          : MZCER040 - MAIZE                                              
 EXPERIMENT     : UYMZ0105 SN late to create DSS                                
 TREATMENT  1   : UYMZ                                                          
                                                                                
 CROP           : MAIZE          CULTIVAR : CMEDIO UY        ECOTYPE :IB0001    
 STARTING DATE  : APR  7 1975                                                   
 PLANTING DATE  : APR 10 1975    PLANTS/m2 :  7.0     ROW SPACING :  15.cm      
 WEATHER        : UYTT   1975                                                   
 SOIL           : UYSS0N2002     TEXTURE :       -  N20-02    SNIA CLAY RISS    
 SOIL INITIAL C : DEPTH:125cm EXTR. H2O:186.3mm  NO3: 74.8kg/ha  NH4: 23.9kg/ha 
 WATER BALANCE  : AUTOMATIC IRRIGATION - REFILL PROFILE                         
 IRRIGATION     : AUTOMATIC - PLANTING -> MATURITY [ SOIL DEPTH:30.00m 50.%]    
 NITROGEN BAL.  : SOIL-N & N-UPTAKE SIMULATION; NO N-FIXATION                   
 N-FERTILIZER   :       20 kg/ha IN     3 APPLICATIONS                          
 RESIDUE/MANURE : INITIAL :     0 kg/ha ;       0 kg/ha IN     0 APPLICATIONS   
 ENVIRONM. OPT. : DAYL=    0.00  SRAD=    0.00  TMAX=    0.00  TMIN=    0.00    
                  RAIN=    0.00  CO2 = R330.00  DEW =    0.00  WIND=    0.00    
 SIMULATION OPT : WATER   :Y  NITROGEN:Y  N-FIX:N  PHOSPH :N  PESTS  :N         
                  PHOTO   :C  ET      :R  INFIL:S  HYDROL :R  SOM    :G         
 MANAGEMENT OPT : PLANTING:R  IRRIG   :A  FERT :D  RESIDUE:N  HARVEST:M  WTH:M  
                                                                                
*SUMMARY OF SOIL AND GENETIC INPUT PARAMETERS                                   
                                                                                
   SOIL LOWER UPPER   SAT  EXTR  INIT   ROOT   BULK     pH    NO3    NH4    ORG 
  DEPTH LIMIT LIMIT    SW    SW    SW   DIST   DENS                          C  
   cm   cm3/cm3    cm3/cm3    cm3/cm3         g/cm3         ugN/g  ugN/g     %  
------------------------------------------------------------------------------- 
  0-  5 0.331 0.542 0.585 0.211 0.394   1.00   1.11   6.50  15.00   1.50   2.74 
  5- 15 0.331 0.542 0.585 0.211 0.394   1.00   1.11   6.50  15.00   1.50   2.74 
 15- 30 0.331 0.542 0.585 0.211 0.394   1.00   1.11   6.50  15.00   1.50   2.74 
 30- 45 0.290 0.438 0.491 0.148 0.334   0.43   1.26   6.50   8.50   1.50   1.07 
 45- 60 0.292 0.431 0.480 0.138 0.375   0.39   1.29   6.27   4.53   1.50   0.90 
 60- 90 0.293 0.419 0.466 0.126 0.419   0.32   1.34   6.00   0.00   1.50   0.64 
 90-108 0.286 0.408 0.460 0.122 0.408   0.23   1.36   6.00   0.00   1.50   0.35 
108-125 0.276 0.395 0.456 0.119 0.395   0.12   1.38   6.00   0.00   1.50   0.14 
                                                                                
TOT-125  37.3  55.9  62.1  18.6  49.1  <--cm   -  kg/ha-->   74.8   23.9 166127 
SOIL ALBEDO    : 0.09      EVAPORATION LIMIT : 6.00         MIN. FACTOR  : 1.00 
RUNOFF CURVE # :10.00      DRAINAGE RATE     : 0.40         FERT. FACTOR : 1.00 
                                                                                
 MAIZE      CULTIVAR :UY0370-CMEDIO UY          ECOTYPE :IB0001                 
 P1     : 280.00  P2     : 0.0000  P5     : 750.00                              
 G2     : 800.00  G3     :  7.500  PHINT  : 38.900                              
                                                                                
                                                                                
                                                                                
*SIMULATED CROP AND SOIL STATUS AT MAIN DEVELOPMENT STAGES

 RUN NO.     1     UYMZ                    

        CROP GROWTH   BIOMASS         LEAF   CROP N     STRESS  
   DATE  AGE STAGE      kg/ha    LAI   NUM  kg/ha  %   H2O    N 
 ------  --- ---------- -----  -----  ----  ---  ---  ----  ----
  7 APR    0 Start Sim      0   0.00   0.0    0  0.0  0.00  0.00
 10 APR    0 Sowing         0   0.00   0.0    0  0.0  0.00  0.00
 11 APR    1 Germinate      0   0.00   0.0    0  0.0  0.00  0.00
 19 APR    9 Emergence     28   0.00   2.0    1  4.4  0.00  0.00
 22 MAY   42 End Juveni   336   0.57   9.8   13  3.8  0.00  0.00
 26 MAY   46 Floral Ini   490   0.79  10.7   18  3.7  0.00  0.01
 16 SEP  159 75% Silkin  2903   0.00  22.4   84  2.9  0.00  0.02
 13 OCT  186 Beg Gr Fil  1940   0.00  22.4   84  4.3  0.00  0.02
  Crop mature on JD 292 due to slowed grain filling
 20 OCT  193 End Gr Fil  1940   0.00  22.4   84  4.3  0.00  0.00
 21 OCT  194 Maturity    1940   0.00  22.4   84  4.3  0.00  0.00
 21 OCT  194 Harvest     1940   0.00  22.4   84  4.3  0.00  0.00


*MAIN GROWTH AND DEVELOPMENT VARIABLES

@     VARIABLE                          SIMULATED     MEASURED
      --------                          ---------     --------
      Anthesis day (dap)                      159          -99
      Physiological maturity day (dap)        194          -99
      Yield at harvest maturity (kg [dm]/       0          -99
      Number at maturity (no/m2)              269          -99
      Unit wt at maturity (g [dm]/unit)    0.0000          -99
      Number at maturity (no/unit)           51.0          -99
      Tops weight at maturity (kg [dm]/ha    1940          -99
      By-product produced (stalk) at matu    1990          -99
      Leaf area index, maximum               1.33          -99
      Harvest index at maturity             0.000          -99
      Grain N at maturity (kg/ha)               0          -99
      Tops N at maturity (kg/ha)               84          -99
      Stem N at maturity (kg/ha)               84          -99
      Grain N at maturity (%)                 0.0          -99
      Tops weight at anthesis (kg [dm]/ha    2928          -99
      Tops N at anthesis (kg/ha)               84          -99
      Leaf number per stem at maturity      22.42          -99


*ENVIRONMENTAL AND STRESS FACTORS

 |-----Development Phase------|-------------Environment--------------|---------Stress----------|
                              |--------Average-------|---Cumulative--|  (0=Min, 1=Max Stress)  |
                         Time  Temp  Temp Solar Photop         Evapo |----Water---|--Nitrogen--|
                         Span   Max   Min   Rad  [day]   Rain  Trans  Photo         Photo
                         days    øC    øC MJ/m2     hr     mm     mm  synth Growth  synth Growth
------------------------------------------------------------------------------------------------
 Emergence-End Juvenile    33  22.3   9.9  11.4  10.60  162.7   52.5  0.000  0.000  0.002  0.001
 End Juvenil-Floral Init    4  23.2   8.6  11.8  10.12    0.8    8.0  0.000  0.000  0.002  0.001
 Floral Init-End Lf Grow  113  17.6   6.6   9.6  10.38  314.3  176.3  0.000  0.000  0.054  0.022
 End Lf Grth-Beg Grn Fil   27  19.9   7.8  17.2  12.25   76.5   38.4  0.000  0.000  0.054  0.022
 Grain Filling Phase        7  25.1   8.5  22.0  12.84    1.4    8.0  0.000  0.000  0.000  0.000

                     Maize YIELD :        0 kg/ha    [Dry weight] 

************************************************************************************************

*DSSAT Cropping System Model Ver. 4.0.2.000               Aug 01, 2016; 15:44:49
                                                                                
*RUN   2        : UYMZ                                                          
 MODEL          : MZCER040 - MAIZE                                              
 EXPERIMENT     : UYMZ0105 SN late to create DSS                                
 TREATMENT  1   : UYMZ                                                          
                                                                                
 CROP           : MAIZE          CULTIVAR : CMEDIO UY        ECOTYPE :IB0001    
 STARTING DATE  : APR  7 1975                                                   
 PLANTING DATE  : APR 10 1975    PLANTS/m2 :  7.0     ROW SPACING :  15.cm      
 WEATHER        : UYTT   1975                                                   
 SOIL           : UYSS0N2002     TEXTURE :       -  N20-02    SNIA CLAY RISS    
 SOIL INITIAL C : DEPTH:125cm EXTR. H2O:186.3mm  NO3: 74.8kg/ha  NH4: 23.9kg/ha 
 WATER BALANCE  : AUTOMATIC IRRIGATION - REFILL PROFILE                         
 IRRIGATION     : AUTOMATIC - PLANTING -> MATURITY [ SOIL DEPTH:30.00m 50.%]    
 NITROGEN BAL.  : SOIL-N & N-UPTAKE SIMULATION; NO N-FIXATION                   
 N-FERTILIZER   :       20 kg/ha IN     3 APPLICATIONS                          
 RESIDUE/MANURE : INITIAL :     0 kg/ha ;       0 kg/ha IN     0 APPLICATIONS   
 ENVIRONM. OPT. : DAYL=    0.00  SRAD=    0.00  TMAX=    0.00  TMIN=    0.00    
                  RAIN=    0.00  CO2 = R330.00  DEW =    0.00  WIND=    0.00    
 SIMULATION OPT : WATER   :Y  NITROGEN:Y  N-FIX:N  PHOSPH :N  PESTS  :N         
                  PHOTO   :C  ET      :R  INFIL:S  HYDROL :R  SOM    :G         
 MANAGEMENT OPT : PLANTING:R  IRRIG   :A  FERT :D  RESIDUE:N  HARVEST:M  WTH:M  
                                                                                
*SUMMARY OF SOIL AND GENETIC INPUT PARAMETERS                                   
                                                                                
   SOIL LOWER UPPER   SAT  EXTR  INIT   ROOT   BULK     pH    NO3    NH4    ORG 
  DEPTH LIMIT LIMIT    SW    SW    SW   DIST   DENS                          C  
   cm   cm3/cm3    cm3/cm3    cm3/cm3         g/cm3         ugN/g  ugN/g     %  
------------------------------------------------------------------------------- 
  0-  5 0.331 0.542 0.585 0.211 0.394   1.00   1.11   6.50  15.00   1.50   2.74 
  5- 15 0.331 0.542 0.585 0.211 0.394   1.00   1.11   6.50  15.00   1.50   2.74 
 15- 30 0.331 0.542 0.585 0.211 0.394   1.00   1.11   6.50  15.00   1.50   2.74 
 30- 45 0.290 0.438 0.491 0.148 0.334   0.43   1.26   6.50   8.50   1.50   1.07 
 45- 60 0.292 0.431 0.480 0.138 0.375   0.39   1.29   6.27   4.53   1.50   0.90 
 60- 90 0.293 0.419 0.466 0.126 0.419   0.32   1.34   6.00   0.00   1.50   0.64 
 90-108 0.286 0.408 0.460 0.122 0.408   0.23   1.36   6.00   0.00   1.50   0.35 
108-125 0.276 0.395 0.456 0.119 0.395   0.12   1.38   6.00   0.00   1.50   0.14 
                                                                                
TOT-125  37.3  55.9  62.1  18.6  49.1  <--cm   -  kg/ha-->   74.8   23.9 166127 
SOIL ALBEDO    : 0.09      EVAPORATION LIMIT : 6.00         MIN. FACTOR  : 1.00 
RUNOFF CURVE # :10.00      DRAINAGE RATE     : 0.40         FERT. FACTOR : 1.00 
                                                                                
 MAIZE      CULTIVAR :UY0370-CMEDIO UY          ECOTYPE :IB0001                 
 P1     : 280.00  P2     : 0.0000  P5     : 750.00                              
 G2     : 800.00  G3     :  7.500  PHINT  : 38.900                              
                                                                                
                                                                                
                                                                                
*SIMULATED CROP AND SOIL STATUS AT MAIN DEVELOPMENT STAGES

 RUN NO.     2     UYMZ                    

        CROP GROWTH   BIOMASS         LEAF   CROP N     STRESS  
   DATE  AGE STAGE      kg/ha    LAI   NUM  kg/ha  %   H2O    N 
 ------  --- ---------- -----  -----  ----  ---  ---  ----  ----
  6 APR    0 Start Sim      0   0.00   0.0    0  0.0  0.00  0.00
  9 APR    0 Sowing         0   0.00   0.0    0  0.0  0.00  0.00
 10 APR    1 Germinate      0   0.00   0.0    0  0.0  0.00  0.00
 16 APR    7 Emergence     28   0.00   2.0    1  4.4  0.00  0.00
 24 MAY   45 End Juveni   324   0.54   9.6   13  3.9  0.00  0.00
 28 MAY   49 Floral Ini   402   0.66  10.1   15  3.7  0.00  0.01
  Crop failure growth program terminated 
 10 JUL   92 Harvest      911   0.00  13.9   29  3.2  0.00  0.02


*MAIN GROWTH AND DEVELOPMENT VARIABLES

@     VARIABLE                          SIMULATED     MEASURED
      --------                          ---------     --------
      Anthesis day (dap)                      -99          -99
      Physiological maturity day (dap)         92          -99
      Yield at harvest maturity (kg [dm]/       0          -99
      Number at maturity (no/m2)                0          -99
      Unit wt at maturity (g [dm]/unit)    0.0000          -99
      Number at maturity (no/unit)            0.0          -99
      Tops weight at maturity (kg [dm]/ha     911          -99
      By-product produced (stalk) at matu     915          -99
      Leaf area index, maximum               0.80          -99
      Harvest index at maturity             0.000          -99
      Grain N at maturity (kg/ha)               0          -99
      Tops N at maturity (kg/ha)               29          -99
      Stem N at maturity (kg/ha)               29          -99
      Grain N at maturity (%)                 0.0          -99
      Tops weight at anthesis (kg [dm]/ha       0          -99
      Tops N at anthesis (kg/ha)                0          -99
      Leaf number per stem at maturity      13.91          -99


*ENVIRONMENTAL AND STRESS FACTORS

 |-----Development Phase------|-------------Environment--------------|---------Stress----------|
                              |--------Average-------|---Cumulative--|  (0=Min, 1=Max Stress)  |
                         Time  Temp  Temp Solar Photop         Evapo |----Water---|--Nitrogen--|
                         Span   Max   Min   Rad  [day]   Rain  Trans  Photo         Photo
                         days    øC    øC MJ/m2     hr     mm     mm  synth Growth  synth Growth
------------------------------------------------------------------------------------------------
 Emergence-End Juvenile    38  20.8   9.3  11.3  10.59   92.9   57.4  0.000  0.000  0.002  0.001
 End Juvenil-Floral Init    4  18.2   7.5   9.3  10.06   13.2    6.2  0.000  0.000  0.000  0.000
 Floral Init-End Lf Grow   43  16.1   4.6   9.4   9.86  259.1   57.7  0.000  0.000  0.054  0.022
 End Lf Grth-Beg Grn Fil    0   0.0   0.0   0.0   0.00    0.0    0.0  0.000  0.000  0.000  0.000
 Grain Filling Phase        0   0.0   0.0   0.0   0.00    0.0    0.0  0.000  0.000  0.000  0.000

                     Maize YIELD :        0 kg/ha    [Dry weight] 

************************************************************************************************

*DSSAT Cropping System Model Ver. 4.0.2.000               Aug 01, 2016; 15:44:49
                                                                                
*RUN   3        : UYMZ                                                          
 MODEL          : MZCER040 - MAIZE                                              
 EXPERIMENT     : UYMZ0105 SN late to create DSS                                
 TREATMENT  1   : UYMZ                                                          
                                                                                
 CROP           : MAIZE          CULTIVAR : CMEDIO UY        ECOTYPE :IB0001    
 STARTING DATE  : APR  7 1975                                                   
 PLANTING DATE  : APR 10 1975    PLANTS/m2 :  7.0     ROW SPACING :  15.cm      
 WEATHER        : UYTT   1975                                                   
 SOIL           : UYSS0N2002     TEXTURE :       -  N20-02    SNIA CLAY RISS    
 SOIL INITIAL C : DEPTH:125cm EXTR. H2O:186.3mm  NO3: 74.8kg/ha  NH4: 23.9kg/ha 
 WATER BALANCE  : AUTOMATIC IRRIGATION - REFILL PROFILE                         
 IRRIGATION     : AUTOMATIC - PLANTING -> MATURITY [ SOIL DEPTH:30.00m 50.%]    
 NITROGEN BAL.  : SOIL-N & N-UPTAKE SIMULATION; NO N-FIXATION                   
 N-FERTILIZER   :       20 kg/ha IN     3 APPLICATIONS                          
 RESIDUE/MANURE : INITIAL :     0 kg/ha ;       0 kg/ha IN     0 APPLICATIONS   
 ENVIRONM. OPT. : DAYL=    0.00  SRAD=    0.00  TMAX=    0.00  TMIN=    0.00    
                  RAIN=    0.00  CO2 = R330.00  DEW =    0.00  WIND=    0.00    
 SIMULATION OPT : WATER   :Y  NITROGEN:Y  N-FIX:N  PHOSPH :N  PESTS  :N         
                  PHOTO   :C  ET      :R  INFIL:S  HYDROL :R  SOM    :G         
 MANAGEMENT OPT : PLANTING:R  IRRIG   :A  FERT :D  RESIDUE:N  HARVEST:M  WTH:M  
                                                                                
*SUMMARY OF SOIL AND GENETIC INPUT PARAMETERS                                   
                                                                                
   SOIL LOWER UPPER   SAT  EXTR  INIT   ROOT   BULK     pH    NO3    NH4    ORG 
  DEPTH LIMIT LIMIT    SW    SW    SW   DIST   DENS                          C  
   cm   cm3/cm3    cm3/cm3    cm3/cm3         g/cm3         ugN/g  ugN/g     %  
------------------------------------------------------------------------------- 
  0-  5 0.331 0.542 0.585 0.211 0.394   1.00   1.11   6.50  15.00   1.50   2.74 
  5- 15 0.331 0.542 0.585 0.211 0.394   1.00   1.11   6.50  15.00   1.50   2.74 
 15- 30 0.331 0.542 0.585 0.211 0.394   1.00   1.11   6.50  15.00   1.50   2.74 
 30- 45 0.290 0.438 0.491 0.148 0.334   0.43   1.26   6.50   8.50   1.50   1.07 
 45- 60 0.292 0.431 0.480 0.138 0.375   0.39   1.29   6.27   4.53   1.50   0.90 
 60- 90 0.293 0.419 0.466 0.126 0.419   0.32   1.34   6.00   0.00   1.50   0.64 
 90-108 0.286 0.408 0.460 0.122 0.408   0.23   1.36   6.00   0.00   1.50   0.35 
108-125 0.276 0.395 0.456 0.119 0.395   0.12   1.38   6.00   0.00   1.50   0.14 
                                                                                
TOT-125  37.3  55.9  62.1  18.6  49.1  <--cm   -  kg/ha-->   74.8   23.9 166127 
SOIL ALBEDO    : 0.09      EVAPORATION LIMIT : 6.00         MIN. FACTOR  : 1.00 
RUNOFF CURVE # :10.00      DRAINAGE RATE     : 0.40         FERT. FACTOR : 1.00 
                                                                                
 MAIZE      CULTIVAR :UY0370-CMEDIO UY          ECOTYPE :IB0001                 
 P1     : 280.00  P2     : 0.0000  P5     : 750.00                              
 G2     : 800.00  G3     :  7.500  PHINT  : 38.900                              
                                                                                
                                                                                
                                                                                
*SIMULATED CROP AND SOIL STATUS AT MAIN DEVELOPMENT STAGES

 RUN NO.     3     UYMZ                    

        CROP GROWTH   BIOMASS         LEAF   CROP N     STRESS  
   DATE  AGE STAGE      kg/ha    LAI   NUM  kg/ha  %   H2O    N 
 ------  --- ---------- -----  -----  ----  ---  ---  ----  ----
  7 APR    0 Start Sim      0   0.00   0.0    0  0.0  0.00  0.00
 10 APR    0 Sowing         0   0.00   0.0    0  0.0  0.00  0.00
 11 APR    1 Germinate      0   0.00   0.0    0  0.0  0.00  0.00
 17 APR    7 Emergence     28   0.00   1.9    1  4.4  0.00  0.00
 25 MAY   45 End Juveni   308   0.22   9.7   12  3.9  0.00  0.00
 29 MAY   49 Floral Ini   345   0.25  10.1   13  3.7  0.00  0.01
 12 SEP  155 75% Silkin  2375   0.07  21.3   55  2.3  0.00  0.02
  2 OCT  175 Beg Gr Fil  2173   0.07  21.3   55  2.5  0.00  0.02
 20 NOV  224 End Gr Fil  3203   0.06  21.3   55  1.7  0.00  0.00
 24 NOV  228 Maturity    3203   0.06  21.3   55  1.7  0.00  0.00
 24 NOV  228 Harvest     3203   0.06  21.3   55  1.7  0.00  0.00


*MAIN GROWTH AND DEVELOPMENT VARIABLES

@     VARIABLE                          SIMULATED     MEASURED
      --------                          ---------     --------
      Anthesis day (dap)                      155          -99
      Physiological maturity day (dap)        228          -99
      Yield at harvest maturity (kg [dm]/    1008          -99
      Number at maturity (no/m2)              396          -99
      Unit wt at maturity (g [dm]/unit)    0.2544          -99
      Number at maturity (no/unit)           68.2          -99
      Tops weight at maturity (kg [dm]/ha    3203          -99
      By-product produced (stalk) at matu    2232          -99
      Leaf area index, maximum               0.60          -99
      Harvest index at maturity             0.315          -99
      Grain N at maturity (kg/ha)              17          -99
      Tops N at maturity (kg/ha)               55          -99
      Stem N at maturity (kg/ha)               34          -99
      Grain N at maturity (%)                 1.7          -99
      Tops weight at anthesis (kg [dm]/ha    2383          -99
      Tops N at anthesis (kg/ha)               55          -99
      Leaf number per stem at maturity      21.31          -99


*ENVIRONMENTAL AND STRESS FACTORS

 |-----Development Phase------|-------------Environment--------------|---------Stress----------|
                              |--------Average-------|---Cumulative--|  (0=Min, 1=Max Stress)  |
                         Time  Temp  Temp Solar Photop         Evapo |----Water---|--Nitrogen--|
                         Span   Max   Min   Rad  [day]   Rain  Trans  Photo         Photo
                         days    øC    øC MJ/m2     hr     mm     mm  synth Growth  synth Growth
------------------------------------------------------------------------------------------------
 Emergence-End Juvenile    38  21.4   9.0  11.5  10.59   86.6   57.2  0.000  0.000  0.002  0.001
 End Juvenil-Floral Init    4  16.8   7.5   6.8  10.06   34.2    4.7  0.000  0.000  0.001  0.000
 Floral Init-End Lf Grow  106  17.4   6.9   9.2  10.34  640.5  152.9  0.000  0.000  0.054  0.022
 End Lf Grth-Beg Grn Fil   20  21.3  11.1  14.2  11.99   89.2   45.1  0.000  0.000  0.054  0.022
 Grain Filling Phase       49  24.5  13.2  18.9  13.14  187.1   86.6  0.000  0.000  0.000  0.000

                     Maize YIELD :     1008 kg/ha    [Dry weight] 

************************************************************************************************

*DSSAT Cropping System Model Ver. 4.0.2.000               Aug 01, 2016; 15:44:49
                                                                                
*RUN   4        : UYMZ                                                          
 MODEL          : MZCER040 - MAIZE                                              
 EXPERIMENT     : UYMZ0105 SN late to create DSS                                
 TREATMENT  1   : UYMZ                                                          
                                                                                
 CROP           : MAIZE          CULTIVAR : CMEDIO UY        ECOTYPE :IB0001    
 STARTING DATE  : APR  7 1975                                                   
 PLANTING DATE  : APR 10 1975    PLANTS/m2 :  7.0     ROW SPACING :  15.cm      
 WEATHER        : UYTT   1975                                                   
 SOIL           : UYSS0N2002     TEXTURE :       -  N20-02    SNIA CLAY RISS    
 SOIL INITIAL C : DEPTH:125cm EXTR. H2O:186.3mm  NO3: 74.8kg/ha  NH4: 23.9kg/ha 
 WATER BALANCE  : AUTOMATIC IRRIGATION - REFILL PROFILE                         
 IRRIGATION     : AUTOMATIC - PLANTING -> MATURITY [ SOIL DEPTH:30.00m 50.%]    
 NITROGEN BAL.  : SOIL-N & N-UPTAKE SIMULATION; NO N-FIXATION                   
 N-FERTILIZER   :       20 kg/ha IN     3 APPLICATIONS                          
 RESIDUE/MANURE : INITIAL :     0 kg/ha ;       0 kg/ha IN     0 APPLICATIONS   
 ENVIRONM. OPT. : DAYL=    0.00  SRAD=    0.00  TMAX=    0.00  TMIN=    0.00    
                  RAIN=    0.00  CO2 = R330.00  DEW =    0.00  WIND=    0.00    
 SIMULATION OPT : WATER   :Y  NITROGEN:Y  N-FIX:N  PHOSPH :N  PESTS  :N         
                  PHOTO   :C  ET      :R  INFIL:S  HYDROL :R  SOM    :G         
 MANAGEMENT OPT : PLANTING:R  IRRIG   :A  FERT :D  RESIDUE:N  HARVEST:M  WTH:M  
                                                                                
*SUMMARY OF SOIL AND GENETIC INPUT PARAMETERS                                   
                                                                                
   SOIL LOWER UPPER   SAT  EXTR  INIT   ROOT   BULK     pH    NO3    NH4    ORG 
  DEPTH LIMIT LIMIT    SW    SW    SW   DIST   DENS                          C  
   cm   cm3/cm3    cm3/cm3    cm3/cm3         g/cm3         ugN/g  ugN/g     %  
------------------------------------------------------------------------------- 
  0-  5 0.331 0.542 0.585 0.211 0.394   1.00   1.11   6.50  15.00   1.50   2.74 
  5- 15 0.331 0.542 0.585 0.211 0.394   1.00   1.11   6.50  15.00   1.50   2.74 
 15- 30 0.331 0.542 0.585 0.211 0.394   1.00   1.11   6.50  15.00   1.50   2.74 
 30- 45 0.290 0.438 0.491 0.148 0.334   0.43   1.26   6.50   8.50   1.50   1.07 
 45- 60 0.292 0.431 0.480 0.138 0.375   0.39   1.29   6.27   4.53   1.50   0.90 
 60- 90 0.293 0.419 0.466 0.126 0.419   0.32   1.34   6.00   0.00   1.50   0.64 
 90-108 0.286 0.408 0.460 0.122 0.408   0.23   1.36   6.00   0.00   1.50   0.35 
108-125 0.276 0.395 0.456 0.119 0.395   0.12   1.38   6.00   0.00   1.50   0.14 
                                                                                
TOT-125  37.3  55.9  62.1  18.6  49.1  <--cm   -  kg/ha-->   74.8   23.9 166127 
SOIL ALBEDO    : 0.09      EVAPORATION LIMIT : 6.00         MIN. FACTOR  : 1.00 
RUNOFF CURVE # :10.00      DRAINAGE RATE     : 0.40         FERT. FACTOR : 1.00 
                                                                                
 MAIZE      CULTIVAR :UY0370-CMEDIO UY          ECOTYPE :IB0001                 
 P1     : 280.00  P2     : 0.0000  P5     : 750.00                              
 G2     : 800.00  G3     :  7.500  PHINT  : 38.900                              
                                                                                
                                                                                
                                                                                
*SIMULATED CROP AND SOIL STATUS AT MAIN DEVELOPMENT STAGES

 RUN NO.     4     UYMZ                    

        CROP GROWTH   BIOMASS         LEAF   CROP N     STRESS  
   DATE  AGE STAGE      kg/ha    LAI   NUM  kg/ha  %   H2O    N 
 ------  --- ---------- -----  -----  ----  ---  ---  ----  ----
  7 APR    0 Start Sim      0   0.00   0.0    0  0.0  0.00  0.00
 10 APR    0 Sowing         0   0.00   0.0    0  0.0  0.00  0.00
 11 APR    1 Germinate      0   0.00   0.0    0  0.0  0.00  0.00
 17 APR    7 Emergence     28   0.00   2.0    1  4.4  0.00  0.00
  Crop failure growth program terminated 
 12 JUN   63 End Juveni   307   0.00   9.7   12  4.0  0.00  0.00
 12 JUN   63 Harvest      307   0.00   9.7   12  4.0  0.00  0.00


*MAIN GROWTH AND DEVELOPMENT VARIABLES

@     VARIABLE                          SIMULATED     MEASURED
      --------                          ---------     --------
      Anthesis day (dap)                      -99          -99
      Physiological maturity day (dap)         63          -99
      Yield at harvest maturity (kg [dm]/       0          -99
      Number at maturity (no/m2)                0          -99
      Unit wt at maturity (g [dm]/unit)    0.0000          -99
      Number at maturity (no/unit)            0.0          -99
      Tops weight at maturity (kg [dm]/ha     307          -99
      By-product produced (stalk) at matu     310          -99
      Leaf area index, maximum               0.43          -99
      Harvest index at maturity             0.000          -99
      Grain N at maturity (kg/ha)               0          -99
      Tops N at maturity (kg/ha)               12          -99
      Stem N at maturity (kg/ha)               12          -99
      Grain N at maturity (%)                 0.0          -99
      Tops weight at anthesis (kg [dm]/ha       0          -99
      Tops N at anthesis (kg/ha)                0          -99
      Leaf number per stem at maturity       9.65          -99


*ENVIRONMENTAL AND STRESS FACTORS

 |-----Development Phase------|-------------Environment--------------|---------Stress----------|
                              |--------Average-------|---Cumulative--|  (0=Min, 1=Max Stress)  |
                         Time  Temp  Temp Solar Photop         Evapo |----Water---|--Nitrogen--|
                         Span   Max   Min   Rad  [day]   Rain  Trans  Photo         Photo
                         days    øC    øC MJ/m2     hr     mm     mm  synth Growth  synth Growth
------------------------------------------------------------------------------------------------
 Emergence-End Juvenile    56  19.0   5.9  11.3  10.38   91.3   59.7  0.000  0.000  0.002  0.001
 End Juvenil-Floral Init    0   0.0   0.0   0.0   0.00    0.0    0.0  0.000  0.000  0.000  0.000
 Floral Init-End Lf Grow    0   0.0   0.0   0.0   0.00    0.0    0.0  0.000  0.000  0.000  0.000
 End Lf Grth-Beg Grn Fil    0   0.0   0.0   0.0   0.00    0.0    0.0  0.000  0.000  0.000  0.000
 Grain Filling Phase        0   0.0   0.0   0.0   0.00    0.0    0.0  0.000  0.000  0.000  0.000

                     Maize YIELD :        0 kg/ha    [Dry weight] 

************************************************************************************************

*DSSAT Cropping System Model Ver. 4.0.2.000               Aug 01, 2016; 15:44:49
                                                                                
*RUN   5        : UYMZ                                                          
 MODEL          : MZCER040 - MAIZE                                              
 EXPERIMENT     : UYMZ0105 SN late to create DSS                                
 TREATMENT  1   : UYMZ                                                          
                                                                                
 CROP           : MAIZE          CULTIVAR : CMEDIO UY        ECOTYPE :IB0001    
 STARTING DATE  : APR  7 1975                                                   
 PLANTING DATE  : APR 10 1975    PLANTS/m2 :  7.0     ROW SPACING :  15.cm      
 WEATHER        : UYTT   1975                                                   
 SOIL           : UYSS0N2002     TEXTURE :       -  N20-02    SNIA CLAY RISS    
 SOIL INITIAL C : DEPTH:125cm EXTR. H2O:186.3mm  NO3: 74.8kg/ha  NH4: 23.9kg/ha 
 WATER BALANCE  : AUTOMATIC IRRIGATION - REFILL PROFILE                         
 IRRIGATION     : AUTOMATIC - PLANTING -> MATURITY [ SOIL DEPTH:30.00m 50.%]    
 NITROGEN BAL.  : SOIL-N & N-UPTAKE SIMULATION; NO N-FIXATION                   
 N-FERTILIZER   :       20 kg/ha IN     3 APPLICATIONS                          
 RESIDUE/MANURE : INITIAL :     0 kg/ha ;       0 kg/ha IN     0 APPLICATIONS   
 ENVIRONM. OPT. : DAYL=    0.00  SRAD=    0.00  TMAX=    0.00  TMIN=    0.00    
                  RAIN=    0.00  CO2 = R330.00  DEW =    0.00  WIND=    0.00    
 SIMULATION OPT : WATER   :Y  NITROGEN:Y  N-FIX:N  PHOSPH :N  PESTS  :N         
                  PHOTO   :C  ET      :R  INFIL:S  HYDROL :R  SOM    :G         
 MANAGEMENT OPT : PLANTING:R  IRRIG   :A  FERT :D  RESIDUE:N  HARVEST:M  WTH:M  
                                                                                
*SUMMARY OF SOIL AND GENETIC INPUT PARAMETERS                                   
                                                                                
   SOIL LOWER UPPER   SAT  EXTR  INIT   ROOT   BULK     pH    NO3    NH4    ORG 
  DEPTH LIMIT LIMIT    SW    SW    SW   DIST   DENS                          C  
   cm   cm3/cm3    cm3/cm3    cm3/cm3         g/cm3         ugN/g  ugN/g     %  
------------------------------------------------------------------------------- 
  0-  5 0.331 0.542 0.585 0.211 0.394   1.00   1.11   6.50  15.00   1.50   2.74 
  5- 15 0.331 0.542 0.585 0.211 0.394   1.00   1.11   6.50  15.00   1.50   2.74 
 15- 30 0.331 0.542 0.585 0.211 0.394   1.00   1.11   6.50  15.00   1.50   2.74 
 30- 45 0.290 0.438 0.491 0.148 0.334   0.43   1.26   6.50   8.50   1.50   1.07 
 45- 60 0.292 0.431 0.480 0.138 0.375   0.39   1.29   6.27   4.53   1.50   0.90 
 60- 90 0.293 0.419 0.466 0.126 0.419   0.32   1.34   6.00   0.00   1.50   0.64 
 90-108 0.286 0.408 0.460 0.122 0.408   0.23   1.36   6.00   0.00   1.50   0.35 
108-125 0.276 0.395 0.456 0.119 0.395   0.12   1.38   6.00   0.00   1.50   0.14 
                                                                                
TOT-125  37.3  55.9  62.1  18.6  49.1  <--cm   -  kg/ha-->   74.8   23.9 166127 
SOIL ALBEDO    : 0.09      EVAPORATION LIMIT : 6.00         MIN. FACTOR  : 1.00 
RUNOFF CURVE # :10.00      DRAINAGE RATE     : 0.40         FERT. FACTOR : 1.00 
                                                                                
 MAIZE      CULTIVAR :UY0370-CMEDIO UY          ECOTYPE :IB0001                 
 P1     : 280.00  P2     : 0.0000  P5     : 750.00                              
 G2     : 800.00  G3     :  7.500  PHINT  : 38.900                              
                                                                                
                                                                                
                                                                                
*SIMULATED CROP AND SOIL STATUS AT MAIN DEVELOPMENT STAGES

 RUN NO.     5     UYMZ                    

        CROP GROWTH   BIOMASS         LEAF   CROP N     STRESS  
   DATE  AGE STAGE      kg/ha    LAI   NUM  kg/ha  %   H2O    N 
 ------  --- ---------- -----  -----  ----  ---  ---  ----  ----
  7 APR    0 Start Sim      0   0.00   0.0    0  0.0  0.00  0.00
 10 APR    0 Sowing         0   0.00   0.0    0  0.0  0.00  0.00
 11 APR    1 Germinate      0   0.00   0.0    0  0.0  0.00  0.00
 17 APR    7 Emergence     28   0.00   1.9    1  4.4  0.00  0.00
 24 MAY   44 End Juveni   339   0.56   9.7   14  4.0  0.00  0.00
 28 MAY   48 Floral Ini   409   0.65  10.2   15  3.7  0.00  0.01
  Crop failure growth program terminated 
  8 JUN   59 Harvest      509   0.00  10.9   18  3.5  0.00  0.02


*MAIN GROWTH AND DEVELOPMENT VARIABLES

@     VARIABLE                          SIMULATED     MEASURED
      --------                          ---------     --------
      Anthesis day (dap)                      -99          -99
      Physiological maturity day (dap)         59          -99
      Yield at harvest maturity (kg [dm]/       0          -99
      Number at maturity (no/m2)                0          -99
      Unit wt at maturity (g [dm]/unit)    0.0000          -99
      Number at maturity (no/unit)            0.0          -99
      Tops weight at maturity (kg [dm]/ha     509          -99
      By-product produced (stalk) at matu     513          -99
      Leaf area index, maximum               0.65          -99
      Harvest index at maturity             0.000          -99
      Grain N at maturity (kg/ha)               0          -99
      Tops N at maturity (kg/ha)               18          -99
      Stem N at maturity (kg/ha)               18          -99
      Grain N at maturity (%)                 0.0          -99
      Tops weight at anthesis (kg [dm]/ha       0          -99
      Tops N at anthesis (kg/ha)                0          -99
      Leaf number per stem at maturity      10.88          -99


*ENVIRONMENTAL AND STRESS FACTORS

 |-----Development Phase------|-------------Environment--------------|---------Stress----------|
                              |--------Average-------|---Cumulative--|  (0=Min, 1=Max Stress)  |
                         Time  Temp  Temp Solar Photop         Evapo |----Water---|--Nitrogen--|
                         Span   Max   Min   Rad  [day]   Rain  Trans  Photo         Photo
                         days    øC    øC MJ/m2     hr     mm     mm  synth Growth  synth Growth
------------------------------------------------------------------------------------------------
 Emergence-End Juvenile    37  22.9   8.2  10.9  10.60   34.3   45.8  0.000  0.000  0.002  0.001
 End Juvenil-Floral Init    4  17.8   5.6  11.2  10.08    1.5    8.4  0.000  0.000  0.000  0.000
 Floral Init-End Lf Grow   11  16.5   2.5  10.4   9.96    4.4   13.9  0.000  0.000  0.054  0.022
 End Lf Grth-Beg Grn Fil    0   0.0   0.0   0.0   0.00    0.0    0.0  0.000  0.000  0.000  0.000
 Grain Filling Phase        0   0.0   0.0   0.0   0.00    0.0    0.0  0.000  0.000  0.000  0.000

                     Maize YIELD :        0 kg/ha    [Dry weight] 

************************************************************************************************

*DSSAT Cropping System Model Ver. 4.0.2.000               Aug 01, 2016; 15:44:49
                                                                                
*RUN   6        : UYMZ                                                          
 MODEL          : MZCER040 - MAIZE                                              
 EXPERIMENT     : UYMZ0105 SN late to create DSS                                
 TREATMENT  1   : UYMZ                                                          
                                                                                
 CROP           : MAIZE          CULTIVAR : CMEDIO UY        ECOTYPE :IB0001    
 STARTING DATE  : APR  7 1975                                                   
 PLANTING DATE  : APR 10 1975    PLANTS/m2 :  7.0     ROW SPACING :  15.cm      
 WEATHER        : UYTT   1975                                                   
 SOIL           : UYSS0N2002     TEXTURE :       -  N20-02    SNIA CLAY RISS    
 SOIL INITIAL C : DEPTH:125cm EXTR. H2O:186.3mm  NO3: 74.8kg/ha  NH4: 23.9kg/ha 
 WATER BALANCE  : AUTOMATIC IRRIGATION - REFILL PROFILE                         
 IRRIGATION     : AUTOMATIC - PLANTING -> MATURITY [ SOIL DEPTH:30.00m 50.%]    
 NITROGEN BAL.  : SOIL-N & N-UPTAKE SIMULATION; NO N-FIXATION                   
 N-FERTILIZER   :       20 kg/ha IN     3 APPLICATIONS                          
 RESIDUE/MANURE : INITIAL :     0 kg/ha ;       0 kg/ha IN     0 APPLICATIONS   
 ENVIRONM. OPT. : DAYL=    0.00  SRAD=    0.00  TMAX=    0.00  TMIN=    0.00    
                  RAIN=    0.00  CO2 = R330.00  DEW =    0.00  WIND=    0.00    
 SIMULATION OPT : WATER   :Y  NITROGEN:Y  N-FIX:N  PHOSPH :N  PESTS  :N         
                  PHOTO   :C  ET      :R  INFIL:S  HYDROL :R  SOM    :G         
 MANAGEMENT OPT : PLANTING:R  IRRIG   :A  FERT :D  RESIDUE:N  HARVEST:M  WTH:M  
                                                                                
*SUMMARY OF SOIL AND GENETIC INPUT PARAMETERS                                   
                                                                                
   SOIL LOWER UPPER   SAT  EXTR  INIT   ROOT   BULK     pH    NO3    NH4    ORG 
  DEPTH LIMIT LIMIT    SW    SW    SW   DIST   DENS                          C  
   cm   cm3/cm3    cm3/cm3    cm3/cm3         g/cm3         ugN/g  ugN/g     %  
------------------------------------------------------------------------------- 
  0-  5 0.331 0.542 0.585 0.211 0.394   1.00   1.11   6.50  15.00   1.50   2.74 
  5- 15 0.331 0.542 0.585 0.211 0.394   1.00   1.11   6.50  15.00   1.50   2.74 
 15- 30 0.331 0.542 0.585 0.211 0.394   1.00   1.11   6.50  15.00   1.50   2.74 
 30- 45 0.290 0.438 0.491 0.148 0.334   0.43   1.26   6.50   8.50   1.50   1.07 
 45- 60 0.292 0.431 0.480 0.138 0.375   0.39   1.29   6.27   4.53   1.50   0.90 
 60- 90 0.293 0.419 0.466 0.126 0.419   0.32   1.34   6.00   0.00   1.50   0.64 
 90-108 0.286 0.408 0.460 0.122 0.408   0.23   1.36   6.00   0.00   1.50   0.35 
108-125 0.276 0.395 0.456 0.119 0.395   0.12   1.38   6.00   0.00   1.50   0.14 
                                                                                
TOT-125  37.3  55.9  62.1  18.6  49.1  <--cm   -  kg/ha-->   74.8   23.9 166127 
SOIL ALBEDO    : 0.09      EVAPORATION LIMIT : 6.00         MIN. FACTOR  : 1.00 
RUNOFF CURVE # :10.00      DRAINAGE RATE     : 0.40         FERT. FACTOR : 1.00 
                                                                                
 MAIZE      CULTIVAR :UY0370-CMEDIO UY          ECOTYPE :IB0001                 
 P1     : 280.00  P2     : 0.0000  P5     : 750.00                              
 G2     : 800.00  G3     :  7.500  PHINT  : 38.900                              
                                                                                
                                                                                
                                                                                
*SIMULATED CROP AND SOIL STATUS AT MAIN DEVELOPMENT STAGES

 RUN NO.     6     UYMZ                    

        CROP GROWTH   BIOMASS         LEAF   CROP N     STRESS  
   DATE  AGE STAGE      kg/ha    LAI   NUM  kg/ha  %   H2O    N 
 ------  --- ---------- -----  -----  ----  ---  ---  ----  ----
  6 APR    0 Start Sim      0   0.00   0.0    0  0.0  0.00  0.00
  9 APR    0 Sowing         0   0.00   0.0    0  0.0  0.00  0.00
 10 APR    1 Germinate      0   0.00   0.0    0  0.0  0.00  0.00
 18 APR    9 Emergence     28   0.00   1.9    1  4.4  0.00  0.00
 13 MAY   34 End Juveni   376   0.67   9.9   13  3.5  0.00  0.00
 17 MAY   38 Floral Ini   520   0.84  10.8   19  3.7  0.00  0.01
  Crop failure growth program terminated 
 14 AUG  127 Harvest     2064   0.00  21.2   61  2.9  0.00  0.02


*MAIN GROWTH AND DEVELOPMENT VARIABLES

@     VARIABLE                          SIMULATED     MEASURED
      --------                          ---------     --------
      Anthesis day (dap)                      -99          -99
      Physiological maturity day (dap)        127          -99
      Yield at harvest maturity (kg [dm]/       0          -99
      Number at maturity (no/m2)                0          -99
      Unit wt at maturity (g [dm]/unit)    0.0000          -99
      Number at maturity (no/unit)            0.0          -99
      Tops weight at maturity (kg [dm]/ha    2064          -99
      By-product produced (stalk) at matu    2069          -99
      Leaf area index, maximum               1.81          -99
      Harvest index at maturity             0.000          -99
      Grain N at maturity (kg/ha)               0          -99
      Tops N at maturity (kg/ha)               61          -99
      Stem N at maturity (kg/ha)               61          -99
      Grain N at maturity (%)                 0.0          -99
      Tops weight at anthesis (kg [dm]/ha       0          -99
      Tops N at anthesis (kg/ha)                0          -99
      Leaf number per stem at maturity      21.21          -99


*ENVIRONMENTAL AND STRESS FACTORS

 |-----Development Phase------|-------------Environment--------------|---------Stress----------|
                              |--------Average-------|---Cumulative--|  (0=Min, 1=Max Stress)  |
                         Time  Temp  Temp Solar Photop         Evapo |----Water---|--Nitrogen--|
                         Span   Max   Min   Rad  [day]   Rain  Trans  Photo         Photo
                         days    øC    øC MJ/m2     hr     mm     mm  synth Growth  synth Growth
------------------------------------------------------------------------------------------------
 Emergence-End Juvenile    25  23.8  13.5  10.9  10.71   63.1   40.9  0.000  0.000  0.003  0.001
 End Juvenil-Floral Init    4  28.2  15.2  11.5  10.30    0.0    6.0  0.000  0.000  0.001  0.001
 Floral Init-End Lf Grow   89  16.9   6.1   8.4  10.05  501.3  123.6  0.000  0.000  0.054  0.022
 End Lf Grth-Beg Grn Fil    0   0.0   0.0   0.0   0.00    0.0    0.0  0.000  0.000  0.000  0.000
 Grain Filling Phase        0   0.0   0.0   0.0   0.00    0.0    0.0  0.000  0.000  0.000  0.000

                     Maize YIELD :        0 kg/ha    [Dry weight] 

************************************************************************************************

*DSSAT Cropping System Model Ver. 4.0.2.000               Aug 01, 2016; 15:44:49
                                                                                
*RUN   7        : UYMZ                                                          
 MODEL          : MZCER040 - MAIZE                                              
 EXPERIMENT     : UYMZ0105 SN late to create DSS                                
 TREATMENT  1   : UYMZ                                                          
                                                                                
 CROP           : MAIZE          CULTIVAR : CMEDIO UY        ECOTYPE :IB0001    
 STARTING DATE  : APR  7 1975                                                   
 PLANTING DATE  : APR 10 1975    PLANTS/m2 :  7.0     ROW SPACING :  15.cm      
 WEATHER        : UYTT   1975                                                   
 SOIL           : UYSS0N2002     TEXTURE :       -  N20-02    SNIA CLAY RISS    
 SOIL INITIAL C : DEPTH:125cm EXTR. H2O:186.3mm  NO3: 74.8kg/ha  NH4: 23.9kg/ha 
 WATER BALANCE  : AUTOMATIC IRRIGATION - REFILL PROFILE                         
 IRRIGATION     : AUTOMATIC - PLANTING -> MATURITY [ SOIL DEPTH:30.00m 50.%]    
 NITROGEN BAL.  : SOIL-N & N-UPTAKE SIMULATION; NO N-FIXATION                   
 N-FERTILIZER   :       20 kg/ha IN     3 APPLICATIONS                          
 RESIDUE/MANURE : INITIAL :     0 kg/ha ;       0 kg/ha IN     0 APPLICATIONS   
 ENVIRONM. OPT. : DAYL=    0.00  SRAD=    0.00  TMAX=    0.00  TMIN=    0.00    
                  RAIN=    0.00  CO2 = R330.00  DEW =    0.00  WIND=    0.00    
 SIMULATION OPT : WATER   :Y  NITROGEN:Y  N-FIX:N  PHOSPH :N  PESTS  :N         
                  PHOTO   :C  ET      :R  INFIL:S  HYDROL :R  SOM    :G         
 MANAGEMENT OPT : PLANTING:R  IRRIG   :A  FERT :D  RESIDUE:N  HARVEST:M  WTH:M  
                                                                                
*SUMMARY OF SOIL AND GENETIC INPUT PARAMETERS                                   
                                                                                
   SOIL LOWER UPPER   SAT  EXTR  INIT   ROOT   BULK     pH    NO3    NH4    ORG 
  DEPTH LIMIT LIMIT    SW    SW    SW   DIST   DENS                          C  
   cm   cm3/cm3    cm3/cm3    cm3/cm3         g/cm3         ugN/g  ugN/g     %  
------------------------------------------------------------------------------- 
  0-  5 0.331 0.542 0.585 0.211 0.394   1.00   1.11   6.50  15.00   1.50   2.74 
  5- 15 0.331 0.542 0.585 0.211 0.394   1.00   1.11   6.50  15.00   1.50   2.74 
 15- 30 0.331 0.542 0.585 0.211 0.394   1.00   1.11   6.50  15.00   1.50   2.74 
 30- 45 0.290 0.438 0.491 0.148 0.334   0.43   1.26   6.50   8.50   1.50   1.07 
 45- 60 0.292 0.431 0.480 0.138 0.375   0.39   1.29   6.27   4.53   1.50   0.90 
 60- 90 0.293 0.419 0.466 0.126 0.419   0.32   1.34   6.00   0.00   1.50   0.64 
 90-108 0.286 0.408 0.460 0.122 0.408   0.23   1.36   6.00   0.00   1.50   0.35 
108-125 0.276 0.395 0.456 0.119 0.395   0.12   1.38   6.00   0.00   1.50   0.14 
                                                                                
TOT-125  37.3  55.9  62.1  18.6  49.1  <--cm   -  kg/ha-->   74.8   23.9 166127 
SOIL ALBEDO    : 0.09      EVAPORATION LIMIT : 6.00         MIN. FACTOR  : 1.00 
RUNOFF CURVE # :10.00      DRAINAGE RATE     : 0.40         FERT. FACTOR : 1.00 
                                                                                
 MAIZE      CULTIVAR :UY0370-CMEDIO UY          ECOTYPE :IB0001                 
 P1     : 280.00  P2     : 0.0000  P5     : 750.00                              
 G2     : 800.00  G3     :  7.500  PHINT  : 38.900                              
                                                                                
                                                                                
                                                                                
*SIMULATED CROP AND SOIL STATUS AT MAIN DEVELOPMENT STAGES

 RUN NO.     7     UYMZ                    

        CROP GROWTH   BIOMASS         LEAF   CROP N     STRESS  
   DATE  AGE STAGE      kg/ha    LAI   NUM  kg/ha  %   H2O    N 
 ------  --- ---------- -----  -----  ----  ---  ---  ----  ----
  7 APR    0 Start Sim      0   0.00   0.0    0  0.0  0.00  0.00
 10 APR    0 Sowing         0   0.00   0.0    0  0.0  0.00  0.00
 11 APR    1 Germinate      0   0.00   0.0    0  0.0  0.00  0.00
 17 APR    7 Emergence     28   0.00   1.8    1  4.4  0.00  0.00
 14 MAY   34 End Juveni   295   0.56   9.7   11  3.6  0.00  0.00
 18 MAY   38 Floral Ini   424   0.74  10.8   16  3.7  0.00  0.01
 24 AUG  136 75% Silkin  5543   0.81  22.7  124  2.2  0.00  0.02
 26 SEP  169 Beg Gr Fil  6001   0.30  22.7  124  2.1  0.00  0.02
 23 NOV  227 End Gr Fil  7459   0.09  22.7  124  1.7  0.00  0.00
 27 NOV  231 Maturity    7459   0.09  22.7  124  1.7  0.00  0.00
 27 NOV  231 Harvest     7459   0.09  22.7  124  1.7  0.00  0.00


*MAIN GROWTH AND DEVELOPMENT VARIABLES

@     VARIABLE                          SIMULATED     MEASURED
      --------                          ---------     --------
      Anthesis day (dap)                      136          -99
      Physiological maturity day (dap)        231          -99
      Yield at harvest maturity (kg [dm]/    2192          -99
      Number at maturity (no/m2)              905          -99
      Unit wt at maturity (g [dm]/unit)    0.2423          -99
      Number at maturity (no/unit)          129.3          -99
      Tops weight at maturity (kg [dm]/ha    7459          -99
      By-product produced (stalk) at matu    5328          -99
      Leaf area index, maximum               1.78          -99
      Harvest index at maturity             0.294          -99
      Grain N at maturity (kg/ha)              37          -99
      Tops N at maturity (kg/ha)              124          -99
      Stem N at maturity (kg/ha)               86          -99
      Grain N at maturity (%)                 1.7          -99
      Tops weight at anthesis (kg [dm]/ha    5480          -99
      Tops N at anthesis (kg/ha)              122          -99
      Leaf number per stem at maturity      22.69          -99


*ENVIRONMENTAL AND STRESS FACTORS

 |-----Development Phase------|-------------Environment--------------|---------Stress----------|
                              |--------Average-------|---Cumulative--|  (0=Min, 1=Max Stress)  |
                         Time  Temp  Temp Solar Photop         Evapo |----Water---|--Nitrogen--|
                         Span   Max   Min   Rad  [day]   Rain  Trans  Photo         Photo
                         days    øC    øC MJ/m2     hr     mm     mm  synth Growth  synth Growth
------------------------------------------------------------------------------------------------
 Emergence-End Juvenile    27  23.4  12.4  11.1  10.74  116.3   35.4  0.000  0.000  0.003  0.001
 End Juvenil-Floral Init    4  21.2  15.5   8.6  10.30   22.7    8.5  0.000  0.000  0.002  0.001
 Floral Init-End Lf Grow   98  18.3   7.9   9.1  10.13  408.3  166.0  0.000  0.000  0.054  0.022
 End Lf Grth-Beg Grn Fil   33  17.5   7.9  11.4  11.56  203.9   66.9  0.000  0.000  0.054  0.022
 Grain Filling Phase       58  23.3  11.0  18.6  13.08  115.7   99.7  0.000  0.000  0.000  0.000

                     Maize YIELD :     2192 kg/ha    [Dry weight] 

************************************************************************************************

*DSSAT Cropping System Model Ver. 4.0.2.000               Aug 01, 2016; 15:44:49
                                                                                
*RUN   8        : UYMZ                                                          
 MODEL          : MZCER040 - MAIZE                                              
 EXPERIMENT     : UYMZ0105 SN late to create DSS                                
 TREATMENT  1   : UYMZ                                                          
                                                                                
 CROP           : MAIZE          CULTIVAR : CMEDIO UY        ECOTYPE :IB0001    
 STARTING DATE  : APR  7 1975                                                   
 PLANTING DATE  : APR 10 1975    PLANTS/m2 :  7.0     ROW SPACING :  15.cm      
 WEATHER        : UYTT   1975                                                   
 SOIL           : UYSS0N2002     TEXTURE :       -  N20-02    SNIA CLAY RISS    
 SOIL INITIAL C : DEPTH:125cm EXTR. H2O:186.3mm  NO3: 74.8kg/ha  NH4: 23.9kg/ha 
 WATER BALANCE  : AUTOMATIC IRRIGATION - REFILL PROFILE                         
 IRRIGATION     : AUTOMATIC - PLANTING -> MATURITY [ SOIL DEPTH:30.00m 50.%]    
 NITROGEN BAL.  : SOIL-N & N-UPTAKE SIMULATION; NO N-FIXATION                   
 N-FERTILIZER   :       20 kg/ha IN     3 APPLICATIONS                          
 RESIDUE/MANURE : INITIAL :     0 kg/ha ;       0 kg/ha IN     0 APPLICATIONS   
 ENVIRONM. OPT. : DAYL=    0.00  SRAD=    0.00  TMAX=    0.00  TMIN=    0.00    
                  RAIN=    0.00  CO2 = R330.00  DEW =    0.00  WIND=    0.00    
 SIMULATION OPT : WATER   :Y  NITROGEN:Y  N-FIX:N  PHOSPH :N  PESTS  :N         
                  PHOTO   :C  ET      :R  INFIL:S  HYDROL :R  SOM    :G         
 MANAGEMENT OPT : PLANTING:R  IRRIG   :A  FERT :D  RESIDUE:N  HARVEST:M  WTH:M  
                                                                                
*SUMMARY OF SOIL AND GENETIC INPUT PARAMETERS                                   
                                                                                
   SOIL LOWER UPPER   SAT  EXTR  INIT   ROOT   BULK     pH    NO3    NH4    ORG 
  DEPTH LIMIT LIMIT    SW    SW    SW   DIST   DENS                          C  
   cm   cm3/cm3    cm3/cm3    cm3/cm3         g/cm3         ugN/g  ugN/g     %  
------------------------------------------------------------------------------- 
  0-  5 0.331 0.542 0.585 0.211 0.394   1.00   1.11   6.50  15.00   1.50   2.74 
  5- 15 0.331 0.542 0.585 0.211 0.394   1.00   1.11   6.50  15.00   1.50   2.74 
 15- 30 0.331 0.542 0.585 0.211 0.394   1.00   1.11   6.50  15.00   1.50   2.74 
 30- 45 0.290 0.438 0.491 0.148 0.334   0.43   1.26   6.50   8.50   1.50   1.07 
 45- 60 0.292 0.431 0.480 0.138 0.375   0.39   1.29   6.27   4.53   1.50   0.90 
 60- 90 0.293 0.419 0.466 0.126 0.419   0.32   1.34   6.00   0.00   1.50   0.64 
 90-108 0.286 0.408 0.460 0.122 0.408   0.23   1.36   6.00   0.00   1.50   0.35 
108-125 0.276 0.395 0.456 0.119 0.395   0.12   1.38   6.00   0.00   1.50   0.14 
                                                                                
TOT-125  37.3  55.9  62.1  18.6  49.1  <--cm   -  kg/ha-->   74.8   23.9 166127 
SOIL ALBEDO    : 0.09      EVAPORATION LIMIT : 6.00         MIN. FACTOR  : 1.00 
RUNOFF CURVE # :10.00      DRAINAGE RATE     : 0.40         FERT. FACTOR : 1.00 
                                                                                
 MAIZE      CULTIVAR :UY0370-CMEDIO UY          ECOTYPE :IB0001                 
 P1     : 280.00  P2     : 0.0000  P5     : 750.00                              
 G2     : 800.00  G3     :  7.500  PHINT  : 38.900                              
                                                                                
                                                                                
                                                                                
*SIMULATED CROP AND SOIL STATUS AT MAIN DEVELOPMENT STAGES

 RUN NO.     8     UYMZ                    

        CROP GROWTH   BIOMASS         LEAF   CROP N     STRESS  
   DATE  AGE STAGE      kg/ha    LAI   NUM  kg/ha  %   H2O    N 
 ------  --- ---------- -----  -----  ----  ---  ---  ----  ----
  7 APR    0 Start Sim      0   0.00   0.0    0  0.0  0.00  0.00
 10 APR    0 Sowing         0   0.00   0.0    0  0.0  0.00  0.00
 11 APR    1 Germinate      0   0.00   0.0    0  0.0  0.00  0.00
 18 APR    8 Emergence     28   0.00   1.9    1  4.4  0.00  0.00
 17 MAY   37 End Juveni   307   0.53   9.7   12  4.0  0.00  0.00
 21 MAY   41 Floral Ini   378   0.64  10.3   14  3.7  0.00  0.01
  8 SEP  151 75% Silkin  3363   0.31  21.5   75  2.2  0.00  0.02
 28 SEP  171 Beg Gr Fil  3689   0.29  21.5   75  2.0  0.00  0.02
  1 DEC  235 End Gr Fil  5475   0.22  21.5   75  1.4  0.00  0.00
  5 DEC  239 Maturity    5475   0.22  21.5   75  1.4  0.00  0.00
  5 DEC  239 Harvest     5475   0.22  21.5   75  1.4  0.00  0.00


*MAIN GROWTH AND DEVELOPMENT VARIABLES

@     VARIABLE                          SIMULATED     MEASURED
      --------                          ---------     --------
      Anthesis day (dap)                      151          -99
      Physiological maturity day (dap)        239          -99
      Yield at harvest maturity (kg [dm]/    1751          -99
      Number at maturity (no/m2)              743          -99
      Unit wt at maturity (g [dm]/unit)    0.2357          -99
      Number at maturity (no/unit)          109.4          -99
      Tops weight at maturity (kg [dm]/ha    5475          -99
      By-product produced (stalk) at matu    3767          -99
      Leaf area index, maximum               0.92          -99
      Harvest index at maturity             0.320          -99
      Grain N at maturity (kg/ha)              30          -99
      Tops N at maturity (kg/ha)               75          -99
      Stem N at maturity (kg/ha)               45          -99
      Grain N at maturity (%)                 1.7          -99
      Tops weight at anthesis (kg [dm]/ha    3305          -99
      Tops N at anthesis (kg/ha)               74          -99
      Leaf number per stem at maturity      21.50          -99


*ENVIRONMENTAL AND STRESS FACTORS

 |-----Development Phase------|-------------Environment--------------|---------Stress----------|
                              |--------Average-------|---Cumulative--|  (0=Min, 1=Max Stress)  |
                         Time  Temp  Temp Solar Photop         Evapo |----Water---|--Nitrogen--|
                         Span   Max   Min   Rad  [day]   Rain  Trans  Photo         Photo
                         days    øC    øC MJ/m2     hr     mm     mm  synth Growth  synth Growth
------------------------------------------------------------------------------------------------
 Emergence-End Juvenile    29  23.5  10.8  11.4  10.68   61.9   30.7  0.000  0.000  0.002  0.001
 End Juvenil-Floral Init    4  19.5  10.9   8.1  10.23   38.5    8.5  0.000  0.000  0.007  0.003
 Floral Init-End Lf Grow  110  17.0   7.1   9.0  10.28  595.6  168.9  0.000  0.000  0.054  0.022
 End Lf Grth-Beg Grn Fil   20  21.3  12.5  12.6  11.85  114.7   44.8  0.000  0.000  0.054  0.022
 Grain Filling Phase       64  22.7   9.6  20.4  13.22  164.1  150.4  0.000  0.000  0.000  0.000

                     Maize YIELD :     1751 kg/ha    [Dry weight] 

************************************************************************************************

*DSSAT Cropping System Model Ver. 4.0.2.000               Aug 01, 2016; 15:44:49
                                                                                
*RUN   9        : UYMZ                                                          
 MODEL          : MZCER040 - MAIZE                                              
 EXPERIMENT     : UYMZ0105 SN late to create DSS                                
 TREATMENT  1   : UYMZ                                                          
                                                                                
 CROP           : MAIZE          CULTIVAR : CMEDIO UY        ECOTYPE :IB0001    
 STARTING DATE  : APR  7 1975                                                   
 PLANTING DATE  : APR 10 1975    PLANTS/m2 :  7.0     ROW SPACING :  15.cm      
 WEATHER        : UYTT   1975                                                   
 SOIL           : UYSS0N2002     TEXTURE :       -  N20-02    SNIA CLAY RISS    
 SOIL INITIAL C : DEPTH:125cm EXTR. H2O:186.3mm  NO3: 74.8kg/ha  NH4: 23.9kg/ha 
 WATER BALANCE  : AUTOMATIC IRRIGATION - REFILL PROFILE                         
 IRRIGATION     : AUTOMATIC - PLANTING -> MATURITY [ SOIL DEPTH:30.00m 50.%]    
 NITROGEN BAL.  : SOIL-N & N-UPTAKE SIMULATION; NO N-FIXATION                   
 N-FERTILIZER   :       20 kg/ha IN     3 APPLICATIONS                          
 RESIDUE/MANURE : INITIAL :     0 kg/ha ;       0 kg/ha IN     0 APPLICATIONS   
 ENVIRONM. OPT. : DAYL=    0.00  SRAD=    0.00  TMAX=    0.00  TMIN=    0.00    
                  RAIN=    0.00  CO2 = R330.00  DEW =    0.00  WIND=    0.00    
 SIMULATION OPT : WATER   :Y  NITROGEN:Y  N-FIX:N  PHOSPH :N  PESTS  :N         
                  PHOTO   :C  ET      :R  INFIL:S  HYDROL :R  SOM    :G         
 MANAGEMENT OPT : PLANTING:R  IRRIG   :A  FERT :D  RESIDUE:N  HARVEST:M  WTH:M  
                                                                                
*SUMMARY OF SOIL AND GENETIC INPUT PARAMETERS                                   
                                                                                
   SOIL LOWER UPPER   SAT  EXTR  INIT   ROOT   BULK     pH    NO3    NH4    ORG 
  DEPTH LIMIT LIMIT    SW    SW    SW   DIST   DENS                          C  
   cm   cm3/cm3    cm3/cm3    cm3/cm3         g/cm3         ugN/g  ugN/g     %  
------------------------------------------------------------------------------- 
  0-  5 0.331 0.542 0.585 0.211 0.394   1.00   1.11   6.50  15.00   1.50   2.74 
  5- 15 0.331 0.542 0.585 0.211 0.394   1.00   1.11   6.50  15.00   1.50   2.74 
 15- 30 0.331 0.542 0.585 0.211 0.394   1.00   1.11   6.50  15.00   1.50   2.74 
 30- 45 0.290 0.438 0.491 0.148 0.334   0.43   1.26   6.50   8.50   1.50   1.07 
 45- 60 0.292 0.431 0.480 0.138 0.375   0.39   1.29   6.27   4.53   1.50   0.90 
 60- 90 0.293 0.419 0.466 0.126 0.419   0.32   1.34   6.00   0.00   1.50   0.64 
 90-108 0.286 0.408 0.460 0.122 0.408   0.23   1.36   6.00   0.00   1.50   0.35 
108-125 0.276 0.395 0.456 0.119 0.395   0.12   1.38   6.00   0.00   1.50   0.14 
                                                                                
TOT-125  37.3  55.9  62.1  18.6  49.1  <--cm   -  kg/ha-->   74.8   23.9 166127 
SOIL ALBEDO    : 0.09      EVAPORATION LIMIT : 6.00         MIN. FACTOR  : 1.00 
RUNOFF CURVE # :10.00      DRAINAGE RATE     : 0.40         FERT. FACTOR : 1.00 
                                                                                
 MAIZE      CULTIVAR :UY0370-CMEDIO UY          ECOTYPE :IB0001                 
 P1     : 280.00  P2     : 0.0000  P5     : 750.00                              
 G2     : 800.00  G3     :  7.500  PHINT  : 38.900                              
                                                                                
                                                                                
                                                                                
*SIMULATED CROP AND SOIL STATUS AT MAIN DEVELOPMENT STAGES

 RUN NO.     9     UYMZ                    

        CROP GROWTH   BIOMASS         LEAF   CROP N     STRESS  
   DATE  AGE STAGE      kg/ha    LAI   NUM  kg/ha  %   H2O    N 
 ------  --- ---------- -----  -----  ----  ---  ---  ----  ----
  7 APR    0 Start Sim      0   0.00   0.0    0  0.0  0.00  0.00
 10 APR    0 Sowing         0   0.00   0.0    0  0.0  0.00  0.00
 11 APR    1 Germinate      0   0.00   0.0    0  0.0  0.00  0.00
 18 APR    8 Emergence     28   0.00   2.0    1  4.4  0.00  0.00
 29 MAY   49 End Juveni   325   0.48   9.6   13  4.1  0.00  0.00
  2 JUN   53 Floral Ini   352   0.46   9.8   13  3.8  0.00  0.01
  Crop failure growth program terminated 
 21 JUL  102 Harvest      380   0.00  13.5   15  3.9  0.00  0.02


*MAIN GROWTH AND DEVELOPMENT VARIABLES

@     VARIABLE                          SIMULATED     MEASURED
      --------                          ---------     --------
      Anthesis day (dap)                      -99          -99
      Physiological maturity day (dap)        102          -99
      Yield at harvest maturity (kg [dm]/       0          -99
      Number at maturity (no/m2)                0          -99
      Unit wt at maturity (g [dm]/unit)    0.0000          -99
      Number at maturity (no/unit)            0.0          -99
      Tops weight at maturity (kg [dm]/ha     380          -99
      By-product produced (stalk) at matu     383          -99
      Leaf area index, maximum               0.50          -99
      Harvest index at maturity             0.000          -99
      Grain N at maturity (kg/ha)               0          -99
      Tops N at maturity (kg/ha)               15          -99
      Stem N at maturity (kg/ha)               15          -99
      Grain N at maturity (%)                 0.0          -99
      Tops weight at anthesis (kg [dm]/ha       0          -99
      Tops N at anthesis (kg/ha)                0          -99
      Leaf number per stem at maturity      13.47          -99


*ENVIRONMENTAL AND STRESS FACTORS

 |-----Development Phase------|-------------Environment--------------|---------Stress----------|
                              |--------Average-------|---Cumulative--|  (0=Min, 1=Max Stress)  |
                         Time  Temp  Temp Solar Photop         Evapo |----Water---|--Nitrogen--|
                         Span   Max   Min   Rad  [day]   Rain  Trans  Photo         Photo
                         days    øC    øC MJ/m2     hr     mm     mm  synth Growth  synth Growth
------------------------------------------------------------------------------------------------
 Emergence-End Juvenile    41  20.5   8.8  10.4  10.52   54.9   51.5  0.000  0.000  0.002  0.001
 End Juvenil-Floral Init    4  13.9   6.1   7.9   9.99    1.4    5.8  0.000  0.000  0.000  0.000
 Floral Init-End Lf Grow   49  15.2   4.0   8.4   9.88  169.6   70.5  0.000  0.000  0.054  0.022
 End Lf Grth-Beg Grn Fil    0   0.0   0.0   0.0   0.00    0.0    0.0  0.000  0.000  0.000  0.000
 Grain Filling Phase        0   0.0   0.0   0.0   0.00    0.0    0.0  0.000  0.000  0.000  0.000

                     Maize YIELD :        0 kg/ha    [Dry weight] 

************************************************************************************************

*DSSAT Cropping System Model Ver. 4.0.2.000               Aug 01, 2016; 15:44:49
                                                                                
*RUN  10        : UYMZ                                                          
 MODEL          : MZCER040 - MAIZE                                              
 EXPERIMENT     : UYMZ0105 SN late to create DSS                                
 TREATMENT  1   : UYMZ                                                          
                                                                                
 CROP           : MAIZE          CULTIVAR : CMEDIO UY        ECOTYPE :IB0001    
 STARTING DATE  : APR  7 1975                                                   
 PLANTING DATE  : APR 10 1975    PLANTS/m2 :  7.0     ROW SPACING :  15.cm      
 WEATHER        : UYTT   1975                                                   
 SOIL           : UYSS0N2002     TEXTURE :       -  N20-02    SNIA CLAY RISS    
 SOIL INITIAL C : DEPTH:125cm EXTR. H2O:186.3mm  NO3: 74.8kg/ha  NH4: 23.9kg/ha 
 WATER BALANCE  : AUTOMATIC IRRIGATION - REFILL PROFILE                         
 IRRIGATION     : AUTOMATIC - PLANTING -> MATURITY [ SOIL DEPTH:30.00m 50.%]    
 NITROGEN BAL.  : SOIL-N & N-UPTAKE SIMULATION; NO N-FIXATION                   
 N-FERTILIZER   :       20 kg/ha IN     3 APPLICATIONS                          
 RESIDUE/MANURE : INITIAL :     0 kg/ha ;       0 kg/ha IN     0 APPLICATIONS   
 ENVIRONM. OPT. : DAYL=    0.00  SRAD=    0.00  TMAX=    0.00  TMIN=    0.00    
                  RAIN=    0.00  CO2 = R330.00  DEW =    0.00  WIND=    0.00    
 SIMULATION OPT : WATER   :Y  NITROGEN:Y  N-FIX:N  PHOSPH :N  PESTS  :N         
                  PHOTO   :C  ET      :R  INFIL:S  HYDROL :R  SOM    :G         
 MANAGEMENT OPT : PLANTING:R  IRRIG   :A  FERT :D  RESIDUE:N  HARVEST:M  WTH:M  
                                                                                
*SUMMARY OF SOIL AND GENETIC INPUT PARAMETERS                                   
                                                                                
   SOIL LOWER UPPER   SAT  EXTR  INIT   ROOT   BULK     pH    NO3    NH4    ORG 
  DEPTH LIMIT LIMIT    SW    SW    SW   DIST   DENS                          C  
   cm   cm3/cm3    cm3/cm3    cm3/cm3         g/cm3         ugN/g  ugN/g     %  
------------------------------------------------------------------------------- 
  0-  5 0.331 0.542 0.585 0.211 0.394   1.00   1.11   6.50  15.00   1.50   2.74 
  5- 15 0.331 0.542 0.585 0.211 0.394   1.00   1.11   6.50  15.00   1.50   2.74 
 15- 30 0.331 0.542 0.585 0.211 0.394   1.00   1.11   6.50  15.00   1.50   2.74 
 30- 45 0.290 0.438 0.491 0.148 0.334   0.43   1.26   6.50   8.50   1.50   1.07 
 45- 60 0.292 0.431 0.480 0.138 0.375   0.39   1.29   6.27   4.53   1.50   0.90 
 60- 90 0.293 0.419 0.466 0.126 0.419   0.32   1.34   6.00   0.00   1.50   0.64 
 90-108 0.286 0.408 0.460 0.122 0.408   0.23   1.36   6.00   0.00   1.50   0.35 
108-125 0.276 0.395 0.456 0.119 0.395   0.12   1.38   6.00   0.00   1.50   0.14 
                                                                                
TOT-125  37.3  55.9  62.1  18.6  49.1  <--cm   -  kg/ha-->   74.8   23.9 166127 
SOIL ALBEDO    : 0.09      EVAPORATION LIMIT : 6.00         MIN. FACTOR  : 1.00 
RUNOFF CURVE # :10.00      DRAINAGE RATE     : 0.40         FERT. FACTOR : 1.00 
                                                                                
 MAIZE      CULTIVAR :UY0370-CMEDIO UY          ECOTYPE :IB0001                 
 P1     : 280.00  P2     : 0.0000  P5     : 750.00                              
 G2     : 800.00  G3     :  7.500  PHINT  : 38.900                              
                                                                                
                                                                                
                                                                                
*SIMULATED CROP AND SOIL STATUS AT MAIN DEVELOPMENT STAGES

 RUN NO.    10     UYMZ                    

        CROP GROWTH   BIOMASS         LEAF   CROP N     STRESS  
   DATE  AGE STAGE      kg/ha    LAI   NUM  kg/ha  %   H2O    N 
 ------  --- ---------- -----  -----  ----  ---  ---  ----  ----
  6 APR    0 Start Sim      0   0.00   0.0    0  0.0  0.00  0.00
  9 APR    0 Sowing         0   0.00   0.0    0  0.0  0.00  0.00
 10 APR    1 Germinate      0   0.00   0.0    0  0.0  0.00  0.00
 15 APR    6 Emergence     28   0.00   2.1    1  4.4  0.00  0.00
 24 MAY   45 End Juveni   217   0.12   9.6    8  3.8  0.00  0.00
 28 MAY   49 Floral Ini   238   0.15  10.7    9  3.7  0.00  0.01
  Crop failure growth program terminated 
 29 JUL  111 Harvest      508   0.00  15.6   16  3.1  0.00  0.02


*MAIN GROWTH AND DEVELOPMENT VARIABLES

@     VARIABLE                          SIMULATED     MEASURED
      --------                          ---------     --------
      Anthesis day (dap)                      -99          -99
      Physiological maturity day (dap)        111          -99
      Yield at harvest maturity (kg [dm]/       0          -99
      Number at maturity (no/m2)                0          -99
      Unit wt at maturity (g [dm]/unit)    0.0000          -99
      Number at maturity (no/unit)            0.0          -99
      Tops weight at maturity (kg [dm]/ha     508          -99
      By-product produced (stalk) at matu     511          -99
      Leaf area index, maximum               0.28          -99
      Harvest index at maturity             0.000          -99
      Grain N at maturity (kg/ha)               0          -99
      Tops N at maturity (kg/ha)               16          -99
      Stem N at maturity (kg/ha)               16          -99
      Grain N at maturity (%)                 0.0          -99
      Tops weight at anthesis (kg [dm]/ha       0          -99
      Tops N at anthesis (kg/ha)                0          -99
      Leaf number per stem at maturity      15.62          -99


*ENVIRONMENTAL AND STRESS FACTORS

 |-----Development Phase------|-------------Environment--------------|---------Stress----------|
                              |--------Average-------|---Cumulative--|  (0=Min, 1=Max Stress)  |
                         Time  Temp  Temp Solar Photop         Evapo |----Water---|--Nitrogen--|
                         Span   Max   Min   Rad  [day]   Rain  Trans  Photo         Photo
                         days    øC    øC MJ/m2     hr     mm     mm  synth Growth  synth Growth
------------------------------------------------------------------------------------------------
 Emergence-End Juvenile    39  20.5   8.7  11.3  10.60  162.2   58.6  0.000  0.000  0.003  0.001
 End Juvenil-Floral Init    4  21.5  15.2   4.6  10.06   22.0    4.3  0.000  0.000  0.001  0.000
 Floral Init-End Lf Grow   62  14.7   6.1   7.0   9.93  535.0   75.6  0.000  0.000  0.054  0.022
 End Lf Grth-Beg Grn Fil    0   0.0   0.0   0.0   0.00    0.0    0.0  0.000  0.000  0.000  0.000
 Grain Filling Phase        0   0.0   0.0   0.0   0.00    0.0    0.0  0.000  0.000  0.000  0.000

                     Maize YIELD :        0 kg/ha    [Dry weight] 

************************************************************************************************

*DSSAT Cropping System Model Ver. 4.0.2.000               Aug 01, 2016; 15:44:49
                                                                                
*RUN  11        : UYMZ                                                          
 MODEL          : MZCER040 - MAIZE                                              
 EXPERIMENT     : UYMZ0105 SN late to create DSS                                
 TREATMENT  1   : UYMZ                                                          
                                                                                
 CROP           : MAIZE          CULTIVAR : CMEDIO UY        ECOTYPE :IB0001    
 STARTING DATE  : APR  7 1975                                                   
 PLANTING DATE  : APR 10 1975    PLANTS/m2 :  7.0     ROW SPACING :  15.cm      
 WEATHER        : UYTT   1975                                                   
 SOIL           : UYSS0N2002     TEXTURE :       -  N20-02    SNIA CLAY RISS    
 SOIL INITIAL C : DEPTH:125cm EXTR. H2O:186.3mm  NO3: 74.8kg/ha  NH4: 23.9kg/ha 
 WATER BALANCE  : AUTOMATIC IRRIGATION - REFILL PROFILE                         
 IRRIGATION     : AUTOMATIC - PLANTING -> MATURITY [ SOIL DEPTH:30.00m 50.%]    
 NITROGEN BAL.  : SOIL-N & N-UPTAKE SIMULATION; NO N-FIXATION                   
 N-FERTILIZER   :       20 kg/ha IN     3 APPLICATIONS                          
 RESIDUE/MANURE : INITIAL :     0 kg/ha ;       0 kg/ha IN     0 APPLICATIONS   
 ENVIRONM. OPT. : DAYL=    0.00  SRAD=    0.00  TMAX=    0.00  TMIN=    0.00    
                  RAIN=    0.00  CO2 = R330.00  DEW =    0.00  WIND=    0.00    
 SIMULATION OPT : WATER   :Y  NITROGEN:Y  N-FIX:N  PHOSPH :N  PESTS  :N         
                  PHOTO   :C  ET      :R  INFIL:S  HYDROL :R  SOM    :G         
 MANAGEMENT OPT : PLANTING:R  IRRIG   :A  FERT :D  RESIDUE:N  HARVEST:M  WTH:M  
                                                                                
*SUMMARY OF SOIL AND GENETIC INPUT PARAMETERS                                   
                                                                                
   SOIL LOWER UPPER   SAT  EXTR  INIT   ROOT   BULK     pH    NO3    NH4    ORG 
  DEPTH LIMIT LIMIT    SW    SW    SW   DIST   DENS                          C  
   cm   cm3/cm3    cm3/cm3    cm3/cm3         g/cm3         ugN/g  ugN/g     %  
------------------------------------------------------------------------------- 
  0-  5 0.331 0.542 0.585 0.211 0.394   1.00   1.11   6.50  15.00   1.50   2.74 
  5- 15 0.331 0.542 0.585 0.211 0.394   1.00   1.11   6.50  15.00   1.50   2.74 
 15- 30 0.331 0.542 0.585 0.211 0.394   1.00   1.11   6.50  15.00   1.50   2.74 
 30- 45 0.290 0.438 0.491 0.148 0.334   0.43   1.26   6.50   8.50   1.50   1.07 
 45- 60 0.292 0.431 0.480 0.138 0.375   0.39   1.29   6.27   4.53   1.50   0.90 
 60- 90 0.293 0.419 0.466 0.126 0.419   0.32   1.34   6.00   0.00   1.50   0.64 
 90-108 0.286 0.408 0.460 0.122 0.408   0.23   1.36   6.00   0.00   1.50   0.35 
108-125 0.276 0.395 0.456 0.119 0.395   0.12   1.38   6.00   0.00   1.50   0.14 
                                                                                
TOT-125  37.3  55.9  62.1  18.6  49.1  <--cm   -  kg/ha-->   74.8   23.9 166127 
SOIL ALBEDO    : 0.09      EVAPORATION LIMIT : 6.00         MIN. FACTOR  : 1.00 
RUNOFF CURVE # :10.00      DRAINAGE RATE     : 0.40         FERT. FACTOR : 1.00 
                                                                                
 MAIZE      CULTIVAR :UY0370-CMEDIO UY          ECOTYPE :IB0001                 
 P1     : 280.00  P2     : 0.0000  P5     : 750.00                              
 G2     : 800.00  G3     :  7.500  PHINT  : 38.900                              
                                                                                
                                                                                
                                                                                
*SIMULATED CROP AND SOIL STATUS AT MAIN DEVELOPMENT STAGES

 RUN NO.    11     UYMZ                    

        CROP GROWTH   BIOMASS         LEAF   CROP N     STRESS  
   DATE  AGE STAGE      kg/ha    LAI   NUM  kg/ha  %   H2O    N 
 ------  --- ---------- -----  -----  ----  ---  ---  ----  ----
  7 APR    0 Start Sim      0   0.00   0.0    0  0.0  0.00  0.00
 10 APR    0 Sowing         0   0.00   0.0    0  0.0  0.00  0.00
 11 APR    1 Germinate      0   0.00   0.0    0  0.0  0.00  0.00
 18 APR    8 Emergence     28   0.00   1.8    1  4.4  0.00  0.00
 28 MAY   48 End Juveni   341   0.43   9.7   13  3.7  0.00  0.00
  1 JUN   52 Floral Ini   402   0.47  10.2   15  3.7  0.00  0.01
 14 SEP  157 75% Silkin  2579   0.16  21.6   58  2.2  0.00  0.02
  4 OCT  177 Beg Gr Fil  2728   0.15  21.6   58  2.1  0.00  0.02
 26 NOV  230 End Gr Fil  4153   0.12  21.6   58  1.4  0.00  0.00
  1 DEC  235 Maturity    4153   0.12  21.6   58  1.4  0.00  0.00
  1 DEC  235 Harvest     4153   0.12  21.6   58  1.4  0.00  0.00


*MAIN GROWTH AND DEVELOPMENT VARIABLES

@     VARIABLE                          SIMULATED     MEASURED
      --------                          ---------     --------
      Anthesis day (dap)                      157          -99
      Physiological maturity day (dap)        235          -99
      Yield at harvest maturity (kg [dm]/    1331          -99
      Number at maturity (no/m2)              544          -99
      Unit wt at maturity (g [dm]/unit)    0.2445          -99
      Number at maturity (no/unit)           86.6          -99
      Tops weight at maturity (kg [dm]/ha    4153          -99
      By-product produced (stalk) at matu    2859          -99
      Leaf area index, maximum               0.68          -99
      Harvest index at maturity             0.320          -99
      Grain N at maturity (kg/ha)              23          -99
      Tops N at maturity (kg/ha)               58          -99
      Stem N at maturity (kg/ha)               33          -99
      Grain N at maturity (%)                 1.7          -99
      Tops weight at anthesis (kg [dm]/ha    2583          -99
      Tops N at anthesis (kg/ha)               58          -99
      Leaf number per stem at maturity      21.56          -99


*ENVIRONMENTAL AND STRESS FACTORS

 |-----Development Phase------|-------------Environment--------------|---------Stress----------|
[...]
                                                                                
*SUMMARY OF SOIL AND GENETIC INPUT PARAMETERS                                   
                                                                                
   SOIL LOWER UPPER   SAT  EXTR  INIT   ROOT   BULK     pH    NO3    NH4    ORG 
  DEPTH LIMIT LIMIT    SW    SW    SW   DIST   DENS                          C  
   cm   cm3/cm3    cm3/cm3    cm3/cm3         g/cm3         ugN/g  ugN/g     %  
------------------------------------------------------------------------------- 
  0-  5 0.331 0.542 0.585 0.211 0.394   1.00   1.11   6.50  15.00   1.50   2.74 
  5- 15 0.331 0.542 0.585 0.211 0.394   1.00   1.11   6.50  15.00   1.50   2.74 
 15- 30 0.331 0.542 0.585 0.211 0.394   1.00   1.11   6.50  15.00   1.50   2.74 
 30- 45 0.290 0.438 0.491 0.148 0.334   0.43   1.26   6.50   8.50   1.50   1.07 
 45- 60 0.292 0.431 0.480 0.138 0.375   0.39   1.29   6.27   4.53   1.50   0.90 
 60- 90 0.293 0.419 0.466 0.126 0.419   0.32   1.34   6.00   0.00   1.50   0.64 
 90-108 0.286 0.408 0.460 0.122 0.408   0.23   1.36   6.00   0.00   1.50   0.35 
108-125 0.276 0.395 0.456 0.119 0.395   0.12   1.38   6.00   0.00   1.50   0.14 
                                                                                
TOT-125  37.3  55.9  62.1  18.6  49.1  <--cm   -  kg/ha-->   74.8   23.9 166127 
SOIL ALBEDO    : 0.09      EVAPORATION LIMIT : 6.00         MIN. FACTOR  : 1.00 
RUNOFF CURVE # :10.00      DRAINAGE RATE     : 0.40         FERT. FACTOR : 1.00 
                                                                                
 MAIZE      CULTIVAR :UY0370-CMEDIO UY          ECOTYPE :IB0001                 
 P1     : 280.00  P2     : 0.0000  P5     : 750.00                              
 G2     : 800.00  G3     :  7.500  PHINT  : 38.900                              
                                                                                
                                                                                
                                                                                
*SIMULATED CROP AND SOIL STATUS AT MAIN DEVELOPMENT STAGES

 RUN NO.    19     UYMZ                    

        CROP GROWTH   BIOMASS         LEAF   CROP N     STRESS  
   DATE  AGE STAGE      kg/ha    LAI   NUM  kg/ha  %   H2O    N 
 ------  --- ---------- -----  -----  ----  ---  ---  ----  ----
  7 APR    0 Start Sim      0   0.00   0.0    0  0.0  0.00  0.00
 10 APR    0 Sowing         0   0.00   0.0    0  0.0  0.00  0.00
 11 APR    1 Germinate      0   0.00   0.0    0  0.0  0.00  0.00
 16 APR    6 Emergence     28   0.00   2.0    1  4.4  0.00  0.00
 18 MAY   38 End Juveni   285   0.46   9.7   11  4.0  0.00  0.00
 22 MAY   42 Floral Ini   457   0.72  10.8   17  3.7  0.00  0.01
  Crop failure growth program terminated 
 17 JUL   98 Harvest     1099   0.00  15.9   33  3.0  0.00  0.02


*MAIN GROWTH AND DEVELOPMENT VARIABLES

@     VARIABLE                          SIMULATED     MEASURED
      --------                          ---------     --------
      Anthesis day (dap)                      -99          -99
      Physiological maturity day (dap)         98          -99
      Yield at harvest maturity (kg [dm]/       0          -99
      Number at maturity (no/m2)                0          -99
      Unit wt at maturity (g [dm]/unit)    0.0000          -99
      Number at maturity (no/unit)            0.0          -99
      Tops weight at maturity (kg [dm]/ha    1099          -99
      By-product produced (stalk) at matu    1103          -99
      Leaf area index, maximum               0.88          -99
      Harvest index at maturity             0.000          -99
      Grain N at maturity (kg/ha)               0          -99
      Tops N at maturity (kg/ha)               33          -99
      Stem N at maturity (kg/ha)               33          -99
      Grain N at maturity (%)                 0.0          -99
      Tops weight at anthesis (kg [dm]/ha       0          -99
      Tops N at anthesis (kg/ha)                0          -99
      Leaf number per stem at maturity      15.94          -99


*ENVIRONMENTAL AND STRESS FACTORS

 |-----Development Phase------|-------------Environment--------------|---------Stress----------|
                              |--------Average-------|---Cumulative--|  (0=Min, 1=Max Stress)  |
                         Time  Temp  Temp Solar Photop         Evapo |----Water---|--Nitrogen--|
                         Span   Max   Min   Rad  [day]   Rain  Trans  Photo         Photo
                         days    øC    øC MJ/m2     hr     mm     mm  synth Growth  synth Growth
------------------------------------------------------------------------------------------------
 Emergence-End Juvenile    32  21.5  12.1   9.7  10.70  269.7   55.5  0.000  0.000  0.002  0.001
 End Juvenil-Floral Init    4  21.0   7.2  11.9  10.21    0.0    7.4  0.000  0.000  0.001  0.000
 Floral Init-End Lf Grow   56  16.0   5.3   8.4   9.90  135.3   85.2  0.000  0.000  0.054  0.022
 End Lf Grth-Beg Grn Fil    0   0.0   0.0   0.0   0.00    0.0    0.0  0.000  0.000  0.000  0.000
 Grain Filling Phase        0   0.0   0.0   0.0   0.00    0.0    0.0  0.000  0.000  0.000  0.000

                     Maize YIELD :        0 kg/ha    [Dry weight] 

************************************************************************************************

*DSSAT Cropping System Model Ver. 4.0.2.000               Aug 01, 2016; 15:44:49
                                                                                
*RUN  20        : UYMZ                                                          
 MODEL          : MZCER040 - MAIZE                                              
 EXPERIMENT     : UYMZ0105 SN late to create DSS                                
 TREATMENT  1   : UYMZ                                                          
                                                                                
 CROP           : MAIZE          CULTIVAR : CMEDIO UY        ECOTYPE :IB0001    
 STARTING DATE  : APR  7 1975                                                   
 PLANTING DATE  : APR 10 1975    PLANTS/m2 :  7.0     ROW SPACING :  15.cm      
 WEATHER        : UYTT   1975                                                   
 SOIL           : UYSS0N2002     TEXTURE :       -  N20-02    SNIA CLAY RISS    
 SOIL INITIAL C : DEPTH:125cm EXTR. H2O:186.3mm  NO3: 74.8kg/ha  NH4: 23.9kg/ha 
 WATER BALANCE  : AUTOMATIC IRRIGATION - REFILL PROFILE                         
 IRRIGATION     : AUTOMATIC - PLANTING -> MATURITY [ SOIL DEPTH:30.00m 50.%]    
 NITROGEN BAL.  : SOIL-N & N-UPTAKE SIMULATION; NO N-FIXATION                   
 N-FERTILIZER   :       20 kg/ha IN     3 APPLICATIONS                          
 RESIDUE/MANURE : INITIAL :     0 kg/ha ;       0 kg/ha IN     0 APPLICATIONS   
 ENVIRONM. OPT. : DAYL=    0.00  SRAD=    0.00  TMAX=    0.00  TMIN=    0.00    
                  RAIN=    0.00  CO2 = R330.00  DEW =    0.00  WIND=    0.00    
 SIMULATION OPT : WATER   :Y  NITROGEN:Y  N-FIX:N  PHOSPH :N  PESTS  :N         
                  PHOTO   :C  ET      :R  INFIL:S  HYDROL :R  SOM    :G         
 MANAGEMENT OPT : PLANTING:R  IRRIG   :A  FERT :D  RESIDUE:N  HARVEST:M  WTH:M  
                                                                                
*SUMMARY OF SOIL AND GENETIC INPUT PARAMETERS                                   
                                                                                
   SOIL LOWER UPPER   SAT  EXTR  INIT   ROOT   BULK     pH    NO3    NH4    ORG 
  DEPTH LIMIT LIMIT    SW    SW    SW   DIST   DENS                          C  
   cm   cm3/cm3    cm3/cm3    cm3/cm3         g/cm3         ugN/g  ugN/g     %  
------------------------------------------------------------------------------- 
  0-  5 0.331 0.542 0.585 0.211 0.394   1.00   1.11   6.50  15.00   1.50   2.74 
  5- 15 0.331 0.542 0.585 0.211 0.394   1.00   1.11   6.50  15.00   1.50   2.74 
 15- 30 0.331 0.542 0.585 0.211 0.394   1.00   1.11   6.50  15.00   1.50   2.74 
 30- 45 0.290 0.438 0.491 0.148 0.334   0.43   1.26   6.50   8.50   1.50   1.07 
 45- 60 0.292 0.431 0.480 0.138 0.375   0.39   1.29   6.27   4.53   1.50   0.90 
 60- 90 0.293 0.419 0.466 0.126 0.419   0.32   1.34   6.00   0.00   1.50   0.64 
 90-108 0.286 0.408 0.460 0.122 0.408   0.23   1.36   6.00   0.00   1.50   0.35 
108-125 0.276 0.395 0.456 0.119 0.395   0.12   1.38   6.00   0.00   1.50   0.14 
                                                                                
TOT-125  37.3  55.9  62.1  18.6  49.1  <--cm   -  kg/ha-->   74.8   23.9 166127 
SOIL ALBEDO    : 0.09      EVAPORATION LIMIT : 6.00         MIN. FACTOR  : 1.00 
RUNOFF CURVE # :10.00      DRAINAGE RATE     : 0.40         FERT. FACTOR : 1.00 
                                                                                
 MAIZE      CULTIVAR :UY0370-CMEDIO UY          ECOTYPE :IB0001                 
 P1     : 280.00  P2     : 0.0000  P5     : 750.00                              
 G2     : 800.00  G3     :  7.500  PHINT  : 38.900                              
                                                                                
                                                                                
                                                                                
*SIMULATED CROP AND SOIL STATUS AT MAIN DEVELOPMENT STAGES

 RUN NO.    20     UYMZ                    

        CROP GROWTH   BIOMASS         LEAF   CROP N     STRESS  
   DATE  AGE STAGE      kg/ha    LAI   NUM  kg/ha  %   H2O    N 
 ------  --- ---------- -----  -----  ----  ---  ---  ----  ----
  7 APR    0 Start Sim      0   0.00   0.0    0  0.0  0.00  0.00
 10 APR    0 Sowing         0   0.00   0.0    0  0.0  0.00  0.00
 11 APR    1 Germinate      0   0.00   0.0    0  0.0  0.00  0.00
 18 APR    8 Emergence     28   0.00   1.7    1  4.4  0.00  0.00
 19 MAY   39 End Juveni   306   0.57   9.6   11  3.7  0.00  0.00
 23 MAY   43 Floral Ini   468   0.81  10.7   17  3.7  0.00  0.01
  Crop failure growth program terminated 
 13 JUL   94 Harvest     1789   0.00  16.5   55  3.1  0.00  0.02


*MAIN GROWTH AND DEVELOPMENT VARIABLES

@     VARIABLE                          SIMULATED     MEASURED
      --------                          ---------     --------
      Anthesis day (dap)                      -99          -99
      Physiological maturity day (dap)         94          -99
      Yield at harvest maturity (kg [dm]/       0          -99
      Number at maturity (no/m2)                0          -99
      Unit wt at maturity (g [dm]/unit)    0.0000          -99
      Number at maturity (no/unit)            0.0          -99
      Tops weight at maturity (kg [dm]/ha    1789          -99
      By-product produced (stalk) at matu    1793          -99
      Leaf area index, maximum               1.28          -99
      Harvest index at maturity             0.000          -99
      Grain N at maturity (kg/ha)               0          -99
      Tops N at maturity (kg/ha)               55          -99
      Stem N at maturity (kg/ha)               55          -99
      Grain N at maturity (%)                 0.0          -99
      Tops weight at anthesis (kg [dm]/ha       0          -99
      Tops N at anthesis (kg/ha)                0          -99
      Leaf number per stem at maturity      16.47          -99


*ENVIRONMENTAL AND STRESS FACTORS

 |-----Development Phase------|-------------Environment--------------|---------Stress----------|
                              |--------Average-------|---Cumulative--|  (0=Min, 1=Max Stress)  |
                         Time  Temp  Temp Solar Photop         Evapo |----Water---|--Nitrogen--|
                         Span   Max   Min   Rad  [day]   Rain  Trans  Photo         Photo
                         days    øC    øC MJ/m2     hr     mm     mm  synth Growth  synth Growth
------------------------------------------------------------------------------------------------
 Emergence-End Juvenile    31  22.5  10.1  11.9  10.65   93.9   47.4  0.000  0.000  0.004  0.001
 End Juvenil-Floral Init    4  22.2  11.0   8.2  10.18    2.3    5.9  0.000  0.000  0.000  0.000
 Floral Init-End Lf Grow   51  16.8   6.5   8.3   9.89  120.9   75.5  0.000  0.000  0.054  0.022
 End Lf Grth-Beg Grn Fil    0   0.0   0.0   0.0   0.00    0.0    0.0  0.000  0.000  0.000  0.000
 Grain Filling Phase        0   0.0   0.0   0.0   0.00    0.0    0.0  0.000  0.000  0.000  0.000

                     Maize YIELD :        0 kg/ha    [Dry weight] 

************************************************************************************************

*DSSAT Cropping System Model Ver. 4.0.2.000               Aug 01, 2016; 15:44:49
                                                                                
*RUN  21        : UYMZ                                                          
 MODEL          : MZCER040 - MAIZE                                              
 EXPERIMENT     : UYMZ0105 SN late to create DSS                                
 TREATMENT  1   : UYMZ                                                          
                                                                                
 CROP           : MAIZE          CULTIVAR : CMEDIO UY        ECOTYPE :IB0001    
 STARTING DATE  : APR  7 1975                                                   
 PLANTING DATE  : APR 10 1975    PLANTS/m2 :  7.0     ROW SPACING :  15.cm      
 WEATHER        : UYTT   1975                                                   
 SOIL           : UYSS0N2002     TEXTURE :       -  N20-02    SNIA CLAY RISS    
 SOIL INITIAL C : DEPTH:125cm EXTR. H2O:186.3mm  NO3: 74.8kg/ha  NH4: 23.9kg/ha 
 WATER BALANCE  : AUTOMATIC IRRIGATION - REFILL PROFILE                         
 IRRIGATION     : AUTOMATIC - PLANTING -> MATURITY [ SOIL DEPTH:30.00m 50.%]    
 NITROGEN BAL.  : SOIL-N & N-UPTAKE SIMULATION; NO N-FIXATION                   
 N-FERTILIZER   :       20 kg/ha IN     3 APPLICATIONS                          
 RESIDUE/MANURE : INITIAL :     0 kg/ha ;       0 kg/ha IN     0 APPLICATIONS   
 ENVIRONM. OPT. : DAYL=    0.00  SRAD=    0.00  TMAX=    0.00  TMIN=    0.00    
                  RAIN=    0.00  CO2 = R330.00  DEW =    0.00  WIND=    0.00    
 SIMULATION OPT : WATER   :Y  NITROGEN:Y  N-FIX:N  PHOSPH :N  PESTS  :N         
                  PHOTO   :C  ET      :R  INFIL:S  HYDROL :R  SOM    :G         
 MANAGEMENT OPT : PLANTING:R  IRRIG   :A  FERT :D  RESIDUE:N  HARVEST:M  WTH:M  
                                                                                
*SUMMARY OF SOIL AND GENETIC INPUT PARAMETERS                                   
                                                                                
   SOIL LOWER UPPER   SAT  EXTR  INIT   ROOT   BULK     pH    NO3    NH4    ORG 
  DEPTH LIMIT LIMIT    SW    SW    SW   DIST   DENS                          C  
   cm   cm3/cm3    cm3/cm3    cm3/cm3         g/cm3         ugN/g  ugN/g     %  
------------------------------------------------------------------------------- 
  0-  5 0.331 0.542 0.585 0.211 0.394   1.00   1.11   6.50  15.00   1.50   2.74 
  5- 15 0.331 0.542 0.585 0.211 0.394   1.00   1.11   6.50  15.00   1.50   2.74 
 15- 30 0.331 0.542 0.585 0.211 0.394   1.00   1.11   6.50  15.00   1.50   2.74 
 30- 45 0.290 0.438 0.491 0.148 0.334   0.43   1.26   6.50   8.50   1.50   1.07 
 45- 60 0.292 0.431 0.480 0.138 0.375   0.39   1.29   6.27   4.53   1.50   0.90 
 60- 90 0.293 0.419 0.466 0.126 0.419   0.32   1.34   6.00   0.00   1.50   0.64 
 90-108 0.286 0.408 0.460 0.122 0.408   0.23   1.36   6.00   0.00   1.50   0.35 
108-125 0.276 0.395 0.456 0.119 0.395   0.12   1.38   6.00   0.00   1.50   0.14 
                                                                                
TOT-125  37.3  55.9  62.1  18.6  49.1  <--cm   -  kg/ha-->   74.8   23.9 166127 
SOIL ALBEDO    : 0.09      EVAPORATION LIMIT : 6.00         MIN. FACTOR  : 1.00 
RUNOFF CURVE # :10.00      DRAINAGE RATE     : 0.40         FERT. FACTOR : 1.00 
                                                                                
 MAIZE      CULTIVAR :UY0370-CMEDIO UY          ECOTYPE :IB0001                 
 P1     : 280.00  P2     : 0.0000  P5     : 750.00                              
 G2     : 800.00  G3     :  7.500  PHINT  : 38.900                              
                                                                                
                                                                                
                                                                                
*SIMULATED CROP AND SOIL STATUS AT MAIN DEVELOPMENT STAGES

 RUN NO.    21     UYMZ                    

        CROP GROWTH   BIOMASS         LEAF   CROP N     STRESS  
   DATE  AGE STAGE      kg/ha    LAI   NUM  kg/ha  %   H2O    N 
 ------  --- ---------- -----  -----  ----  ---  ---  ----  ----
  7 APR    0 Start Sim      0   0.00   0.0    0  0.0  0.00  0.00
 10 APR    0 Sowing         0   0.00   0.0    0  0.0  0.00  0.00
 11 APR    1 Germinate      0   0.00   0.0    0  0.0  0.00  0.00
 17 APR    7 Emergence     28   0.00   2.0    1  4.4  0.00  0.00
  1 JUN   52 End Juveni   348   0.33   9.8   13  3.8  0.00  0.00
  5 JUN   56 Floral Ini   416   0.32  10.3   15  3.7  0.00  0.01
  Crop failure growth program terminated 
  6 AUG  118 Harvest      499   0.00  15.6   19  3.8  0.00  0.02


*MAIN GROWTH AND DEVELOPMENT VARIABLES

@     VARIABLE                          SIMULATED     MEASURED
      --------                          ---------     --------
      Anthesis day (dap)                      -99          -99
      Physiological maturity day (dap)        118          -99
      Yield at harvest maturity (kg [dm]/       0          -99
      Number at maturity (no/m2)                0          -99
      Unit wt at maturity (g [dm]/unit)    0.0000          -99
      Number at maturity (no/unit)            0.0          -99
      Tops weight at maturity (kg [dm]/ha     499          -99
      By-product produced (stalk) at matu     503          -99
      Leaf area index, maximum               0.40          -99
      Harvest index at maturity             0.000          -99
      Grain N at maturity (kg/ha)               0          -99
      Tops N at maturity (kg/ha)               19          -99
      Stem N at maturity (kg/ha)               19          -99
      Grain N at maturity (%)                 0.0          -99
      Tops weight at anthesis (kg [dm]/ha       0          -99
      Tops N at anthesis (kg/ha)                0          -99
      Leaf number per stem at maturity      15.57          -99


*ENVIRONMENTAL AND STRESS FACTORS

 |-----Development Phase------|-------------Environment--------------|---------Stress----------|
                              |--------Average-------|---Cumulative--|  (0=Min, 1=Max Stress)  |
                         Time  Temp  Temp Solar Photop         Evapo |----Water---|--Nitrogen--|
                         Span   Max   Min   Rad  [day]   Rain  Trans  Photo         Photo
                         days    øC    øC MJ/m2     hr     mm     mm  synth Growth  synth Growth
------------------------------------------------------------------------------------------------
 Emergence-End Juvenile    45  19.8   8.2  11.3  10.50   83.2   61.6  0.000  0.000  0.002  0.001
 End Juvenil-Floral Init    4  18.7   4.7   9.8   9.95    4.2    5.1  0.000  0.000  0.001  0.000
 Floral Init-End Lf Grow   62  15.8   4.9   8.6   9.97  439.0   89.0  0.000  0.000  0.054  0.022
 End Lf Grth-Beg Grn Fil    0   0.0   0.0   0.0   0.00    0.0    0.0  0.000  0.000  0.000  0.000
 Grain Filling Phase        0   0.0   0.0   0.0   0.00    0.0    0.0  0.000  0.000  0.000  0.000

                     Maize YIELD :        0 kg/ha    [Dry weight] 

************************************************************************************************
