*PLANT N OUTPUT FILE

*DSSAT Cropping System Model Ver. 4.0.2.000               Aug 01, 2016; 15:44:49

*RUN   1        : UYMZ                    
 MODEL          : MZCER040 - Maize           
 EXPERIMENT     : UYMZ0105 MZ    late to create DSS                             
 TREATMENT  1   : UYMZ                    

@YEAR DOY   DAS   DAP   CNAD   GNAD   VNAD   GN%D   VN%D   NUPC   LNAD   SNAD   LN%D   SN%D   RN%D   SNN0C   SNN1C
 1975 100     3     0    0.0    0.0    0.0   0.00   0.00    0.0    0.0    0.0    0.0   0.00   0.00    0.00    0.00
 1975 101     4     1    0.0    0.0    0.0   0.00   0.00    0.0    0.0    0.0    0.0   0.00   0.00    0.00    0.00
 1975 102     5     2    0.0    0.0    0.0   0.00   0.00    0.0    0.0    0.0    0.0   0.00   0.00    0.00    0.00
 1975 103     6     3    0.0    0.0    0.0   0.00   0.00    0.0    0.0    0.0    0.0   0.00   0.00    0.00    0.00
 1975 104     7     4    0.0    0.0    0.0   0.00   0.00    0.0    0.0    0.0    0.0   0.00   0.00    0.00    0.00
 1975 105     8     5    0.0    0.0    0.0   0.00   0.00    0.0    0.0    0.0    0.0   0.00   0.00    0.00    0.00
 1975 106     9     6    0.0    0.0    0.0   0.00   0.00    0.0    0.0    0.0    0.0   0.00   0.00    0.00    0.00
 1975 107    10     7    0.0    0.0    0.0   0.00   0.00    0.0    0.0    0.0    0.0   0.00   0.00    0.00    0.00
 1975 108    11     8    0.0    0.0    0.0   0.00   0.00    0.0    0.0    0.0    0.0   0.00   0.00    0.00    0.00
 1975 109    12     9    1.2    0.0    1.2   0.00   4.40    0.0    0.6    0.6    4.4   4.40   0.00    0.00    0.00
 1975 110    13    10    1.3    0.0    1.3   0.00   4.51    0.2    0.6    0.6    4.5   4.51   1.09    0.00    0.00
 1975 111    14    11    1.3    0.0    1.3   0.00   4.47    0.2    0.6    0.6    4.5   4.47   1.12    0.00    0.00
 1975 112    15    12    1.2    0.0    1.2   0.00   4.43    0.2    0.6    0.6    4.4   4.43   1.14    0.00    0.00
 1975 113    16    13    1.2    0.0    1.2   0.00   4.41    0.2    0.6    0.6    4.4   4.41   1.20    0.00    0.00
 1975 114    17    14    1.2    0.0    1.2   0.00   4.38    0.3    0.6    0.6    4.4   4.38   1.21    0.00    0.00
 1975 115    18    15    1.2    0.0    1.2   0.00   4.35    0.3    0.6    0.6    4.4   4.35   1.24    0.00    0.00
 1975 116    19    16    1.2    0.0    1.2   0.00   3.51    0.3    0.7    0.5    3.5   3.51   1.15    0.00    0.00
 1975 117    20    17    1.5    0.0    1.5   0.00   3.67    0.6    1.0    0.5    3.7   3.67   1.09    0.00    0.01
 1975 118    21    18    1.7    0.0    1.7   0.00   3.41    0.9    1.3    0.5    3.4   3.41   1.22    0.00    0.01
 1975 119    22    19    2.2    0.0    2.2   0.00   3.71    1.3    1.6    0.5    3.7   3.71   1.16    0.00    0.01
 1975 120    23    20    2.5    0.0    2.5   0.00   3.94    1.8    1.9    0.6    3.9   3.94   1.38    0.00    0.01
 1975 121    24    21    2.6    0.0    2.6   0.00   3.99    2.1    2.1    0.6    4.0   3.99   1.30    0.00    0.02
 1975 122    25    22    2.8    0.0    2.8   0.00   3.97    2.2    2.2    0.6    4.0   3.97   1.23    0.00    0.02
 1975 123    26    23    2.9    0.0    2.9   0.00   3.84    2.6    2.4    0.5    3.8   3.84   1.26    0.00    0.02
 1975 124    27    24    3.2    0.0    3.2   0.00   3.92    3.1    2.6    0.5    3.9   3.92   1.29    0.00    0.03
 1975 125    28    25    3.4    0.0    3.4   0.00   3.97    3.5    2.8    0.6    4.0   3.97   1.29    0.00    0.03
 1975 126    29    26    3.6    0.0    3.6   0.00   3.91    3.7    3.0    0.5    3.9   3.91   1.21    0.00    0.04
 1975 127    30    27    3.8    0.0    3.8   0.00   3.82    4.0    3.2    0.5    3.8   3.82   1.17    0.00    0.05
 1975 128    31    28    4.1    0.0    4.1   0.00   3.67    4.4    3.6    0.5    3.7   3.67   1.13    0.00    0.05
 1975 129    32    29    4.5    0.0    4.5   0.00   3.41    4.8    4.1    0.5    3.4   3.41   1.10    0.00    0.06
 1975 130    33    30    5.4    0.0    5.4   0.00   3.50    5.7    4.9    0.5    3.5   3.50   1.08    0.00    0.07
 1975 131    34    31    6.2    0.0    6.2   0.00   3.75    6.5    5.7    0.5    3.8   3.75   1.08    0.00    0.08
 1975 132    35    32    6.7    0.0    6.7   0.00   3.59    7.0    6.2    0.5    3.6   3.59   1.09    0.00    0.08
 1975 133    36    33    7.4    0.0    7.4   0.00   3.71    7.8    6.9    0.5    3.7   3.71   1.08    0.00    0.09
 1975 134    37    34    8.0    0.0    8.0   0.00   3.69    8.4    7.5    0.5    3.7   3.69   1.09    0.00    0.10
 1975 135    38    35    8.6    0.0    8.6   0.00   3.53    9.3    8.1    0.5    3.5   3.53   1.17    0.00    0.11
 1975 136    39    36    9.6    0.0    9.6   0.00   3.83   10.7    9.1    0.5    3.8   3.83   1.25    0.00    0.12
 1975 137    40    37    9.9    0.0    9.9   0.00   3.79   11.3    9.4    0.5    3.8   3.79   1.26    0.00    0.13
 1975 138    41    38   10.3    0.0   10.3   0.00   3.81   11.8    9.8    0.5    3.8   3.81   1.20    0.00    0.14
 1975 139    42    39   10.6    0.0   10.6   0.00   3.75   12.3   10.1    0.5    3.7   3.75   1.18    0.00    0.16
 1975 140    43    40   11.1    0.0   11.1   0.00   3.63   12.9   10.6    0.5    3.6   3.63   1.15    0.00    0.17
 1975 141    44    41   11.9    0.0   11.9   0.00   3.60   14.0   11.4    0.5    3.6   3.60   1.15    0.00    0.19
 1975 142    45    42   12.8    0.0   12.8   0.00   3.81   15.6   12.3    0.5    3.8   3.81   1.21    0.00    0.20
 1975 143    46    43   13.1    0.0   13.1   0.00   3.58   16.1   12.6    0.5    3.6   3.58   1.16    0.00    0.22
 1975 144    47    44   14.0    0.0   14.0   0.00   3.40   17.2   13.5    0.5    3.4   3.40   1.14    0.00    0.24
 1975 145    48    45   17.0    0.0   17.0   0.00   3.78   20.6   16.4    0.5    3.8   3.78   1.16    0.00    0.27
 1975 146    49    46   18.0    0.0   18.0   0.00   3.68   21.9   17.5    0.5    3.7   3.68   1.14    0.00    0.29
 1975 147    50    47   19.1    0.0   19.1   0.00   3.57   23.6   18.6    0.5    3.6   3.57   1.16    0.00    0.32
 1975 148    51    48   21.0    0.0   21.0   0.00   3.54   25.8   20.5    0.5    3.5   3.54   1.14    0.00    0.34
 1975 149    52    49   22.9    0.0   22.9   0.00   3.51   28.2   22.3    0.6    3.5   3.51   1.15    0.00    0.37
 1975 150    53    50   24.8    0.0   24.8   0.00   3.48   30.0   24.2    0.6    3.5   3.48   1.10    0.00    0.41
 1975 151    54    51   26.1    0.0   26.1   0.00   3.45   31.1   25.4    0.7    3.4   3.45   1.07    0.00    0.44
 1975 152    55    52   27.4    0.0   27.4   0.00   3.49   32.4   26.7    0.7    3.5   3.49   1.07    0.00    0.47
 1975 153    56    53   28.1    0.0   28.1   0.00   3.48   33.8   27.3    0.8    3.5   3.48   1.15    0.00    0.50
 1975 154    57    54   28.8    0.0   28.8   0.00   3.48   34.9   28.0    0.8    3.5   3.48   1.18    0.00    0.53
 1975 155    58    55   29.4    0.0   29.4   0.00   3.46   36.1   28.5    0.8    3.5   3.46   1.20    0.00    0.57
 1975 156    59    56   30.1    0.0   30.1   0.00   3.45   36.9   29.2    0.9    3.5   3.45   1.17    0.00    0.61
 1975 157    60    57   31.1    0.0   31.1   0.00   3.43   37.9   30.1    1.0    3.4   3.43   1.13    0.00    0.65
 1975 158    61    58   31.8    0.0   31.8   0.00   3.44   39.4   30.8    1.0    3.4   3.44   1.19    0.00    0.69
 1975 159    62    59   32.5    0.0   32.5   0.00   3.41   40.3   31.4    1.1    3.4   3.41   1.16    0.00    0.73
 1975 160    63    60   33.4    0.0   33.4   0.00   3.39   41.5   32.3    1.2    3.4   3.39   1.15    0.00    0.78
 1975 161    64    61   34.4    0.0   34.4   0.00   3.39   42.3   33.1    1.2    3.4   3.39   1.11    0.00    0.82
 1975 162    65    62   35.2    0.0   35.2   0.00   3.39   43.0   33.9    1.3    3.4   3.39   1.08    0.00    0.87
 1975 163    66    63   35.6    0.0   35.6   0.00   3.33   43.1   34.2    1.4    3.3   3.33   1.07    0.00    0.91
 1975 164    67    64   36.8    0.0   36.8   0.00   3.36   44.5   35.3    1.5    3.4   3.36   1.08    0.00    0.96
 1975 165    68    65   37.4    0.0   37.4   0.00   3.32   45.0   35.8    1.6    3.3   3.32   1.07    0.00    1.00
 1975 166    69    66   38.3    0.0   38.3   0.00   3.29   45.8   36.5    1.8    3.3   3.29   1.07    0.00    1.05
 1975 167    70    67   39.9    0.0   39.9   0.00   3.27   47.5   37.9    2.0    3.3   3.27   1.07    0.00    1.09
 1975 168    71    68   41.3    0.0   41.3   0.00   3.25   48.9   39.1    2.2    3.3   3.25   1.07    0.00    1.13
 1975 169    72    69   43.1    0.0   43.1   0.00   3.23   50.7   40.5    2.6    3.2   3.23   1.07    0.00    1.18
 1975 170    73    70   45.2    0.0   45.2   0.00   3.21   52.8   42.2    3.0    3.2   3.21   1.07    0.00    1.22
 1975 171    74    71   47.3    0.0   47.3   0.00   3.19   55.0   43.8    3.4    3.2   3.19   1.08    0.00    1.26
 1975 172    75    72   48.2    0.0   48.2   0.00   3.17   55.9   44.5    3.7    3.2   3.17   1.07    0.00    1.31
 1975 173    76    73   49.8    0.0   49.8   0.00   3.17   57.8   45.8    4.1    3.2   3.17   1.09    0.00    1.35
 1975 174    77    74   51.2    0.0   51.2   0.00   3.16   59.5   46.8    4.4    3.2   3.16   1.10    0.00    1.40
 1975 175    78    75   52.6    0.0   52.6   0.00   3.15   61.1   47.8    4.8    3.2   3.15   1.10    0.00    1.44
 1975 176    79    76   53.8    0.0   53.8   0.00   3.14   62.0   48.7    5.1    3.1   3.14   1.07    0.00    1.49
 1975 177    80    77   56.2    0.0   56.2   0.00   3.10   64.4   50.3    5.9    3.1   3.10   1.07    0.00    1.54
 1975 178    81    78   58.2    0.0   58.2   0.00   3.07   66.4   51.6    6.6    3.1   3.07   1.07    0.00    1.58
 1975 179    82    79   59.5    0.0   59.5   0.00   3.07   67.7   52.5    7.0    3.1   3.07   1.07    0.00    1.63
 1975 180    83    80   60.1    0.0   60.1   0.00   3.05   68.3   52.8    7.3    3.0   3.05   1.07    0.00    1.68
 1975 181    84    81   60.7    0.0   60.7   0.00   3.03   68.9   53.2    7.6    3.0   3.03   1.07    0.00    1.72
 1975 182    85    82   61.4    0.0   61.4   0.00   3.01   69.5   53.5    7.9    3.0   3.01   1.07    0.00    1.77
 1975 183    86    83   62.3    0.0   62.3   0.00   2.99   70.4   53.9    8.3    3.0   2.99   1.07    0.00    1.82
 1975 184    87    84   64.2    0.0   64.2   0.00   3.00   72.6   55.2    9.0    3.0   3.00   1.09    0.00    1.86
 1975 185    88    85   65.8    0.0   65.8   0.00   2.96   74.2   56.0    9.8    3.0   2.96   1.08    0.00    1.91
 1975 186    89    86   67.8    0.0   67.8   0.00   2.98   76.5   57.3   10.5    3.0   2.98   1.11    0.00    1.95
 1975 187    90    87   68.8    0.0   68.8   0.00   2.98   78.1   57.9   10.9    3.0   2.98   1.14    0.00    2.00
 1975 188    91    88   70.0    0.0   70.0   0.00   2.94   79.4   58.4   11.6    2.9   2.94   1.12    0.00    2.06
 1975 189    92    89   72.1    0.0   72.1   0.00   2.92   81.8   59.5   12.6    2.9   2.92   1.10    0.00    2.11
 1975 190    93    90   74.7    0.0   74.7   0.00   2.90   84.1   60.9   13.9    2.9   2.90   1.07    0.00    2.16
 1975 191    94    91   76.5    0.0   76.5   0.00   2.87   85.8   61.6   14.9    2.9   2.87   1.07    0.00    2.21
 1975 192    95    92   77.3    0.0   77.3   0.00   2.86   86.6   62.0   15.3    2.9   2.86   1.07    0.00    2.26
 1975 193    96    93   79.1    0.0   79.1   0.00   2.88   89.1   63.1   16.0    2.9   2.88   1.12    0.00    2.32
 1975 194    97    94   79.7    0.0   79.7   0.00   2.85   89.2   63.1   16.6    2.8   2.85   1.07    0.00    2.37
 1975 195    98    95   80.1    0.0   80.1   0.00   2.82   89.6   63.1   17.0    2.8   2.82   1.07    0.00    2.42
 1975 196    99    96   80.9    0.0   80.9   0.00   2.83   91.7   63.6   17.3    2.8   2.83   1.17    0.00    2.48
 1975 197   100    97   84.0    0.0   84.0   0.00   2.94   93.7   66.1   18.0    2.9   2.94   1.07    0.00    2.53
 1975 198   101    98   84.0    0.0   84.0   0.00   2.94   93.7   66.0   18.0    2.9   2.94   1.06    0.00    2.53
 1975 199   102    99   84.0    0.0   84.0   0.00   2.93   93.7   66.0   18.1    2.9   2.93   1.06    0.00    2.53
 1975 200   103   100   84.0    0.0   84.0   0.00   2.90   93.7   65.7   18.3    2.9   2.90   1.07    0.00    2.53
 1975 201   104   101   84.0    0.0   84.0   0.00   2.89   93.7   65.6   18.4    2.9   2.89   1.07    0.00    2.53
 1975 202   105   102   84.0    0.0   84.0   0.00   2.88   93.7   65.5   18.5    2.9   2.88   1.08    0.00    2.53
 1975 203   106   103   84.0    0.0   84.0   0.00   2.88   93.7   65.5   18.5    2.9   2.88   1.08    0.00    2.53
 1975 204   107   104   84.0    0.0   84.0   0.00   2.88   93.7   65.5   18.5    2.9   2.88   1.09    0.00    2.53
 1975 205   108   105   84.0    0.0   84.0   0.00   2.88   93.7   65.5   18.6    2.9   2.88   1.09    0.00    2.53
 1975 206   109   106   84.0    0.0   84.0   0.00   2.87   93.7   65.5   18.6    2.9   2.87   1.10    0.00    2.53
 1975 207   110   107   84.0    0.0   84.0   0.00   2.87   93.7   65.4   18.6    2.9   2.87   1.10    0.00    2.53
 1975 208   111   108   84.0    0.0   84.0   0.00   2.87   93.7   65.4   18.6    2.9   2.87   1.11    0.00    2.53
 1975 209   112   109   84.0    0.0   84.0   0.00   2.87   93.7   65.4   18.6    2.9   2.87   1.11    0.00    2.53
 1975 210   113   110   84.0    0.0   84.0   0.00   2.87   93.7   65.4   18.6    2.9   2.87   1.12    0.00    2.53
 1975 211   114   111   84.0    0.0   84.0   0.00   2.87   93.7   65.4   18.6    2.9   2.87   1.12    0.00    2.53
 1975 212   115   112   84.0    0.0   84.0   0.00   2.87   93.7   65.4   18.7    2.9   2.87   1.13    0.00    2.53
 1975 213   116   113   84.0    0.0   84.0   0.00   2.87   93.7   65.4   18.7    2.9   2.87   1.14    0.00    2.53
 1975 214   117   114   84.0    0.0   84.0   0.00   2.87   93.7   65.4   18.7    2.9   2.87   1.14    0.00    2.53
 1975 215   118   115   84.0    0.0   84.0   0.00   2.87   93.7   65.3   18.7    2.9   2.87   1.15    0.00    2.53
 1975 216   119   116   84.0    0.0   84.0   0.00   2.87   93.7   65.3   18.7    2.9   2.87   1.15    0.00    2.53
 1975 217   120   117   84.0    0.0   84.0   0.00   2.87   93.7   65.3   18.7    2.9   2.87   1.16    0.00    2.53
 1975 218   121   118   84.0    0.0   84.0   0.00   2.86   93.7   65.3   18.8    2.9   2.86   1.16    0.00    2.53
 1975 219   122   119   84.0    0.0   84.0   0.00   2.86   93.7   65.3   18.8    2.9   2.86   1.17    0.00    2.53
 1975 220   123   120   84.0    0.0   84.0   0.00   2.86   93.7   65.3   18.8    2.9   2.86   1.18    0.00    2.53
 1975 221   124   121   84.0    0.0   84.0   0.00   2.86   93.7   65.3   18.8    2.9   2.86   1.18    0.00    2.53
 1975 222   125   122   84.0    0.0   84.0   0.00   2.86   93.7   65.2   18.8    2.9   2.86   1.19    0.00    2.53
 1975 223   126   123   84.0    0.0   84.0   0.00   2.86   93.7   65.2   18.8    2.9   2.86   1.19    0.00    2.53
 1975 224   127   124   84.0    0.0   84.0   0.00   2.86   93.7   65.2   18.8    2.9   2.86   1.20    0.00    2.53
 1975 225   128   125   84.0    0.0   84.0   0.00   2.86   93.7   65.2   18.8    2.9   2.86   1.21    0.00    2.53
 1975 226   129   126   84.0    0.0   84.0   0.00   2.86   93.7   65.2   18.8    2.9   2.86   1.21    0.00    2.53
 1975 227   130   127   84.0    0.0   84.0   0.00   2.86   93.7   65.2   18.9    2.9   2.86   1.22    0.00    2.53
 1975 228   131   128   84.0    0.0   84.0   0.00   2.86   93.7   65.2   18.9    2.9   2.86   1.22    0.00    2.53
 1975 229   132   129   84.0    0.0   84.0   0.00   2.86   93.7   65.1   18.9    2.9   2.86   1.23    0.00    2.53
 1975 230   133   130   84.0    0.0   84.0   0.00   2.86   93.7   65.1   18.9    2.9   2.86   1.24    0.00    2.53
 1975 231   134   131   84.0    0.0   84.0   0.00   2.86   93.7   65.1   18.9    2.9   2.86   1.24    0.00    2.53
 1975 232   135   132   84.0    0.0   84.0   0.00   2.86   93.7   65.1   18.9    2.9   2.86   1.25    0.00    2.53
 1975 233   136   133   84.0    0.0   84.0   0.00   2.86   93.7   65.1   19.0    2.9   2.86   1.25    0.00    2.53
 1975 234   137   134   84.0    0.0   84.0   0.00   2.86   93.7   65.1   19.0    2.9   2.86   1.26    0.00    2.53
 1975 235   138   135   84.0    0.0   84.0   0.00   2.86   93.7   65.1   19.0    2.9   2.86   1.27    0.00    2.53
 1975 236   139   136   84.0    0.0   84.0   0.00   2.86   93.7   65.1   19.0    2.9   2.86   1.27    0.00    2.53
 1975 237   140   137   84.0    0.0   84.0   0.00   2.86   93.7   65.0   19.0    2.9   2.86   1.28    0.00    2.53
 1975 238   141   138   84.0    0.0   84.0   0.00   2.86   93.7   65.0   19.0    2.9   2.86   1.29    0.00    2.53
 1975 239   142   139   84.0    0.0   84.0   0.00   2.86   93.7   65.0   19.0    2.9   2.86   1.29    0.00    2.53
 1975 240   143   140   84.0    0.0   84.0   0.00   2.86   93.7   65.0   19.0    2.9   2.86   1.30    0.00    2.53
 1975 241   144   141   84.0    0.0   84.0   0.00   2.86   93.7   65.0   19.0    2.9   2.86   1.30    0.00    2.53
 1975 242   145   142   84.0    0.0   84.0   0.00   2.86   93.7   65.0   19.0    2.9   2.86   1.31    0.00    2.53
 1975 243   146   143   84.0    0.0   84.0   0.00   2.86   93.7   65.0   19.0    2.9   2.86   1.32    0.00    2.53
 1975 244   147   144   84.0    0.0   84.0   0.00   2.86   93.7   65.0   19.0    2.9   2.86   1.32    0.00    2.53
 1975 245   148   145   84.0    0.0   84.0   0.00   2.86   93.7   65.0   19.0    2.9   2.86   1.33    0.00    2.53
 1975 246   149   146   84.0    0.0   84.0   0.00   2.86   93.7   65.0   19.0    2.9   2.86   1.34    0.00    2.53
 1975 247   150   147   84.0    0.0   84.0   0.00   2.86   93.7   65.0   19.0    2.9   2.86   1.34    0.00    2.53
 1975 248   151   148   84.0    0.0   84.0   0.00   2.86   93.7   65.0   19.0    2.9   2.86   1.35    0.00    2.53
 1975 249   152   149   84.0    0.0   84.0   0.00   2.87   93.7   65.0   19.0    2.9   2.87   1.36    0.00    2.53
 1975 250   153   150   84.0    0.0   84.0   0.00   2.87   93.7   65.0   19.0    2.9   2.87   1.37    0.00    2.53
 1975 251   154   151   84.0    0.0   84.0   0.00   2.87   93.7   65.0   19.1    2.9   2.87   1.37    0.00    2.53
 1975 252   155   152   84.0    0.0   84.0   0.00   2.87   93.7   65.0   19.1    2.9   2.87   1.38    0.00    2.53
 1975 253   156   153   84.0    0.0   84.0   0.00   2.87   93.7   65.0   19.1    2.9   2.87   1.39    0.00    2.53
 1975 254   157   154   84.0    0.0   84.0   0.00   2.87   93.7   65.0   19.1    2.9   2.87   1.39    0.00    2.53
 1975 255   158   155   84.0    0.0   84.0   0.00   2.87   93.7   65.0   19.1    2.9   2.87   1.40    0.00    2.53
 1975 256   159   156   84.0    0.0   84.0   0.00   2.87   93.7   65.0   19.1    2.9   2.87   1.41    0.00    2.53
 1975 257   160   157   84.0    0.0   84.0   0.00   2.87   93.7   65.0   19.1    2.9   2.87   1.41    0.00    2.53
 1975 258   161   158   84.0    0.0   84.0   0.00   2.87   93.7   65.0   19.1    2.9   2.87   1.42    0.00    2.53
 1975 259   162   159   84.0    0.0   84.0   0.00   3.01   93.7   67.4   16.7    3.0   3.01   1.43    0.00    2.53
 1975 260   163   160   84.0    0.0   84.0   0.00   3.04   93.7   67.2   16.8    3.0   3.04   1.44    0.00    2.53
 1975 261   164   161   84.0    0.0   84.0   0.00   3.07   93.7   67.0   17.0    3.1   3.07   1.44    0.00    2.53
 1975 262   165   162   84.0    0.0   84.0   0.00   3.10   93.7   66.9   17.2    3.1   3.10   1.45    0.00    2.53
 1975 263   166   163   84.0    0.0   84.0   0.00   3.14   93.7   66.7   17.4    3.1   3.14   1.46    0.00    2.53
 1975 264   167   164   84.0    0.0   84.0   0.00   3.17   93.7   66.5   17.6    3.2   3.17   1.46    0.00    2.53
 1975 265   168   165   84.0    0.0   84.0   0.00   3.21   93.7   66.3   17.8    3.2   3.21   1.47    0.00    2.53
 1975 266   169   166   84.0    0.0   84.0   0.00   3.25   93.7   66.0   18.0    3.3   3.25   1.48    0.00    2.53
 1975 267   170   167   84.0    0.0   84.0   0.00   3.29   93.7   65.8   18.2    3.3   3.29   1.49    0.00    2.53
 1975 268   171   168   84.0    0.0   84.0   0.00   3.34   93.7   65.6   18.5    3.3   3.34   1.49    0.00    2.53
 1975 269   172   169   84.0    0.0   84.0   0.00   3.38   93.7   65.3   18.7    3.4   3.38   1.50    0.00    2.53
 1975 270   173   170   84.0    0.0   84.0   0.00   3.43   93.7   65.0   19.0    3.4   3.43   1.51    0.00    2.53
 1975 271   174   171   84.0    0.0   84.0   0.00   3.48   93.7   64.8   19.3    3.5   3.48   1.52    0.00    2.53
 1975 272   175   172   84.0    0.0   84.0   0.00   3.54   93.7   64.5   19.6    3.5   3.54   1.52    0.00    2.53
 1975 273   176   173   84.0    0.0   84.0   0.00   3.59   93.7   64.1   19.9    3.6   3.59   1.53    0.00    2.53
 1975 274   177   174   84.0    0.0   84.0   0.00   3.65   93.7   63.8   20.2    3.7   3.65   1.54    0.00    2.53
 1975 275   178   175   84.0    0.0   84.0   0.00   3.72   93.7   63.5   20.6    3.7   3.72   1.55    0.00    2.53
 1975 276   179   176   84.0    0.0   84.0   0.00   3.78   93.7   63.1   21.0    3.8   3.78   1.56    0.00    2.53
 1975 277   180   177   84.0    0.0   84.0   0.00   3.85   93.7   62.7   21.3    3.9   3.85   1.56    0.00    2.53
 1975 278   181   178   84.0    0.0   84.0   0.00   3.93   93.7   62.3   21.8    3.9   3.93   1.57    0.00    2.53
 1975 279   182   179   84.0    0.0   84.0   0.00   4.01   93.7   61.9   22.2    4.0   4.01   1.58    0.00    2.53
 1975 280   183   180   84.0    0.0   84.0   0.00   4.09   93.7   61.4   22.7    4.1   4.09   1.59    0.00    2.53
 1975 281   184   181   84.0    0.0   84.0   0.00   4.18   93.7   60.9   23.2    4.2   4.18   1.59    0.00    2.53
 1975 282   185   182   84.0    0.0   84.0   0.00   4.28   93.7   60.4   23.7    4.3   4.28   1.60    0.00    2.53
 1975 283   186   183   84.0    0.0   84.0   0.00   4.38   93.7   59.8   24.2    4.4   4.38   1.61    0.00    2.53
 1975 284   187   184   84.0    0.0   84.0   0.00   4.48   93.7   59.2   24.8    4.5   4.48   1.62    0.00    2.53
 1975 285   188   185   84.0    0.0   84.0   0.00   4.60   93.7   58.6   25.4    4.6   4.60   1.63    0.00    2.53
 1975 286   189   186   84.0    0.0   84.0   0.00   4.60   93.7   58.6   25.4    4.6   4.60   1.64    0.00    2.53
 1975 287   190   187   84.0    0.0   84.0   0.00   4.60   93.7   58.6   25.4    4.6   4.60   1.64    0.00    2.53
 1975 288   191   188   84.0    0.0   84.0   0.00   4.60   93.7   58.6   25.4    4.6   4.60   1.65    0.00    2.53
 1975 289   192   189   84.0    0.0   84.0   0.00   4.60   93.7   58.6   25.4    4.6   4.60   1.66    0.00    2.53
 1975 290   193   190   84.0    0.0   84.0   0.00   4.60   93.7   58.6   25.4    4.6   4.60   1.67    0.00    2.53
 1975 291   194   191   84.0    0.0   84.0   0.00   4.60   93.7   58.6   25.4    4.6   4.60   1.68    0.00    2.53
 1975 292   195   192   84.0    0.0   84.0   0.00   4.60   93.7   58.6   25.4    4.6   4.60   1.68    0.00    2.53
 1975 293   196   193   84.0    0.0   84.0   0.00   4.60   93.7   58.6   25.4    4.6   4.60   1.68    0.00    2.53
 1975 294   197   194   84.0    0.0   84.0   0.00   4.60   93.7   58.6   25.4    4.6   4.60   1.68    0.00    2.53

*DSSAT Cropping System Model Ver. 4.0.2.000               Aug 01, 2016; 15:44:49

*RUN   2        : UYMZ                    
 MODEL          : MZCER040 - Maize           
 EXPERIMENT     : UYMZ0105 MZ    late to create DSS                             
 TREATMENT  1   : UYMZ                    

@YEAR DOY   DAS   DAP   CNAD   GNAD   VNAD   GN%D   VN%D   NUPC   LNAD   SNAD   LN%D   SN%D   RN%D   SNN0C   SNN1C
 1976 100     3     0    0.0    0.0    0.0   0.00   0.00    0.0    0.0    0.0    0.0   0.00   0.00    0.00    0.00
 1976 101     4     1    0.0    0.0    0.0   0.00   0.00    0.0    0.0    0.0    0.0   0.00   0.00    0.00    0.00
 1976 102     5     2    0.0    0.0    0.0   0.00   0.00    0.0    0.0    0.0    0.0   0.00   0.00    0.00    0.00
 1976 103     6     3    0.0    0.0    0.0   0.00   0.00    0.0    0.0    0.0    0.0   0.00   0.00    0.00    0.00
 1976 104     7     4    0.0    0.0    0.0   0.00   0.00    0.0    0.0    0.0    0.0   0.00   0.00    0.00    0.00
 1976 105     8     5    0.0    0.0    0.0   0.00   0.00    0.0    0.0    0.0    0.0   0.00   0.00    0.00    0.00
 1976 106     9     6    0.0    0.0    0.0   0.00   0.00    0.0    0.0    0.0    0.0   0.00   0.00    0.00    0.00
 1976 107    10     7    1.2    0.0    1.2   0.00   4.40    0.0    0.6    0.6    4.4   4.40   0.00    0.00    0.00
 1976 108    11     8    1.3    0.0    1.3   0.00   4.52    0.2    0.6    0.6    4.5   4.52   1.09    0.00    0.00
 1976 109    12     9    1.3    0.0    1.3   0.00   4.52    0.2    0.6    0.6    4.5   4.52   1.07    0.00    0.00
 1976 110    13    10    1.3    0.0    1.3   0.00   4.52    0.2    0.6    0.6    4.5   4.52   1.04    0.00    0.00
 1976 111    14    11    1.2    0.0    1.2   0.00   4.45    0.2    0.6    0.6    4.5   4.45   1.17    0.00    0.00
 1976 112    15    12    1.2    0.0    1.2   0.00   4.44    0.2    0.6    0.6    4.4   4.44   1.14    0.00    0.00
 1976 113    16    13    1.2    0.0    1.2   0.00   4.42    0.2    0.6    0.6    4.4   4.42   1.18    0.00    0.00
 1976 114    17    14    1.2    0.0    1.2   0.00   4.40    0.2    0.6    0.6    4.4   4.40   1.17    0.00    0.00
 1976 115    18    15    1.2    0.0    1.2   0.00   4.39    0.3    0.6    0.6    4.4   4.39   1.17    0.00    0.01
 1976 116    19    16    1.2    0.0    1.2   0.00   4.36    0.3    0.6    0.6    4.4   4.36   1.19    0.00    0.01
 1976 117    20    17    1.2    0.0    1.2   0.00   4.21    0.4    0.6    0.6    4.2   4.21   1.22    0.00    0.01
 1976 118    21    18    1.2    0.0    1.2   0.00   3.66    0.4    0.7    0.5    3.7   3.66   1.20    0.00    0.01
 1976 119    22    19    1.5    0.0    1.5   0.00   3.64    0.7    1.0    0.5    3.6   3.64   1.18    0.00    0.01
 1976 120    23    20    1.7    0.0    1.7   0.00   3.72    1.0    1.2    0.5    3.7   3.72   1.20    0.00    0.01
 1976 121    24    21    2.0    0.0    2.0   0.00   3.94    1.4    1.4    0.6    3.9   3.94   1.28    0.00    0.02
 1976 122    25    22    2.1    0.0    2.1   0.00   4.02    1.7    1.6    0.6    4.0   4.02   1.29    0.00    0.02
 1976 123    26    23    2.2    0.0    2.2   0.00   3.87    1.9    1.7    0.5    3.9   3.87   1.20    0.00    0.02
 1976 124    27    24    2.4    0.0    2.4   0.00   3.72    2.1    1.9    0.5    3.7   3.72   1.14    0.00    0.03
 1976 125    28    25    2.7    0.0    2.7   0.00   3.71    2.5    2.2    0.5    3.7   3.71   1.18    0.00    0.03
 1976 126    29    26    3.1    0.0    3.1   0.00   3.64    2.9    2.6    0.5    3.6   3.64   1.11    0.00    0.04
 1976 127    30    27    3.5    0.0    3.5   0.00   3.58    3.4    3.0    0.5    3.6   3.58   1.14    0.00    0.04
 1976 128    31    28    4.1    0.0    4.1   0.00   3.79    3.9    3.5    0.5    3.8   3.79   1.11    0.00    0.05
 1976 129    32    29    4.4    0.0    4.4   0.00   3.81    4.5    3.9    0.5    3.8   3.81   1.19    0.00    0.05
 1976 130    33    30    4.8    0.0    4.8   0.00   3.83    5.0    4.2    0.5    3.8   3.83   1.21    0.00    0.06
 1976 131    34    31    5.1    0.0    5.1   0.00   3.81    5.6    4.5    0.5    3.8   3.81   1.22    0.00    0.07
 1976 132    35    32    5.4    0.0    5.4   0.00   3.79    6.2    4.9    0.5    3.8   3.79   1.20    0.00    0.08
 1976 133    36    33    5.8    0.0    5.8   0.00   3.82    6.9    5.3    0.5    3.8   3.82   1.21    0.00    0.09
 1976 134    37    34    6.2    0.0    6.2   0.00   3.70    7.3    5.7    0.5    3.7   3.70   1.16    0.00    0.10
 1976 135    38    35    6.7    0.0    6.7   0.00   3.64    8.1    6.2    0.5    3.6   3.64   1.16    0.00    0.11
 1976 136    39    36    7.4    0.0    7.4   0.00   3.49    9.0    6.9    0.5    3.5   3.49   1.15    0.00    0.12
 1976 137    40    37    8.4    0.0    8.4   0.00   3.54   10.1    7.9    0.5    3.5   3.54   1.12    0.00    0.14
 1976 138    41    38    9.4    0.0    9.4   0.00   3.64   11.0    8.9    0.5    3.6   3.64   1.08    0.00    0.15
 1976 139    42    39   10.2    0.0   10.2   0.00   3.79   12.4    9.7    0.5    3.8   3.79   1.22    0.00    0.16
 1976 140    43    40   10.6    0.0   10.6   0.00   3.82   12.7   10.1    0.5    3.8   3.82   1.14    0.00    0.18
 1976 141    44    41   11.0    0.0   11.0   0.00   3.83   13.4   10.4    0.5    3.8   3.83   1.18    0.00    0.20
 1976 142    45    42   11.3    0.0   11.3   0.00   3.78   14.0   10.7    0.5    3.8   3.78   1.19    0.00    0.22
 1976 143    46    43   11.7    0.0   11.7   0.00   3.84   14.1   11.2    0.5    3.8   3.84   1.09    0.00    0.24
 1976 144    47    44   11.9    0.0   11.9   0.00   3.64   14.9   11.4    0.5    3.6   3.64   1.16    0.00    0.25
 1976 145    48    45   12.7    0.0   12.7   0.00   3.94   16.2   12.2    0.6    3.9   3.94   1.17    0.00    0.27
 1976 146    49    46   12.7    0.0   12.7   0.00   3.72   16.2   12.2    0.5    3.7   3.72   1.12    0.00    0.27
 1976 147    50    47   13.1    0.0   13.1   0.00   3.73   16.5   12.6    0.5    3.7   3.73   1.10    0.00    0.30
 1976 148    51    48   14.2    0.0   14.2   0.00   3.78   17.8   13.6    0.5    3.8   3.78   1.10    0.00    0.32
 1976 149    52    49   14.8    0.0   14.8   0.00   3.68   18.3   14.3    0.5    3.7   3.68   1.07    0.00    0.35
 1976 150    53    50   15.4    0.0   15.4   0.00   3.63   18.9   14.9    0.5    3.6   3.63   1.07    0.00    0.37
 1976 151    54    51   16.1    0.0   16.1   0.00   3.59   20.1   15.6    0.5    3.6   3.59   1.14    0.00    0.39
 1976 152    55    52   16.6    0.0   16.6   0.00   3.55   21.2   16.1    0.5    3.6   3.55   1.17    0.00    0.42
 1976 153    56    53   17.4    0.0   17.4   0.00   3.53   22.1   16.9    0.5    3.5   3.53   1.12    0.00    0.45
 1976 154    57    54   18.2    0.0   18.2   0.00   3.57   23.6   17.6    0.5    3.6   3.57   1.20    0.00    0.48
 1976 155    58    55   18.2    0.0   18.2   0.00   3.56   24.2   17.7    0.5    3.6   3.56   1.25    0.00    0.51
 1976 156    59    56   18.2    0.0   18.2   0.00   3.53   24.2   17.7    0.5    3.5   3.53   1.23    0.00    0.51
 1976 157    60    57   18.2    0.0   18.2   0.00   3.46   24.2   17.7    0.5    3.5   3.46   1.23    0.00    0.51
 1976 158    61    58   19.3    0.0   19.3   0.00   3.55   24.2   18.7    0.5    3.6   3.55   1.07    0.00    0.55
 1976 159    62    59   19.3    0.0   19.3   0.00   3.50   25.0   18.7    0.5    3.5   3.50   1.16    0.00    0.58
 1976 160    63    60   19.6    0.0   19.6   0.00   3.52   25.6   19.0    0.6    3.5   3.52   1.18    0.00    0.61
 1976 161    64    61   20.0    0.0   20.0   0.00   3.54   26.1   19.4    0.6    3.5   3.54   1.17    0.00    0.65
 1976 162    65    62   20.2    0.0   20.2   0.00   3.54   26.2   19.7    0.6    3.5   3.54   1.13    0.00    0.68
 1976 163    66    63   20.2    0.0   20.2   0.00   3.51   26.2   19.7    0.6    3.5   3.51   1.13    0.00    0.68
 1976 164    67    64   20.7    0.0   20.7   0.00   3.54   26.6   20.1    0.6    3.5   3.54   1.11    0.00    0.72
 1976 165    68    65   21.0    0.0   21.0   0.00   3.52   26.7   20.4    0.6    3.5   3.52   1.08    0.00    0.75
 1976 166    69    66   21.2    0.0   21.2   0.00   3.50   26.8   20.6    0.6    3.5   3.50   1.07    0.00    0.79
 1976 167    70    67   21.6    0.0   21.6   0.00   3.44   27.2   21.0    0.6    3.4   3.44   1.07    0.00    0.82
 1976 168    71    68   21.9    0.0   21.9   0.00   3.44   27.4   21.2    0.6    3.4   3.44   1.07    0.00    0.86
 1976 169    72    69   22.5    0.0   22.5   0.00   3.47   28.0   21.8    0.7    3.5   3.47   1.07    0.00    0.89
 1976 170    73    70   22.6    0.0   22.6   0.00   3.40   28.1   21.9    0.7    3.4   3.40   1.07    0.00    0.92
 1976 171    74    71   23.2    0.0   23.2   0.00   3.39   28.7   22.5    0.7    3.4   3.39   1.07    0.00    0.96
 1976 172    75    72   23.5    0.0   23.5   0.00   3.36   29.0   22.8    0.7    3.4   3.36   1.07    0.00    0.99
 1976 173    76    73   24.2    0.0   24.2   0.00   3.32   29.6   23.3    0.8    3.3   3.32   1.07    0.00    1.02
 1976 174    77    74   24.9    0.0   24.9   0.00   3.28   30.4   24.0    0.9    3.3   3.28   1.07    0.00    1.05
 1976 175    78    75   26.0    0.0   26.0   0.00   3.25   31.4   24.8    1.1    3.2   3.25   1.07    0.00    1.09
 1976 176    79    76   26.4    0.0   26.4   0.00   3.22   31.8   25.2    1.2    3.2   3.22   1.07    0.00    1.12
 1976 177    80    77   26.9    0.0   26.9   0.00   3.25   32.3   25.6    1.3    3.2   3.25   1.07    0.00    1.15
 1976 178    81    78   27.6    0.0   27.6   0.00   3.29   33.1   26.2    1.3    3.3   3.29   1.10    0.00    1.19
 1976 179    82    79   27.7    0.0   27.7   0.00   3.26   33.3   26.3    1.4    3.3   3.26   1.10    0.00    1.22
 1976 180    83    80   28.2    0.0   28.2   0.00   3.26   33.6   26.7    1.5    3.3   3.26   1.07    0.00    1.25
 1976 181    84    81   28.5    0.0   28.5   0.00   3.28   33.9   27.0    1.5    3.3   3.28   1.07    0.00    1.28
 1976 182    85    82   28.6    0.0   28.6   0.00   3.26   34.0   27.1    1.6    3.3   3.26   1.07    0.00    1.32
 1976 183    86    83   28.6    0.0   28.6   0.00   3.23   34.0   27.0    1.6    3.2   3.23   1.07    0.00    1.32
 1976 184    87    84   28.6    0.0   28.6   0.00   3.20   34.0   27.0    1.6    3.2   3.20   1.08    0.00    1.32
 1976 185    88    85   28.6    0.0   28.6   0.00   3.17   34.0   26.9    1.7    3.2   3.17   1.08    0.00    1.32
 1976 186    89    86   29.0    0.0   29.0   0.00   3.19   34.2   27.2    1.7    3.2   3.19   1.07    0.00    1.35
 1976 187    90    87   29.0    0.0   29.0   0.00   3.18   34.2   27.2    1.7    3.2   3.18   1.07    0.00    1.35
 1976 188    91    88   29.0    0.0   29.0   0.00   3.18   34.2   27.2    1.7    3.2   3.18   1.08    0.00    1.35
 1976 189    92    89   29.0    0.0   29.0   0.00   3.18   34.2   27.2    1.7    3.2   3.18   1.08    0.00    1.35
 1976 190    93    90   29.0    0.0   29.0   0.00   3.18   34.2   27.2    1.7    3.2   3.18   1.09    0.00    1.35
 1976 191    94    91   29.0    0.0   29.0   0.00   3.18   34.2   27.2    1.7    3.2   3.18   1.09    0.00    1.35
 1976 192    95    92   29.0    0.0   29.0   0.00   3.18   34.2   27.2    1.7    3.2   3.18   1.10    0.00    1.35

*DSSAT Cropping System Model Ver. 4.0.2.000               Aug 01, 2016; 15:44:49

*RUN   3        : UYMZ                    
 MODEL          : MZCER040 - Maize           
 EXPERIMENT     : UYMZ0105 MZ    late to create DSS                             
 TREATMENT  1   : UYMZ                    

@YEAR DOY   DAS   DAP   CNAD   GNAD   VNAD   GN%D   VN%D   NUPC   LNAD   SNAD   LN%D   SN%D   RN%D   SNN0C   SNN1C
 1977 100     3     0    0.0    0.0    0.0   0.00   0.00    0.0    0.0    0.0    0.0   0.00   0.00    0.00    0.00
 1977 101     4     1    0.0    0.0    0.0   0.00   0.00    0.0    0.0    0.0    0.0   0.00   0.00    0.00    0.00
 1977 102     5     2    0.0    0.0    0.0   0.00   0.00    0.0    0.0    0.0    0.0   0.00   0.00    0.00    0.00
 1977 103     6     3    0.0    0.0    0.0   0.00   0.00    0.0    0.0    0.0    0.0   0.00   0.00    0.00    0.00
 1977 104     7     4    0.0    0.0    0.0   0.00   0.00    0.0    0.0    0.0    0.0   0.00   0.00    0.00    0.00
 1977 105     8     5    0.0    0.0    0.0   0.00   0.00    0.0    0.0    0.0    0.0   0.00   0.00    0.00    0.00
 1977 106     9     6    0.0    0.0    0.0   0.00   0.00    0.0    0.0    0.0    0.0   0.00   0.00    0.00    0.00
 1977 107    10     7    1.2    0.0    1.2   0.00   4.40    0.0    0.6    0.6    4.4   4.40   0.00    0.00    0.00
 1977 108    11     8    1.3    0.0    1.3   0.00   4.54    0.2    0.6    0.6    4.5   4.54   1.09    0.00    0.00
 1977 109    12     9    1.3    0.0    1.3   0.00   4.51    0.2    0.6    0.6    4.5   4.51   1.12    0.00    0.00
 1977 110    13    10    1.3    0.0    1.3   0.00   4.49    0.2    0.6    0.6    4.5   4.49   1.13    0.00    0.00
 1977 111    14    11    1.2    0.0    1.2   0.00   4.46    0.2    0.6    0.6    4.5   4.46   1.14    0.00    0.00
 1977 112    15    12    1.2    0.0    1.2   0.00   4.43    0.2    0.6    0.6    4.4   4.43   1.15    0.00    0.00
 1977 113    16    13    1.2    0.0    1.2   0.00   4.40    0.2    0.6    0.6    4.4   4.40   1.17    0.00    0.00
 1977 114    17    14    1.2    0.0    1.2   0.00   4.37    0.3    0.6    0.6    4.4   4.37   1.20    0.00    0.01
 1977 115    18    15    1.2    0.0    1.2   0.00   4.18    0.3    0.6    0.6    4.2   4.18   1.20    0.00    0.01
 1977 116    19    16    1.3    0.0    1.3   0.00   3.50    0.4    0.8    0.5    3.5   3.50   1.16    0.00    0.01
 1977 117    20    17    1.5    0.0    1.5   0.00   3.55    0.7    1.0    0.5    3.5   3.55   1.18    0.00    0.01
 1977 118    21    18    1.8    0.0    1.8   0.00   3.53    1.1    1.3    0.5    3.5   3.53   1.22    0.00    0.01
 1977 119    22    19    2.2    0.0    2.2   0.00   3.40    1.5    1.7    0.5    3.4   3.40   1.21    0.00    0.01
 1977 120    23    20    2.7    0.0    2.7   0.00   3.47    2.2    2.2    0.5    3.5   3.47   1.26    0.00    0.02
 1977 121    24    21    3.3    0.0    3.3   0.00   3.68    2.6    2.8    0.5    3.7   3.68   1.10    0.00    0.02
 1977 122    25    22    3.7    0.0    3.7   0.00   3.93    3.5    3.1    0.6    3.9   3.93   1.36    0.00    0.02
 1977 123    26    23    3.9    0.0    3.9   0.00   3.90    3.9    3.4    0.5    3.9   3.90   1.30    0.00    0.03
 1977 124    27    24    4.1    0.0    4.1   0.00   3.55    4.1    3.6    0.5    3.6   3.55   1.17    0.00    0.03
 1977 125    28    25    4.7    0.0    4.7   0.00   3.67    4.6    4.2    0.5    3.7   3.67   1.09    0.00    0.04
 1977 126    29    26    5.3    0.0    5.3   0.00   3.71    5.2    4.8    0.5    3.7   3.71   1.09    0.00    0.05
 1977 127    30    27    5.8    0.0    5.8   0.00   3.78    5.9    5.2    0.5    3.8   3.78   1.15    0.00    0.05
 1977 128    31    28    6.2    0.0    6.2   0.00   3.84    6.6    5.6    0.5    3.8   3.84   1.22    0.00    0.06
 1977 129    32    29    6.5    0.0    6.5   0.00   3.82    6.8    5.9    0.5    3.8   3.82   1.14    0.00    0.07
 1977 130    33    30    6.8    0.0    6.8   0.00   3.83    7.6    6.2    0.5    3.8   3.83   1.27    0.00    0.07
 1977 131    34    31    7.1    0.0    7.1   0.00   3.73    8.1    6.6    0.5    3.7   3.73   1.21    0.00    0.09
 1977 132    35    32    7.6    0.0    7.6   0.00   3.63    8.9    7.1    0.5    3.6   3.63   1.19    0.00    0.10
 1977 133    36    33    8.2    0.0    8.2   0.00   3.56    9.8    7.7    0.5    3.6   3.56   1.17    0.00    0.11
 1977 134    37    34    9.1    0.0    9.1   0.00   3.82   11.0    8.6    0.5    3.8   3.82   1.22    0.00    0.12
 1977 135    38    35    9.5    0.0    9.5   0.00   3.86   11.4    8.9    0.5    3.9   3.86   1.18    0.00    0.14
 1977 136    39    36    9.7    0.0    9.7   0.00   3.88   11.8    9.1    0.5    3.9   3.88   1.22    0.00    0.15
 1977 137    40    37    9.8    0.0    9.8   0.00   3.87   12.3    9.3    0.5    3.9   3.87   1.24    0.00    0.17
 1977 138    41    38   10.0    0.0   10.0   0.00   3.85   12.7    9.5    0.5    3.8   3.85   1.24    0.00    0.19
 1977 139    42    39   10.2    0.0   10.2   0.00   3.82   13.0    9.7    0.5    3.8   3.82   1.19    0.00    0.21
 1977 140    43    40   10.5    0.0   10.5   0.00   3.74   13.3   10.0    0.5    3.7   3.74   1.14    0.00    0.23
 1977 141    44    41   11.0    0.0   11.0   0.00   3.71   13.6   10.5    0.5    3.7   3.71   1.08    0.00    0.25
 1977 142    45    42   11.6    0.0   11.6   0.00   3.87   14.3   11.0    0.5    3.9   3.87   1.11    0.00    0.27
 1977 143    46    43   11.7    0.0   11.7   0.00   3.84   14.8   11.1    0.5    3.8   3.84   1.17    0.00    0.29
 1977 144    47    44   11.9    0.0   11.9   0.00   3.80   14.9   11.3    0.5    3.8   3.80   1.13    0.00    0.31
 1977 145    48    45   12.1    0.0   12.1   0.00   3.93   15.1   11.6    0.6    3.9   3.93   1.08    0.00    0.33
 1977 146    49    46   12.1    0.0   12.1   0.00   3.87   15.1   11.6    0.5    3.9   3.87   1.09    0.00    0.33
 1977 147    50    47   12.1    0.0   12.1   0.00   3.69   15.1   11.6    0.5    3.7   3.69   1.08    0.00    0.33
 1977 148    51    48   12.9    0.0   12.9   0.00   3.79   15.9   12.4    0.5    3.8   3.79   1.09    0.00    0.35
 1977 149    52    49   12.8    0.0   12.8   0.00   3.70   16.1   12.3    0.5    3.7   3.70   1.13    0.00    0.37
 1977 150    53    50   12.7    0.0   12.7   0.00   3.62   16.2   12.2    0.5    3.6   3.62   1.13    0.00    0.39
 1977 151    54    51   13.1    0.0   13.1   0.00   3.61   16.4   12.5    0.5    3.6   3.61   1.10    0.00    0.42
 1977 152    55    52   13.5    0.0   13.5   0.00   3.59   16.7   13.0    0.5    3.6   3.59   1.07    0.00    0.44
 1977 153    56    53   14.2    0.0   14.2   0.00   3.55   17.5   13.7    0.5    3.6   3.55   1.07    0.00    0.46
 1977 154    57    54   15.2    0.0   15.2   0.00   3.52   18.4   14.7    0.5    3.5   3.52   1.07    0.00    0.48
 1977 155    58    55   15.4    0.0   15.4   0.00   3.49   18.7   14.9    0.5    3.5   3.49   1.07    0.00    0.51
 1977 156    59    56   15.8    0.0   15.8   0.00   3.47   19.0   15.3    0.5    3.5   3.47   1.07    0.00    0.53
 1977 157    60    57   16.1    0.0   16.1   0.00   3.46   19.3   15.6    0.5    3.5   3.46   1.07    0.00    0.55
 1977 158    61    58   16.6    0.0   16.6   0.00   3.42   19.8   16.1    0.5    3.4   3.42   1.07    0.00    0.57
 1977 159    62    59   17.9    0.0   17.9   0.00   3.40   21.1   17.3    0.6    3.4   3.40   1.07    0.00    0.59
 1977 160    63    60   19.1    0.0   19.1   0.00   3.37   22.3   18.4    0.7    3.4   3.37   1.07    0.00    0.62
 1977 161    64    61   20.3    0.0   20.3   0.00   3.37   23.8   19.5    0.8    3.4   3.37   1.11    0.00    0.64
 1977 162    65    62   21.3    0.0   21.3   0.00   3.43   25.1   20.5    0.8    3.4   3.43   1.15    0.00    0.66
 1977 163    66    63   22.0    0.0   22.0   0.00   3.33   25.8   21.1    0.9    3.3   3.33   1.10    0.00    0.69
 1977 164    67    64   23.7    0.0   23.7   0.00   3.31   27.5   22.6    1.1    3.3   3.31   1.09    0.00    0.71
 1977 165    68    65   25.5    0.0   25.5   0.00   3.29   29.3   24.2    1.3    3.3   3.29   1.08    0.00    0.74
 1977 166    69    66   26.7    0.0   26.7   0.00   3.31   30.9   25.3    1.4    3.3   3.31   1.13    0.00    0.76
 1977 167    70    67   27.6    0.0   27.6   0.00   3.32   32.1   26.1    1.5    3.3   3.32   1.15    0.00    0.79
 1977 168    71    68   27.6    0.0   27.6   0.00   3.21   32.1   26.1    1.6    3.2   3.21   1.15    0.00    0.79
 1977 169    72    69   29.0    0.0   29.0   0.00   3.30   33.2   27.4    1.7    3.3   3.30   1.08    0.00    0.82
 1977 170    73    70   29.8    0.0   29.8   0.00   3.28   34.3   27.9    1.8    3.3   3.28   1.13    0.00    0.84
 1977 171    74    71   29.8    0.0   29.8   0.00   3.25   34.3   27.9    1.8    3.3   3.25   1.13    0.00    0.84
 1977 172    75    72   29.8    0.0   29.8   0.00   3.26   34.3   27.9    1.8    3.3   3.26   1.13    0.00    0.84
 1977 173    76    73   30.1    0.0   30.1   0.00   3.26   34.7   28.2    1.9    3.3   3.26   1.12    0.00    0.87
 1977 174    77    74   30.6    0.0   30.6   0.00   3.27   35.0   28.7    1.9    3.3   3.27   1.09    0.00    0.90
 1977 175    78    75   30.6    0.0   30.6   0.00   3.26   35.0   28.6    2.0    3.3   3.26   1.09    0.00    0.90
 1977 176    79    76   30.7    0.0   30.7   0.00   3.24   35.3   28.7    2.0    3.2   3.24   1.12    0.00    0.93
 1977 177    80    77   31.2    0.0   31.2   0.00   3.25   35.8   29.2    2.1    3.3   3.25   1.11    0.00    0.96
 1977 178    81    78   31.2    0.0   31.2   0.00   3.22   35.8   29.1    2.1    3.2   3.22   1.11    0.00    0.96
 1977 179    82    79   32.1    0.0   32.1   0.00   3.23   36.6   29.9    2.2    3.2   3.23   1.09    0.00    0.98
 1977 180    83    80   32.1    0.0   32.1   0.00   3.19   36.6   29.8    2.3    3.2   3.19   1.09    0.00    0.98
 1977 181    84    81   32.5    0.0   32.5   0.00   3.15   36.9   30.1    2.4    3.1   3.15   1.07    0.00    1.01
 1977 182    85    82   33.0    0.0   33.0   0.00   3.11   37.3   30.4    2.6    3.1   3.11   1.07    0.00    1.04
 1977 183    86    83   34.2    0.0   34.2   0.00   3.08   38.5   31.2    3.0    3.1   3.08   1.07    0.00    1.07
 1977 184    87    84   34.5    0.0   34.5   0.00   3.06   38.8   31.4    3.1    3.1   3.06   1.07    0.00    1.09
 1977 185    88    85   35.0    0.0   35.0   0.00   3.09   39.3   31.8    3.2    3.1   3.09   1.07    0.00    1.12
 1977 186    89    86   35.1    0.0   35.1   0.00   3.07   39.4   31.8    3.3    3.1   3.07   1.07    0.00    1.15
 1977 187    90    87   35.3    0.0   35.3   0.00   3.04   39.5   31.9    3.4    3.0   3.04   1.07    0.00    1.18
 1977 188    91    88   35.6    0.0   35.6   0.00   3.05   40.0   32.2    3.5    3.0   3.05   1.07    0.00    1.20
 1977 189    92    89   36.0    0.0   36.0   0.00   3.03   40.8   32.4    3.6    3.0   3.03   1.13    0.00    1.23
 1977 190    93    90   36.0    0.0   36.0   0.00   2.98   40.8   32.2    3.8    3.0   2.98   1.13    0.00    1.23
 1977 191    94    91   36.5    0.0   36.5   0.00   2.97   41.0   32.6    4.0    3.0   2.97   1.07    0.00    1.26
 1977 192    95    92   38.2    0.0   38.2   0.00   2.94   42.7   33.5    4.7    2.9   2.94   1.07    0.00    1.29
 1977 193    96    93   38.6    0.0   38.6   0.00   2.92   43.0   33.7    4.9    2.9   2.92   1.07    0.00    1.32
 1977 194    97    94   39.1    0.0   39.1   0.00   2.93   43.6   34.0    5.1    2.9   2.93   1.07    0.00    1.34
 1977 195    98    95   39.5    0.0   39.5   0.00   2.90   44.0   34.2    5.3    2.9   2.90   1.07    0.00    1.37
 1977 196    99    96   40.3    0.0   40.3   0.00   2.92   44.9   34.7    5.6    2.9   2.92   1.10    0.00    1.40
 1977 197   100    97   40.4    0.0   40.4   0.00   2.92   45.6   34.8    5.6    2.9   2.92   1.20    0.00    1.43
 1977 198   101    98   41.3    0.0   41.3   0.00   2.92   46.2   35.3    6.0    2.9   2.92   1.11    0.00    1.46
 1977 199   102    99   42.2    0.0   42.2   0.00   2.93   47.2   35.9    6.3    2.9   2.93   1.12    0.00    1.49
 1977 200   103   100   43.0    0.0   43.0   0.00   2.94   47.9   36.4    6.6    2.9   2.94   1.11    0.00    1.52
 1977 201   104   101   43.0    0.0   43.0   0.00   2.92   47.9   36.3    6.7    2.9   2.92   1.11    0.00    1.52
 1977 202   105   102   43.0    0.0   43.0   0.00   2.90   47.9   36.2    6.8    2.9   2.90   1.11    0.00    1.52
 1977 203   106   103   43.3    0.0   43.3   0.00   2.84   48.0   36.1    7.2    2.8   2.84   1.07    0.00    1.55
 1977 204   107   104   43.6    0.0   43.6   0.00   2.83   48.2   36.2    7.4    2.8   2.83   1.07    0.00    1.58
 1977 205   108   105   44.2    0.0   44.2   0.00   2.84   49.0   36.6    7.6    2.8   2.84   1.09    0.00    1.61
 1977 206   109   106   45.2    0.0   45.2   0.00   2.82   49.9   37.0    8.1    2.8   2.82   1.08    0.00    1.63
 1977 207   110   107   45.5    0.0   45.5   0.00   2.80   50.2   37.1    8.4    2.8   2.80   1.07    0.00    1.66
 1977 208   111   108   45.6    0.0   45.6   0.00   2.78   50.2   37.0    8.5    2.8   2.78   1.07    0.00    1.69
 1977 209   112   109   45.7    0.0   45.7   0.00   2.76   50.4   37.1    8.6    2.8   2.76   1.07    0.00    1.72
 1977 210   113   110   46.1    0.0   46.1   0.00   2.74   50.8   37.2    8.9    2.7   2.74   1.07    0.00    1.75
 1977 211   114   111   46.5    0.0   46.5   0.00   2.73   51.1   37.4    9.1    2.7   2.73   1.07    0.00    1.78
 1977 212   115   112   47.8    0.0   47.8   0.00   2.76   52.6   38.1    9.6    2.8   2.76   1.10    0.00    1.81
 1977 213   116   113   48.1    0.0   48.1   0.00   2.76   52.8   38.3    9.8    2.8   2.76   1.07    0.00    1.84
 1977 214   117   114   48.9    0.0   48.9   0.00   2.77   53.6   38.7   10.2    2.8   2.77   1.08    0.00    1.86
 1977 215   118   115   49.1    0.0   49.1   0.00   2.75   53.7   38.6   10.5    2.7   2.75   1.07    0.00    1.89
 1977 216   119   116   49.1    0.0   49.1   0.00   2.72   53.7   38.4   10.7    2.7   2.72   1.08    0.00    1.89
 1977 217   120   117   49.1    0.0   49.1   0.00   2.70   53.7   38.3   10.8    2.7   2.70   1.08    0.00    1.89
 1977 218   121   118   49.1    0.0   49.1   0.00   2.69   53.7   38.2   10.9    2.7   2.69   1.09    0.00    1.89
 1977 219   122   119   49.1    0.0   49.1   0.00   2.68   53.7   38.1   11.0    2.7   2.68   1.09    0.00    1.89
 1977 220   123   120   49.4    0.0   49.4   0.00   2.66   53.9   38.0   11.4    2.7   2.66   1.07    0.00    1.92
 1977 221   124   121   50.2    0.0   50.2   0.00   2.66   54.7   38.3   11.8    2.7   2.66   1.07    0.00    1.95
 1977 222   125   122   50.2    0.0   50.2   0.00   2.65   54.7   38.2   12.0    2.6   2.65   1.08    0.00    1.95
 1977 223   126   123   50.2    0.0   50.2   0.00   2.63   54.7   38.0   12.1    2.6   2.63   1.08    0.00    1.95
 1977 224   127   124   50.3    0.0   50.3   0.00   2.61   54.7   37.9   12.4    2.6   2.61   1.07    0.00    1.98
 1977 225   128   125   51.3    0.0   51.3   0.00   2.63   55.8   38.4   13.0    2.6   2.63   1.07    0.00    2.00
 1977 226   129   126   52.0    0.0   52.0   0.00   2.62   56.5   38.5   13.5    2.6   2.62   1.07    0.00    2.03
 1977 227   130   127   52.8    0.0   52.8   0.00   2.62   57.3   38.7   14.1    2.6   2.62   1.07    0.00    2.06
 1977 228   131   128   53.2    0.0   53.2   0.00   2.60   57.6   38.7   14.5    2.6   2.60   1.07    0.00    2.09
 1977 229   132   129   53.3    0.0   53.3   0.00   2.58   57.8   38.5   14.8    2.6   2.58   1.07    0.00    2.11
 1977 230   133   130   53.6    0.0   53.6   0.00   2.58   58.0   38.6   15.1    2.6   2.58   1.07    0.00    2.14
 1977 231   134   131   53.8    0.0   53.8   0.00   2.57   58.2   38.5   15.3    2.6   2.57   1.07    0.00    2.17
 1977 232   135   132   54.0    0.0   54.0   0.00   2.55   58.3   38.4   15.6    2.5   2.55   1.07    0.00    2.20
 1977 233   136   133   54.0    0.0   54.0   0.00   2.53   58.3   38.2   15.8    2.5   2.53   1.07    0.00    2.20
 1977 234   137   134   54.0    0.0   54.0   0.00   2.52   58.3   38.1   15.9    2.5   2.52   1.08    0.00    2.20
 1977 235   138   135   54.0    0.0   54.0   0.00   2.51   58.3   38.0   16.0    2.5   2.51   1.08    0.00    2.20
 1977 236   139   136   54.0    0.0   54.0   0.00   2.50   58.3   37.9   16.1    2.5   2.50   1.08    0.00    2.20
 1977 237   140   137   54.0    0.0   54.0   0.00   2.48   58.3   37.6   16.3    2.5   2.48   1.09    0.00    2.20
 1977 238   141   138   54.1    0.0   54.1   0.00   2.47   58.4   37.5   16.6    2.5   2.47   1.07    0.00    2.22
 1977 239   142   139   54.1    0.0   54.1   0.00   2.46   58.4   37.5   16.6    2.5   2.46   1.07    0.00    2.22
 1977 240   143   140   54.3    0.0   54.3   0.00   2.44   58.5   37.3   16.9    2.4   2.44   1.07    0.00    2.25
 1977 241   144   141   54.3    0.0   54.3   0.00   2.43   58.5   37.2   17.0    2.4   2.43   1.07    0.00    2.25
 1977 242   145   142   54.3    0.0   54.3   0.00   2.41   58.5   37.0   17.2    2.4   2.41   1.08    0.00    2.25
 1977 243   146   143   54.5    0.0   54.5   0.00   2.41   58.7   37.0   17.5    2.4   2.41   1.07    0.00    2.28
 1977 244   147   144   54.8    0.0   54.8   0.00   2.41   58.9   37.0   17.7    2.4   2.41   1.07    0.00    2.30
 1977 245   148   145   54.8    0.0   54.8   0.00   2.39   59.0   36.9   17.9    2.4   2.39   1.07    0.00    2.33
 1977 246   149   146   54.8    0.0   54.8   0.00   2.38   59.0   36.7   18.1    2.4   2.38   1.07    0.00    2.33
 1977 247   150   147   54.8    0.0   54.8   0.00   2.37   59.0   36.6   18.2    2.4   2.37   1.08    0.00    2.33
 1977 248   151   148   54.8    0.0   54.8   0.00   2.36   59.0   36.6   18.3    2.4   2.36   1.08    0.00    2.33
 1977 249   152   149   54.8    0.0   54.8   0.00   2.36   59.0   36.5   18.3    2.4   2.36   1.09    0.00    2.33
 1977 250   153   150   54.8    0.0   54.8   0.00   2.34   59.0   36.4   18.5    2.3   2.34   1.09    0.00    2.33
 1977 251   154   151   54.8    0.0   54.8   0.00   2.33   59.0   36.2   18.6    2.3   2.33   1.09    0.00    2.33
 1977 252   155   152   54.8    0.0   54.8   0.00   2.31   59.0   36.0   18.8    2.3   2.31   1.10    0.00    2.33
 1977 253   156   153   54.8    0.0   54.8   0.00   2.31   59.0   36.0   18.9    2.3   2.31   1.10    0.00    2.33
 1977 254   157   154   54.8    0.0   54.8   0.00   2.30   59.0   35.9   18.9    2.3   2.30   1.11    0.00    2.33
 1977 255   158   155   54.8    0.0   54.8   0.00   2.46   59.0   37.9   16.9    2.5   2.46   1.11    0.00    2.33
 1977 256   159   156   54.8    0.0   54.8   0.00   2.48   59.0   37.7   17.1    2.5   2.48   1.11    0.00    2.33
 1977 257   160   157   54.8    0.0   54.8   0.00   2.50   59.0   37.5   17.3    2.5   2.50   1.12    0.00    2.33
 1977 258   161   158   54.8    0.0   54.8   0.00   2.52   59.0   37.3   17.5    2.5   2.52   1.12    0.00    2.33
 1977 259   162   159   54.8    0.0   54.8   0.00   2.55   59.0   37.1   17.8    2.5   2.55   1.13    0.00    2.33
 1977 260   163   160   54.8    0.0   54.8   0.00   2.57   59.0   36.8   18.0    2.6   2.57   1.13    0.00    2.33
 1977 261   164   161   54.8    0.0   54.8   0.00   2.59   59.0   36.5   18.3    2.6   2.59   1.14    0.00    2.33
 1977 262   165   162   54.8    0.0   54.8   0.00   2.61   59.0   36.2   18.6    2.6   2.61   1.14    0.00    2.33
 1977 263   166   163   54.8    0.0   54.8   0.00   2.64   59.0   35.9   19.0    2.6   2.64   1.14    0.00    2.33
 1977 264   167   164   54.8    0.0   54.8   0.00   2.67   59.0   35.5   19.3    2.7   2.67   1.15    0.00    2.33
 1977 265   168   165   54.8    0.0   54.8   0.00   2.70   59.0   35.2   19.6    2.7   2.70   1.15    0.00    2.33
 1977 266   169   166   54.8    0.0   54.8   0.00   2.73   59.0   34.8   20.0    2.7   2.73   1.16    0.00    2.33
 1977 267   170   167   54.8    0.0   54.8   0.00   2.76   59.0   34.4   20.4    2.8   2.76   1.16    0.00    2.33
 1977 268   171   168   54.8    0.0   54.8   0.00   2.79   59.0   34.0   20.8    2.8   2.79   1.16    0.00    2.33
 1977 269   172   169   54.8    0.0   54.8   0.00   2.83   59.0   33.6   21.3    2.8   2.83   1.17    0.00    2.33
 1977 270   173   170   54.8    0.0   54.8   0.00   2.87   59.0   33.1   21.7    2.9   2.87   1.17    0.00    2.33
 1977 271   174   171   54.8    0.0   54.8   0.00   2.91   59.0   32.7   22.1    2.9   2.91   1.17    0.00    2.33
 1977 272   175   172   54.8    0.0   54.8   0.00   2.95   59.0   32.2   22.6    3.0   2.95   1.18    0.00    2.33
 1977 273   176   173   54.8    0.0   54.8   0.00   3.00   59.0   31.7   23.1    3.0   3.00   1.18    0.00    2.33
 1977 274   177   174   54.8    0.0   54.8   0.00   3.05   59.0   31.2   23.6    3.0   3.05   1.19    0.00    2.33
 1977 275   178   175   54.8    0.4   54.4   1.70   3.04   59.0   31.1   23.3    3.0   3.04   1.19    0.00    2.33
 1977 276   179   176   54.8    0.8   54.0   1.70   3.03   59.0   31.0   23.1    3.0   3.03   1.20    0.00    2.33
 1977 277   180   177   54.8    1.1   53.7   1.70   3.00   59.0   30.7   23.0    3.0   3.00   1.20    0.00    2.33
 1977 278   181   178   54.8    1.4   53.4   1.70   2.98   59.0   30.5   22.9    3.0   2.98   1.20    0.00    2.33
 1977 279   182   179   54.8    2.0   52.8   1.70   2.97   59.0   30.4   22.4    3.0   2.97   1.21    0.00    2.33
 1977 280   183   180   54.8    2.7   52.2   1.70   2.95   59.0   30.2   22.0    2.9   2.95   1.22    0.00    2.33
 1977 281   184   181   54.8    3.2   51.7   1.70   2.96   59.0   30.3   21.4    3.0   2.96   1.22    0.00    2.33
 1977 282   185   182   54.8    3.5   51.3   1.70   2.96   59.0   30.3   21.0    3.0   2.96   1.23    0.00    2.33
 1977 283   186   183   54.8    3.6   51.2   1.70   2.95   59.0   30.2   21.0    3.0   2.95   1.23    0.00    2.33
 1977 284   187   184   54.8    3.7   51.1   1.70   2.94   59.0   30.1   21.0    2.9   2.94   1.24    0.00    2.33
 1977 285   188   185   54.8    3.8   51.1   1.70   2.93   59.0   30.0   21.1    2.9   2.93   1.23    0.00    2.33
 1977 286   189   186   54.8    4.1   50.8   1.70   2.91   59.0   29.8   21.0    2.9   2.91   1.23    0.00    2.33
 1977 287   190   187   54.8    4.4   50.4   1.70   2.91   59.0   29.8   20.6    2.9   2.91   1.24    0.00    2.33
 1977 288   191   188   54.8    4.7   50.1   1.70   2.90   59.0   29.7   20.4    2.9   2.90   1.25    0.00    2.33
 1977 289   192   189   54.8    4.9   49.9   1.70   2.87   59.0   29.4   20.5    2.9   2.87   1.24    0.00    2.33
 1977 290   193   190   54.8    5.2   49.7   1.70   2.85   59.0   29.2   20.5    2.8   2.85   1.24    0.00    2.33
 1977 291   194   191   54.8    5.5   49.3   1.70   2.82   59.0   28.9   20.4    2.8   2.82   1.24    0.00    2.33
 1977 292   195   192   54.8    6.0   48.9   1.70   2.79   59.0   28.6   20.3    2.8   2.79   1.24    0.00    2.33
 1977 293   196   193   54.8    6.5   48.3   1.70   2.76   59.0   28.3   20.0    2.8   2.76   1.25    0.00    2.33
 1977 294   197   194   54.8    7.1   47.7   1.70   2.74   59.0   28.1   19.6    2.7   2.74   1.25    0.00    2.33
 1977 295   198   195   54.8    7.7   47.1   1.70   2.72   59.0   27.9   19.2    2.7   2.72   1.26    0.00    2.33
 1977 296   199   196   54.8    8.3   46.5   1.70   2.71   59.0   27.8   18.8    2.7   2.71   1.27    0.00    2.33
 1977 297   200   197   54.8    8.9   45.9   1.70   2.72   59.0   27.8   18.1    2.7   2.72   1.27    0.00    2.33
 1977 298   201   198   54.8    9.4   45.4   1.70   2.72   59.0   27.8   17.6    2.7   2.72   1.28    0.00    2.33
 1977 299   202   199   54.8    9.8   45.0   1.70   2.71   59.0   27.7   17.2    2.7   2.71   1.28    0.00    2.33
 1977 300   203   200   54.8   10.3   44.5   1.70   2.69   59.0   27.6   16.9    2.7   2.69   1.29    0.00    2.33
 1977 301   204   201   54.8   10.8   44.1   1.70   2.67   59.0   27.4   16.7    2.7   2.67   1.30    0.00    2.33
 1977 302   205   202   54.8   11.4   43.5   1.70   2.65   59.0   27.1   16.3    2.6   2.65   1.30    0.00    2.33
 1977 303   206   203   54.8   12.0   42.9   1.70   2.62   59.0   26.8   16.0    2.6   2.62   1.31    0.00    2.33
 1977 304   207   204   54.8   12.6   42.3   1.70   2.61   59.0   26.7   15.5    2.6   2.61   1.32    0.00    2.33
 1977 305   208   205   54.8   13.0   41.8   1.70   2.60   59.0   26.6   15.2    2.6   2.60   1.32    0.00    2.33
 1977 306   209   206   54.8   13.5   41.3   1.70   2.56   59.0   26.2   15.1    2.6   2.56   1.33    0.00    2.33
 1977 307   210   207   54.8   13.8   41.1   1.70   2.53   59.0   26.0   15.1    2.5   2.53   1.33    0.00    2.33
 1977 308   211   208   54.8   14.1   40.7   1.70   2.51   59.0   25.7   15.1    2.5   2.51   1.33    0.00    2.33
 1977 309   212   209   54.8   14.4   40.4   1.70   2.48   59.0   25.4   15.0    2.5   2.48   1.33    0.00    2.33
 1977 310   213   210   54.8   14.9   39.9   1.70   2.45   59.0   25.1   14.8    2.4   2.45   1.33    0.00    2.33
 1977 311   214   211   54.8   15.4   39.4   1.70   2.42   59.0   24.8   14.6    2.4   2.42   1.34    0.00    2.33
 1977 312   215   212   54.8   16.0   38.8   1.70   2.40   59.0   24.6   14.2    2.4   2.40   1.35    0.00    2.33
 1977 313   216   213   54.8   16.4   38.5   1.70   2.37   59.0   24.3   14.1    2.4   2.37   1.35    0.00    2.33
 1977 314   217   214   54.8   16.7   38.2   1.70   2.36   59.0   24.2   14.0    2.4   2.36   1.35    0.00    2.33
 1977 315   218   215   54.8   17.1   37.7   1.70   2.33   59.0   23.9   13.9    2.3   2.33   1.36    0.00    2.33
 1977 316   219   216   54.8   17.2   37.6   1.70   2.31   59.0   23.6   14.0    2.3   2.31   1.35    0.00    2.33
 1977 317   220   217   54.8   17.4   37.4   1.70   2.28   59.0   23.4   14.1    2.3   2.28   1.33    0.00    2.33
 1977 318   221   218   54.8   17.7   37.1   1.70   2.25   59.0   23.1   14.0    2.3   2.25   1.33    0.00    2.33
 1977 319   222   219   54.8   18.3   36.6   1.70   2.22   59.0   22.7   13.9    2.2   2.22   1.34    0.00    2.33
 1977 320   223   220   54.8   18.9   36.0   1.70   2.18   59.0   22.3   13.6    2.2   2.18   1.34    0.00    2.33
 1977 321   224   221   54.8   19.5   35.3   1.70   2.15   59.0   22.0   13.3    2.2   2.15   1.35    0.00    2.33
 1977 322   225   222   54.8   20.1   34.7   1.70   2.11   59.0   21.7   13.1    2.1   2.11   1.36    0.00    2.33
 1977 323   226   223   54.8   20.7   34.2   1.70   2.10   59.0   21.5   12.7    2.1   2.10   1.36    0.00    2.33
 1977 324   227   224   54.8   20.7   34.2   1.70   2.10   59.0   21.5   12.7    2.1   2.10   1.36    0.00    2.33
 1977 325   228   225   54.8   20.7   34.2   1.70   2.10   59.0   21.5   12.7    2.1   2.10   1.36    0.00    2.33
 1977 326   229   226   54.8   20.7   34.2   1.70   2.10   59.0   21.5   12.7    2.1   2.10   1.36    0.00    2.33
 1977 327   230   227   54.8   20.7   34.2   1.70   2.10   59.0   21.5   12.7    2.1   2.10   1.36    0.00    2.33
 1977 328   231   228   54.8   20.7   34.2   1.70   2.10   59.0   21.5   12.7    2.1   2.10   1.36    0.00    2.33

*DSSAT Cropping System Model Ver. 4.0.2.000               Aug 01, 2016; 15:44:49

*RUN   4        : UYMZ                    
 MODEL          : MZCER040 - Maize           
 EXPERIMENT     : UYMZ0105 MZ    late to create DSS                             
 TREATMENT  1   : UYMZ                    

@YEAR DOY   DAS   DAP   CNAD   GNAD   VNAD   GN%D   VN%D   NUPC   LNAD   SNAD   LN%D   SN%D   RN%D   SNN0C   SNN1C
 1978 100     3     0    0.0    0.0    0.0   0.00   0.00    0.0    0.0    0.0    0.0   0.00   0.00    0.00    0.00
 1978 101     4     1    0.0    0.0    0.0   0.00   0.00    0.0    0.0    0.0    0.0   0.00   0.00    0.00    0.00
 1978 102     5     2    0.0    0.0    0.0   0.00   0.00    0.0    0.0    0.0    0.0   0.00   0.00    0.00    0.00
 1978 103     6     3    0.0    0.0    0.0   0.00   0.00    0.0    0.0    0.0    0.0   0.00   0.00    0.00    0.00
 1978 104     7     4    0.0    0.0    0.0   0.00   0.00    0.0    0.0    0.0    0.0   0.00   0.00    0.00    0.00
 1978 105     8     5    0.0    0.0    0.0   0.00   0.00    0.0    0.0    0.0    0.0   0.00   0.00    0.00    0.00
 1978 106     9     6    0.0    0.0    0.0   0.00   0.00    0.0    0.0    0.0    0.0   0.00   0.00    0.00    0.00
 1978 107    10     7    1.2    0.0    1.2   0.00   4.40    0.0    0.6    0.6    4.4   4.40   0.00    0.00    0.00
 1978 108    11     8    1.3    0.0    1.3   0.00   4.54    0.2    0.6    0.6    4.5   4.54   1.09    0.00    0.00
 1978 109    12     9    1.3    0.0    1.3   0.00   4.51    0.2    0.6    0.6    4.5   4.51   1.12    0.00    0.00
 1978 110    13    10    1.3    0.0    1.3   0.00   4.49    0.2    0.6    0.6    4.5   4.49   1.14    0.00    0.00
 1978 111    14    11    1.3    0.0    1.3   0.00   4.47    0.2    0.6    0.6    4.5   4.47   1.15    0.00    0.00
 1978 112    15    12    1.2    0.0    1.2   0.00   4.46    0.2    0.6    0.6    4.5   4.46   1.17    0.00    0.00
 1978 113    16    13    1.2    0.0    1.2   0.00   4.45    0.3    0.6    0.6    4.4   4.45   1.17    0.00    0.00
 1978 114    17    14    1.2    0.0    1.2   0.00   4.44    0.3    0.6    0.6    4.4   4.44   1.18    0.00    0.01
 1978 115    18    15    1.2    0.0    1.2   0.00   4.42    0.3    0.6    0.6    4.4   4.42   1.16    0.00    0.01
 1978 116    19    16    1.2    0.0    1.2   0.00   4.40    0.3    0.6    0.6    4.4   4.40   1.16    0.00    0.01
 1978 117    20    17    1.2    0.0    1.2   0.00   4.38    0.4    0.6    0.6    4.4   4.38   1.19    0.00    0.01
 1978 118    21    18    1.2    0.0    1.2   0.00   4.38    0.4    0.6    0.6    4.4   4.38   1.15    0.00    0.01
 1978 119    22    19    1.2    0.0    1.2   0.00   4.26    0.4    0.6    0.6    4.3   4.26   1.11    0.00    0.01
 1978 120    23    20    1.2    0.0    1.2   0.00   3.83    0.4    0.7    0.5    3.8   3.83   1.11    0.00    0.01
 1978 121    24    21    1.4    0.0    1.4   0.00   3.86    0.6    0.9    0.5    3.9   3.86   1.18    0.00    0.01
 1978 122    25    22    1.6    0.0    1.6   0.00   3.75    0.8    1.0    0.5    3.7   3.75   1.17    0.00    0.02
 1978 123    26    23    1.8    0.0    1.8   0.00   3.72    1.1    1.3    0.5    3.7   3.72   1.14    0.00    0.02
 1978 124    27    24    2.0    0.0    2.0   0.00   3.86    1.5    1.5    0.5    3.9   3.86   1.24    0.00    0.02
 1978 125    28    25    2.2    0.0    2.2   0.00   3.97    1.7    1.7    0.6    4.0   3.97   1.18    0.00    0.02
 1978 126    29    26    2.4    0.0    2.4   0.00   3.76    2.0    1.9    0.5    3.8   3.76   1.23    0.00    0.03
 1978 127    30    27    2.7    0.0    2.7   0.00   3.84    2.4    2.1    0.5    3.8   3.84   1.21    0.00    0.03
 1978 128    31    28    2.9    0.0    2.9   0.00   3.65    2.8    2.4    0.5    3.7   3.65   1.20    0.00    0.04
 1978 129    32    29    3.3    0.0    3.3   0.00   3.55    3.3    2.8    0.5    3.6   3.55   1.19    0.00    0.04
 1978 130    33    30    3.9    0.0    3.9   0.00   3.55    4.1    3.4    0.5    3.6   3.55   1.20    0.00    0.05
 1978 131    34    31    4.5    0.0    4.5   0.00   3.67    4.7    4.0    0.5    3.7   3.67   1.16    0.00    0.06
 1978 132    35    32    5.0    0.0    5.0   0.00   3.61    5.3    4.5    0.5    3.6   3.61   1.11    0.00    0.06
 1978 133    36    33    5.7    0.0    5.7   0.00   3.56    5.9    5.2    0.5    3.6   3.56   1.10    0.00    0.07
 1978 134    37    34    6.4    0.0    6.4   0.00   3.77    6.7    5.9    0.5    3.8   3.77   1.09    0.00    0.08
 1978 135    38    35    6.9    0.0    6.9   0.00   3.75    7.5    6.4    0.5    3.7   3.75   1.18    0.00    0.08
 1978 136    39    36    7.4    0.0    7.4   0.00   3.90    8.4    6.9    0.5    3.9   3.90   1.28    0.00    0.09
 1978 137    40    37    7.6    0.0    7.6   0.00   3.88    8.9    7.1    0.5    3.9   3.88   1.29    0.00    0.10
 1978 138    41    38    7.9    0.0    7.9   0.00   3.88    9.4    7.4    0.5    3.9   3.88   1.28    0.00    0.12
 1978 139    42    39    8.1    0.0    8.1   0.00   3.78    9.6    7.6    0.5    3.8   3.78   1.14    0.00    0.13
 1978 140    43    40    8.6    0.0    8.6   0.00   3.79   10.5    8.1    0.5    3.8   3.79   1.21    0.00    0.14
 1978 141    44    41    9.0    0.0    9.0   0.00   3.83   11.2    8.5    0.5    3.8   3.83   1.22    0.00    0.16
 1978 142    45    42    9.4    0.0    9.4   0.00   3.89   11.5    8.8    0.5    3.9   3.89   1.16    0.00    0.18
 1978 143    46    43    9.6    0.0    9.6   0.00   3.87   12.1    9.0    0.5    3.9   3.87   1.23    0.00    0.19
 1978 144    47    44    9.6    0.0    9.6   0.00   3.81   12.1    9.0    0.5    3.8   3.81   1.21    0.00    0.19
 1978 145    48    45   10.0    0.0   10.0   0.00   3.87   12.2    9.4    0.5    3.9   3.87   1.09    0.00    0.21
 1978 146    49    46   10.2    0.0   10.2   0.00   3.88   12.7    9.6    0.5    3.9   3.88   1.15    0.00    0.23
 1978 147    50    47   10.4    0.0   10.4   0.00   3.88   13.1    9.8    0.5    3.9   3.88   1.16    0.00    0.25
 1978 148    51    48   10.6    0.0   10.6   0.00   3.85   13.2   10.0    0.5    3.8   3.85   1.12    0.00    0.27
 1978 149    52    49   10.8    0.0   10.8   0.00   3.92   13.3   10.3    0.5    3.9   3.92   1.07    0.00    0.29
 1978 150    53    50   10.9    0.0   10.9   0.00   3.92   13.5   10.4    0.5    3.9   3.92   1.12    0.00    0.30
 1978 151    54    51   11.0    0.0   11.0   0.00   3.88   13.6   10.4    0.5    3.9   3.88   1.11    0.00    0.32
 1978 152    55    52   11.1    0.0   11.1   0.00   3.88   13.8   10.6    0.5    3.9   3.88   1.10    0.00    0.34
 1978 153    56    53   11.3    0.0   11.3   0.00   3.73   13.8   10.8    0.5    3.7   3.73   1.07    0.00    0.36
 1978 154    57    54   11.9    0.0   11.9   0.00   3.83   14.5   11.3    0.5    3.8   3.83   1.09    0.00    0.38
 1978 155    58    55   12.1    0.0   12.1   0.00   3.87   14.8   11.6    0.5    3.9   3.87   1.10    0.00    0.40
 1978 156    59    56   12.3    0.0   12.3   0.00   3.88   15.0   11.8    0.5    3.9   3.88   1.10    0.00    0.42
 1978 157    60    57   12.4    0.0   12.4   0.00   3.90   15.1   11.9    0.5    3.9   3.90   1.09    0.00    0.44
 1978 158    61    58   12.4    0.0   12.4   0.00   3.93   15.1   11.9    0.5    3.9   3.93   1.09    0.00    0.44
 1978 159    62    59   12.4    0.0   12.4   0.00   3.94   15.1   11.8    0.6    3.9   3.94   1.10    0.00    0.44
 1978 160    63    60   12.4    0.0   12.4   0.00   3.95   15.1   11.8    0.6    3.9   3.95   1.10    0.00    0.44
 1978 161    64    61   12.4    0.0   12.4   0.00   3.97   15.1   11.8    0.6    4.0   3.97   1.11    0.00    0.44
 1978 162    65    62   12.4    0.0   12.4   0.00   4.00   15.1   11.8    0.6    4.0   4.00   1.11    0.00    0.44
 1978 163    66    63   12.4    0.0   12.4   0.00   4.04   15.1   11.8    0.6    4.0   4.04   1.12    0.00    0.44

*DSSAT Cropping System Model Ver. 4.0.2.000               Aug 01, 2016; 15:44:49

*RUN   5        : UYMZ                    
 MODEL          : MZCER040 - Maize           
 EXPERIMENT     : UYMZ0105 MZ    late to create DSS                             
 TREATMENT  1   : UYMZ                    

@YEAR DOY   DAS   DAP   CNAD   GNAD   VNAD   GN%D   VN%D   NUPC   LNAD   SNAD   LN%D   SN%D   RN%D   SNN0C   SNN1C
 1979 100     3     0    0.0    0.0    0.0   0.00   0.00    0.0    0.0    0.0    0.0   0.00   0.00    0.00    0.00
 1979 101     4     1    0.0    0.0    0.0   0.00   0.00    0.0    0.0    0.0    0.0   0.00   0.00    0.00    0.00
 1979 102     5     2    0.0    0.0    0.0   0.00   0.00    0.0    0.0    0.0    0.0   0.00   0.00    0.00    0.00
 1979 103     6     3    0.0    0.0    0.0   0.00   0.00    0.0    0.0    0.0    0.0   0.00   0.00    0.00    0.00
 1979 104     7     4    0.0    0.0    0.0   0.00   0.00    0.0    0.0    0.0    0.0   0.00   0.00    0.00    0.00
 1979 105     8     5    0.0    0.0    0.0   0.00   0.00    0.0    0.0    0.0    0.0   0.00   0.00    0.00    0.00
 1979 106     9     6    0.0    0.0    0.0   0.00   0.00    0.0    0.0    0.0    0.0   0.00   0.00    0.00    0.00
 1979 107    10     7    1.2    0.0    1.2   0.00   4.40    0.0    0.6    0.6    4.4   4.40   0.00    0.00    0.00
 1979 108    11     8    1.3    0.0    1.3   0.00   4.54    0.2    0.6    0.6    4.5   4.54   1.09    0.00    0.00
 1979 109    12     9    1.3    0.0    1.3   0.00   4.51    0.2    0.6    0.6    4.5   4.51   1.12    0.00    0.00
 1979 110    13    10    1.3    0.0    1.3   0.00   4.48    0.2    0.6    0.6    4.5   4.48   1.13    0.00    0.00
 1979 111    14    11    1.2    0.0    1.2   0.00   4.46    0.2    0.6    0.6    4.5   4.46   1.18    0.00    0.00
 1979 112    15    12    1.2    0.0    1.2   0.00   4.43    0.2    0.6    0.6    4.4   4.43   1.18    0.00    0.00
 1979 113    16    13    1.2    0.0    1.2   0.00   4.43    0.2    0.6    0.6    4.4   4.43   1.11    0.00    0.00
 1979 114    17    14    1.2    0.0    1.2   0.00   4.39    0.3    0.6    0.6    4.4   4.39   1.15    0.00    0.00
 1979 115    18    15    1.2    0.0    1.2   0.00   4.37    0.3    0.6    0.6    4.4   4.37   1.16    0.00    0.01
 1979 116    19    16    1.2    0.0    1.2   0.00   4.24    0.3    0.6    0.6    4.2   4.24   1.20    0.00    0.01
 1979 117    20    17    1.2    0.0    1.2   0.00   3.75    0.4    0.7    0.5    3.8   3.75   1.18    0.00    0.01
 1979 118    21    18    1.4    0.0    1.4   0.00   3.63    0.6    0.9    0.5    3.6   3.63   1.18    0.00    0.01
 1979 119    22    19    1.7    0.0    1.7   0.00   3.54    0.9    1.2    0.5    3.5   3.54   1.14    0.00    0.01
 1979 120    23    20    2.0    0.0    2.0   0.00   3.87    1.2    1.5    0.5    3.9   3.87   1.10    0.00    0.01
 1979 121    24    21    2.2    0.0    2.2   0.00   3.90    1.4    1.7    0.5    3.9   3.90   1.13    0.00    0.02
 1979 122    25    22    2.4    0.0    2.4   0.00   3.94    1.8    1.9    0.6    3.9   3.94   1.27    0.00    0.02
 1979 123    26    23    2.6    0.0    2.6   0.00   3.78    2.1    2.1    0.5    3.8   3.78   1.24    0.00    0.02
 1979 124    27    24    2.9    0.0    2.9   0.00   3.92    2.5    2.3    0.5    3.9   3.92   1.26    0.00    0.03
 1979 125    28    25    3.1    0.0    3.1   0.00   3.88    2.7    2.5    0.5    3.9   3.88   1.20    0.00    0.03
 1979 126    29    26    3.3    0.0    3.3   0.00   3.78    3.1    2.8    0.5    3.8   3.78   1.22    0.00    0.03
 1979 127    30    27    3.6    0.0    3.6   0.00   3.77    3.7    3.1    0.5    3.8   3.77   1.23    0.00    0.04
 1979 128    31    28    4.0    0.0    4.0   0.00   3.90    4.2    3.5    0.5    3.9   3.90   1.21    0.00    0.05
 1979 129    32    29    4.2    0.0    4.2   0.00   3.79    4.6    3.7    0.5    3.8   3.79   1.19    0.00    0.05
 1979 130    33    30    4.6    0.0    4.6   0.00   3.80    5.1    4.1    0.5    3.8   3.80   1.16    0.00    0.06
 1979 131    34    31    5.0    0.0    5.0   0.00   3.69    5.6    4.4    0.5    3.7   3.69   1.16    0.00    0.07
 1979 132    35    32    5.5    0.0    5.5   0.00   3.67    6.2    5.0    0.5    3.7   3.67   1.14    0.00    0.08
 1979 133    36    33    6.1    0.0    6.1   0.00   3.51    6.9    5.6    0.5    3.5   3.51   1.13    0.00    0.09
 1979 134    37    34    7.0    0.0    7.0   0.00   3.69    8.1    6.4    0.5    3.7   3.69   1.17    0.00    0.10
 1979 135    38    35    7.6    0.0    7.6   0.00   3.70    8.9    7.1    0.5    3.7   3.70   1.17    0.00    0.11
 1979 136    39    36    8.2    0.0    8.2   0.00   3.61    9.5    7.7    0.5    3.6   3.61   1.11    0.00    0.12
 1979 137    40    37    9.0    0.0    9.0   0.00   3.76   10.4    8.5    0.5    3.8   3.76   1.09    0.00    0.14
 1979 138    41    38    9.5    0.0    9.5   0.00   3.69   11.0    9.0    0.5    3.7   3.69   1.10    0.00    0.15
 1979 139    42    39   10.2    0.0   10.2   0.00   3.71   12.1    9.7    0.5    3.7   3.71   1.17    0.00    0.16
 1979 140    43    40   10.8    0.0   10.8   0.00   3.62   13.1   10.3    0.5    3.6   3.62   1.18    0.00    0.18
 1979 141    44    41   11.7    0.0   11.7   0.00   3.54   13.9   11.2    0.5    3.5   3.54   1.11    0.00    0.20
 1979 142    45    42   12.9    0.0   12.9   0.00   3.76   15.8   12.4    0.5    3.8   3.76   1.22    0.00    0.21
 1979 143    46    43   13.4    0.0   13.4   0.00   3.81   16.5   12.8    0.5    3.8   3.81   1.21    0.00    0.23
 1979 144    47    44   13.7    0.0   13.7   0.00   4.03   17.4   13.1    0.6    4.0   4.03   1.22    0.00    0.25
 1979 145    48    45   13.7    0.0   13.7   0.00   3.72   17.4   13.1    0.5    3.7   3.72   1.15    0.00    0.25
 1979 146    49    46   14.0    0.0   14.0   0.00   3.69   18.2   13.5    0.5    3.7   3.69   1.19    0.00    0.28
 1979 147    50    47   15.1    0.0   15.1   0.00   3.85   19.6   14.5    0.5    3.8   3.85   1.19    0.00    0.31
 1979 148    51    48   15.1    0.0   15.1   0.00   3.69   19.6   14.6    0.5    3.7   3.69   1.19    0.00    0.31
 1979 149    52    49   15.1    0.0   15.1   0.00   3.64   19.6   14.6    0.5    3.6   3.64   1.17    0.00    0.31
 1979 150    53    50   17.4    0.0   17.4   0.00   4.20   22.1   16.8    0.6    4.2   4.20   1.19    0.00    0.33
 1979 151    54    51   17.4    0.0   17.4   0.00   4.16   22.1   16.8    0.6    4.2   4.16   1.16    0.00    0.33
 1979 152    55    52   17.4    0.0   17.4   0.00   3.98   22.1   16.8    0.6    4.0   3.98   1.11    0.00    0.33
 1979 153    56    53   17.4    0.0   17.4   0.00   3.77   22.1   16.9    0.5    3.8   3.77   1.06    0.00    0.33
 1979 154    57    54   17.2    0.0   17.2   0.00   3.54   22.5   16.7    0.5    3.5   3.54   1.12    0.00    0.36
 1979 155    58    55   17.7    0.0   17.7   0.00   3.55   23.2   17.2    0.5    3.6   3.55   1.12    0.00    0.40
 1979 156    59    56   18.0    0.0   18.0   0.00   3.58   23.7   17.5    0.5    3.6   3.58   1.13    0.00    0.43
 1979 157    60    57   18.0    0.0   18.0   0.00   3.54   23.7   17.5    0.5    3.5   3.54   1.13    0.00    0.43
 1979 158    61    58   18.0    0.0   18.0   0.00   3.54   23.7   17.5    0.5    3.5   3.54   1.14    0.00    0.43
 1979 159    62    59   18.0    0.0   18.0   0.00   3.54   23.7   17.5    0.5    3.5   3.54   1.14    0.00    0.43

*DSSAT Cropping System Model Ver. 4.0.2.000               Aug 01, 2016; 15:44:49

*RUN   6        : UYMZ                    
 MODEL          : MZCER040 - Maize           
 EXPERIMENT     : UYMZ0105 MZ    late to create DSS                             
 TREATMENT  1   : UYMZ                    

@YEAR DOY   DAS   DAP   CNAD   GNAD   VNAD   GN%D   VN%D   NUPC   LNAD   SNAD   LN%D   SN%D   RN%D   SNN0C   SNN1C
 1980 100     3     0    0.0    0.0    0.0   0.00   0.00    0.0    0.0    0.0    0.0   0.00   0.00    0.00    0.00
 1980 101     4     1    0.0    0.0    0.0   0.00   0.00    0.0    0.0    0.0    0.0   0.00   0.00    0.00    0.00
 1980 102     5     2    0.0    0.0    0.0   0.00   0.00    0.0    0.0    0.0    0.0   0.00   0.00    0.00    0.00
 1980 103     6     3    0.0    0.0    0.0   0.00   0.00    0.0    0.0    0.0    0.0   0.00   0.00    0.00    0.00
 1980 104     7     4    0.0    0.0    0.0   0.00   0.00    0.0    0.0    0.0    0.0   0.00   0.00    0.00    0.00
 1980 105     8     5    0.0    0.0    0.0   0.00   0.00    0.0    0.0    0.0    0.0   0.00   0.00    0.00    0.00
 1980 106     9     6    0.0    0.0    0.0   0.00   0.00    0.0    0.0    0.0    0.0   0.00   0.00    0.00    0.00
 1980 107    10     7    0.0    0.0    0.0   0.00   0.00    0.0    0.0    0.0    0.0   0.00   0.00    0.00    0.00
 1980 108    11     8    0.0    0.0    0.0   0.00   0.00    0.0    0.0    0.0    0.0   0.00   0.00    0.00    0.00
 1980 109    12     9    1.2    0.0    1.2   0.00   4.40    0.0    0.6    0.6    4.4   4.40   0.00    0.00    0.00
 1980 110    13    10    1.3    0.0    1.3   0.00   4.54    0.2    0.6    0.6    4.5   4.54   1.08    0.00    0.00
 1980 111    14    11    1.3    0.0    1.3   0.00   4.54    0.2    0.6    0.6    4.5   4.54   1.06    0.00    0.00
 1980 112    15    12    1.3    0.0    1.3   0.00   4.54    0.2    0.6    0.6    4.5   4.54   1.01    0.00    0.00
 1980 113    16    13    1.2    0.0    1.2   0.00   4.42    0.2    0.6    0.6    4.4   4.42   1.18    0.00    0.00
 1980 114    17    14    1.2    0.0    1.2   0.00   4.37    0.2    0.6    0.6    4.4   4.37   1.21    0.00    0.00
 1980 115    18    15    1.2    0.0    1.2   0.00   3.52    0.2    0.7    0.5    3.5   3.52   1.13    0.00    0.00
 1980 116    19    16    1.5    0.0    1.5   0.00   3.27    0.5    1.0    0.5    3.3   3.27   1.16    0.00    0.00
 1980 117    20    17    1.9    0.0    1.9   0.00   3.34    1.0    1.5    0.5    3.3   3.34   1.14    0.00    0.00
 1980 118    21    18    2.4    0.0    2.4   0.00   3.34    1.7    2.0    0.5    3.3   3.34   1.34    0.00    0.01
 1980 119    22    19    3.1    0.0    3.1   0.00   3.33    2.4    2.6    0.5    3.3   3.33   1.29    0.00    0.01
 1980 120    23    20    3.8    0.0    3.8   0.00   3.32    3.1    3.3    0.5    3.3   3.32   1.20    0.00    0.01
 1980 121    24    21    4.7    0.0    4.7   0.00   3.80    4.1    4.2    0.5    3.8   3.80   1.21    0.00    0.01
 1980 122    25    22    5.1    0.0    5.1   0.00   3.85    4.8    4.6    0.5    3.8   3.85   1.36    0.00    0.02
 1980 123    26    23    5.4    0.0    5.4   0.00   3.90    5.5    4.9    0.5    3.9   3.90   1.42    0.00    0.02
 1980 124    27    24    5.7    0.0    5.7   0.00   3.86    5.9    5.2    0.5    3.9   3.86   1.33    0.00    0.03
 1980 125    28    25    6.0    0.0    6.0   0.00   3.74    6.3    5.5    0.5    3.7   3.74   1.19    0.00    0.03
 1980 126    29    26    6.5    0.0    6.5   0.00   3.74    7.1    6.0    0.5    3.7   3.74   1.24    0.00    0.04
 1980 127    30    27    7.0    0.0    7.0   0.00   3.78    8.0    6.5    0.5    3.8   3.78   1.24    0.00    0.05
 1980 128    31    28    7.5    0.0    7.5   0.00   3.83    8.8    7.0    0.5    3.8   3.83   1.24    0.00    0.06
 1980 129    32    29    7.9    0.0    7.9   0.00   3.83    9.0    7.3    0.5    3.8   3.83   1.13    0.00    0.07
 1980 130    33    30    8.2    0.0    8.2   0.00   3.52    9.5    7.7    0.5    3.5   3.52   1.11    0.00    0.09
 1980 131    34    31    9.3    0.0    9.3   0.00   3.52   10.5    8.8    0.5    3.5   3.52   1.09    0.00    0.10
[...]
 1994 144    47    44   18.6    0.0   18.6   0.00   3.57   21.7   18.0    0.5    3.6   3.57   1.16    0.00    0.23
 1994 145    48    45   20.0    0.0   20.0   0.00   3.54   22.9   19.5    0.5    3.5   3.54   1.08    0.00    0.25
 1994 146    49    46   21.1    0.0   21.1   0.00   3.53   24.4   20.6    0.6    3.5   3.53   1.13    0.00    0.27
 1994 147    50    47   22.0    0.0   22.0   0.00   3.56   25.7   21.4    0.6    3.6   3.56   1.18    0.00    0.30
 1994 148    51    48   22.7    0.0   22.7   0.00   3.57   26.2   22.1    0.6    3.6   3.57   1.11    0.00    0.32
 1994 149    52    49   23.1    0.0   23.1   0.00   3.54   27.6   22.5    0.6    3.5   3.54   1.27    0.00    0.35
 1994 150    53    50   23.6    0.0   23.6   0.00   3.53   28.2   23.0    0.6    3.5   3.53   1.20    0.00    0.37
 1994 151    54    51   24.6    0.0   24.6   0.00   3.47   28.7   23.9    0.7    3.5   3.47   1.08    0.00    0.40
 1994 152    55    52   25.9    0.0   25.9   0.00   3.44   30.5   25.2    0.7    3.4   3.44   1.12    0.00    0.43
 1994 153    56    53   27.5    0.0   27.5   0.00   3.42   32.2   26.7    0.8    3.4   3.42   1.10    0.00    0.46
 1994 154    57    54   28.8    0.0   28.8   0.00   3.40   33.3   27.9    0.9    3.4   3.40   1.07    0.00    0.49
 1994 155    58    55   30.4    0.0   30.4   0.00   3.38   35.3   29.3    1.1    3.4   3.38   1.11    0.00    0.52
 1994 156    59    56   31.7    0.0   31.7   0.00   3.38   36.4   30.5    1.2    3.4   3.38   1.07    0.00    0.55
 1994 157    60    57   32.9    0.0   32.9   0.00   3.38   38.2   31.6    1.3    3.4   3.38   1.13    0.00    0.58
 1994 158    61    58   33.8    0.0   33.8   0.00   3.41   40.1   32.4    1.4    3.4   3.41   1.24    0.00    0.61
 1994 159    62    59   34.4    0.0   34.4   0.00   3.40   40.4   33.0    1.4    3.4   3.40   1.16    0.00    0.65
 1994 160    63    60   35.1    0.0   35.1   0.00   3.38   40.9   33.6    1.5    3.4   3.38   1.11    0.00    0.68
 1994 161    64    61   36.2    0.0   36.2   0.00   3.32   42.1   34.5    1.7    3.3   3.32   1.10    0.00    0.72
 1994 162    65    62   38.0    0.0   38.0   0.00   3.30   43.9   36.0    2.0    3.3   3.30   1.09    0.00    0.75
 1994 163    66    63   40.4    0.0   40.4   0.00   3.27   46.2   38.0    2.4    3.3   3.27   1.07    0.00    0.79
 1994 164    67    64   41.0    0.0   41.0   0.00   3.24   46.8   38.5    2.5    3.2   3.24   1.07    0.00    0.82
 1994 165    68    65   43.0    0.0   43.0   0.00   3.21   48.9   40.1    3.0    3.2   3.21   1.07    0.00    0.86
 1994 166    69    66   44.6    0.0   44.6   0.00   3.18   50.5   41.3    3.4    3.2   3.18   1.07    0.00    0.89
 1994 167    70    67   45.8    0.0   45.8   0.00   3.15   51.6   42.1    3.7    3.2   3.15   1.07    0.00    0.93
 1994 168    71    68   46.4    0.0   46.4   0.00   3.13   52.3   42.5    4.0    3.1   3.13   1.07    0.00    0.96
 1994 169    72    69   48.6    0.0   48.6   0.00   3.10   54.5   43.9    4.7    3.1   3.10   1.07    0.00    1.00
 1994 170    73    70   50.1    0.0   50.1   0.00   3.11   56.7   45.0    5.1    3.1   3.11   1.15    0.00    1.03
 1994 171    74    71   50.9    0.0   50.9   0.00   3.10   57.7   45.5    5.3    3.1   3.10   1.13    0.00    1.07
 1994 172    75    72   51.4    0.0   51.4   0.00   3.09   57.7   45.8    5.5    3.1   3.09   1.07    0.00    1.11
 1994 173    76    73   52.2    0.0   52.2   0.00   3.09   58.6   46.4    5.8    3.1   3.09   1.08    0.00    1.15
 1994 174    77    74   52.6    0.0   52.6   0.00   3.08   59.9   46.6    6.0    3.1   3.08   1.17    0.00    1.19
 1994 175    78    75   53.0    0.0   53.0   0.00   3.08   60.0   46.9    6.1    3.1   3.08   1.11    0.00    1.23
 1994 176    79    76   53.3    0.0   53.3   0.00   3.09   60.7   47.1    6.2    3.1   3.09   1.17    0.00    1.27
 1994 177    80    77   54.1    0.0   54.1   0.00   3.09   61.2   47.6    6.4    3.1   3.09   1.11    0.00    1.31
 1994 178    81    78   54.7    0.0   54.7   0.00   3.12   62.1   48.2    6.5    3.1   3.12   1.16    0.00    1.35
 1994 179    82    79   54.7    0.0   54.7   0.00   3.08   62.1   48.0    6.7    3.1   3.08   1.16    0.00    1.35
 1994 180    83    80   54.7    0.0   54.7   0.00   3.07   62.1   48.0    6.7    3.1   3.07   1.16    0.00    1.35
 1994 181    84    81   54.7    0.0   54.7   0.00   3.07   62.1   48.0    6.7    3.1   3.07   1.17    0.00    1.35
 1994 182    85    82   54.7    0.0   54.7   0.00   3.06   62.1   47.9    6.8    3.1   3.06   1.18    0.00    1.35
 1994 183    86    83   54.7    0.0   54.7   0.00   3.06   62.1   47.9    6.8    3.1   3.06   1.18    0.00    1.35
 1994 184    87    84   54.7    0.0   54.7   0.00   3.05   62.1   47.9    6.8    3.1   3.05   1.19    0.00    1.35
 1994 185    88    85   54.7    0.0   54.7   0.00   3.05   62.1   47.9    6.8    3.1   3.05   1.19    0.00    1.35
 1994 186    89    86   54.7    0.0   54.7   0.00   3.05   62.1   47.9    6.8    3.1   3.05   1.20    0.00    1.35
 1994 187    90    87   54.7    0.0   54.7   0.00   3.05   62.1   47.9    6.8    3.1   3.05   1.21    0.00    1.35
 1994 188    91    88   54.7    0.0   54.7   0.00   3.05   62.1   47.9    6.8    3.1   3.05   1.21    0.00    1.35
 1994 189    92    89   54.7    0.0   54.7   0.00   3.05   62.1   47.9    6.8    3.1   3.05   1.22    0.00    1.35
 1994 190    93    90   54.7    0.0   54.7   0.00   3.05   62.1   47.9    6.8    3.1   3.05   1.22    0.00    1.35
 1994 191    94    91   54.7    0.0   54.7   0.00   3.06   62.1   47.9    6.8    3.1   3.06   1.23    0.00    1.35
 1994 192    95    92   54.7    0.0   54.7   0.00   3.06   62.1   47.9    6.8    3.1   3.06   1.24    0.00    1.35
 1994 193    96    93   54.7    0.0   54.7   0.00   3.06   62.1   47.9    6.8    3.1   3.06   1.24    0.00    1.35
 1994 194    97    94   54.7    0.0   54.7   0.00   3.06   62.1   47.9    6.8    3.1   3.06   1.25    0.00    1.35

*DSSAT Cropping System Model Ver. 4.0.2.000               Aug 01, 2016; 15:44:49

*RUN  21        : UYMZ                    
 MODEL          : MZCER040 - Maize           
 EXPERIMENT     : UYMZ0105 MZ    late to create DSS                             
 TREATMENT  1   : UYMZ                    

@YEAR DOY   DAS   DAP   CNAD   GNAD   VNAD   GN%D   VN%D   NUPC   LNAD   SNAD   LN%D   SN%D   RN%D   SNN0C   SNN1C
 1995 100     3     0    0.0    0.0    0.0   0.00   0.00    0.0    0.0    0.0    0.0   0.00   0.00    0.00    0.00
 1995 101     4     1    0.0    0.0    0.0   0.00   0.00    0.0    0.0    0.0    0.0   0.00   0.00    0.00    0.00
 1995 102     5     2    0.0    0.0    0.0   0.00   0.00    0.0    0.0    0.0    0.0   0.00   0.00    0.00    0.00
 1995 103     6     3    0.0    0.0    0.0   0.00   0.00    0.0    0.0    0.0    0.0   0.00   0.00    0.00    0.00
 1995 104     7     4    0.0    0.0    0.0   0.00   0.00    0.0    0.0    0.0    0.0   0.00   0.00    0.00    0.00
 1995 105     8     5    0.0    0.0    0.0   0.00   0.00    0.0    0.0    0.0    0.0   0.00   0.00    0.00    0.00
 1995 106     9     6    0.0    0.0    0.0   0.00   0.00    0.0    0.0    0.0    0.0   0.00   0.00    0.00    0.00
 1995 107    10     7    1.2    0.0    1.2   0.00   4.40    0.0    0.6    0.6    4.4   4.40   0.00    0.00    0.00
 1995 108    11     8    1.3    0.0    1.3   0.00   4.54    0.2    0.6    0.6    4.5   4.54   1.10    0.00    0.00
 1995 109    12     9    1.3    0.0    1.3   0.00   4.52    0.2    0.6    0.6    4.5   4.52   1.13    0.00    0.00
 1995 110    13    10    1.3    0.0    1.3   0.00   4.52    0.2    0.6    0.6    4.5   4.52   1.14    0.00    0.00
 1995 111    14    11    1.3    0.0    1.3   0.00   4.50    0.2    0.6    0.6    4.5   4.50   1.14    0.00    0.00
 1995 112    15    12    1.3    0.0    1.3   0.00   4.48    0.2    0.6    0.6    4.5   4.48   1.15    0.00    0.00
 1995 113    16    13    1.2    0.0    1.2   0.00   4.46    0.2    0.6    0.6    4.5   4.46   1.16    0.00    0.00
 1995 114    17    14    1.2    0.0    1.2   0.00   4.44    0.3    0.6    0.6    4.4   4.44   1.17    0.00    0.01
 1995 115    18    15    1.2    0.0    1.2   0.00   4.42    0.3    0.6    0.6    4.4   4.42   1.16    0.00    0.01
 1995 116    19    16    1.2    0.0    1.2   0.00   4.40    0.3    0.6    0.6    4.4   4.40   1.15    0.00    0.01
 1995 117    20    17    1.2    0.0    1.2   0.00   4.40    0.3    0.6    0.6    4.4   4.40   1.11    0.00    0.01
 1995 118    21    18    1.2    0.0    1.2   0.00   4.04    0.4    0.7    0.6    4.0   4.04   1.22    0.00    0.01
 1995 119    22    19    1.3    0.0    1.3   0.00   3.84    0.4    0.8    0.5    3.8   3.84   1.10    0.00    0.01
 1995 120    23    20    1.5    0.0    1.5   0.00   3.74    0.6    0.9    0.5    3.7   3.74   1.09    0.00    0.01
 1995 121    24    21    1.7    0.0    1.7   0.00   3.89    0.9    1.1    0.5    3.9   3.89   1.25    0.00    0.02
 1995 122    25    22    1.8    0.0    1.8   0.00   3.81    1.2    1.3    0.5    3.8   3.81   1.26    0.00    0.02
 1995 123    26    23    2.1    0.0    2.1   0.00   3.57    1.4    1.6    0.5    3.6   3.57   1.16    0.00    0.02
 1995 124    27    24    2.4    0.0    2.4   0.00   3.84    1.9    1.9    0.5    3.8   3.84   1.21    0.00    0.02
 1995 125    28    25    2.7    0.0    2.7   0.00   4.11    2.2    2.1    0.6    4.1   4.11   1.17    0.00    0.03
 1995 126    29    26    2.7    0.0    2.7   0.00   3.93    2.5    2.2    0.6    3.9   3.93   1.27    0.00    0.03
 1995 127    30    27    2.9    0.0    2.9   0.00   3.69    2.8    2.4    0.5    3.7   3.69   1.23    0.00    0.04
 1995 128    31    28    3.3    0.0    3.3   0.00   3.61    3.3    2.8    0.5    3.6   3.61   1.21    0.00    0.04
 1995 129    32    29    3.8    0.0    3.8   0.00   3.84    4.0    3.3    0.5    3.8   3.84   1.21    0.00    0.05
 1995 130    33    30    4.1    0.0    4.1   0.00   3.69    4.3    3.6    0.5    3.7   3.69   1.15    0.00    0.05
 1995 131    34    31    4.6    0.0    4.6   0.00   3.61    4.8    4.1    0.5    3.6   3.61   1.11    0.00    0.06
 1995 132    35    32    5.2    0.0    5.2   0.00   3.55    5.4    4.7    0.5    3.6   3.55   1.08    0.00    0.07
 1995 133    36    33    5.9    0.0    5.9   0.00   3.72    6.1    5.4    0.5    3.7   3.72   1.08    0.00    0.08
 1995 134    37    34    6.4    0.0    6.4   0.00   3.37    6.7    6.0    0.5    3.4   3.37   1.11    0.00    0.08
 1995 135    38    35    7.7    0.0    7.7   0.00   3.78    8.0    7.1    0.5    3.8   3.78   1.11    0.00    0.09
 1995 136    39    36    8.1    0.0    8.1   0.00   3.83    8.6    7.6    0.5    3.8   3.83   1.14    0.00    0.10
 1995 137    40    37    8.5    0.0    8.5   0.00   3.92    9.6    8.0    0.5    3.9   3.92   1.33    0.00    0.11
 1995 138    41    38    8.7    0.0    8.7   0.00   3.89   10.1    8.1    0.5    3.9   3.89   1.32    0.00    0.12
 1995 139    42    39    8.9    0.0    8.9   0.00   3.89   10.5    8.3    0.5    3.9   3.89   1.29    0.00    0.13
 1995 140    43    40    9.1    0.0    9.1   0.00   3.83   10.8    8.6    0.5    3.8   3.83   1.21    0.00    0.15
 1995 141    44    41    9.4    0.0    9.4   0.00   3.81   11.4    8.9    0.5    3.8   3.81   1.19    0.00    0.16
 1995 142    45    42    9.8    0.0    9.8   0.00   3.88   11.9    9.3    0.5    3.9   3.88   1.19    0.00    0.18
 1995 143    46    43   10.0    0.0   10.0   0.00   3.89   12.0    9.5    0.5    3.9   3.89   1.13    0.00    0.19
 1995 144    47    44   10.2    0.0   10.2   0.00   3.90   12.5    9.7    0.5    3.9   3.90   1.18    0.00    0.21
 1995 145    48    45   10.4    0.0   10.4   0.00   3.87   12.6    9.8    0.5    3.9   3.87   1.14    0.00    0.23
 1995 146    49    46   10.6    0.0   10.6   0.00   3.75   12.7   10.0    0.5    3.8   3.75   1.08    0.00    0.24
 1995 147    50    47   11.1    0.0   11.1   0.00   3.77   13.2   10.6    0.5    3.8   3.77   1.08    0.00    0.26
 1995 148    51    48   11.6    0.0   11.6   0.00   3.75   13.8   11.0    0.5    3.8   3.75   1.10    0.00    0.28
 1995 149    52    49   12.1    0.0   12.1   0.00   3.89   14.2   11.5    0.5    3.9   3.89   1.07    0.00    0.29
 1995 150    53    50   12.2    0.0   12.2   0.00   3.82   14.3   11.6    0.5    3.8   3.82   1.07    0.00    0.31
 1995 151    54    51   12.4    0.0   12.4   0.00   3.68   14.6   11.9    0.5    3.7   3.68   1.08    0.00    0.33
 1995 152    55    52   13.1    0.0   13.1   0.00   3.76   15.5   12.6    0.5    3.8   3.76   1.13    0.00    0.34
 1995 153    56    53   13.6    0.0   13.6   0.00   3.77   16.3   13.0    0.5    3.8   3.77   1.15    0.00    0.36
 1995 154    57    54   13.7    0.0   13.7   0.00   3.68   16.5   13.2    0.5    3.7   3.68   1.12    0.00    0.38
 1995 155    58    55   15.1    0.0   15.1   0.00   3.78   17.8   14.6    0.5    3.8   3.78   1.08    0.00    0.40
 1995 156    59    56   15.3    0.0   15.3   0.00   3.67   17.9   14.8    0.5    3.7   3.67   1.07    0.00    0.42
 1995 157    60    57   15.4    0.0   15.4   0.00   3.64   18.4   14.9    0.5    3.6   3.64   1.15    0.00    0.44
 1995 158    61    58   15.6    0.0   15.6   0.00   3.63   18.7   15.1    0.5    3.6   3.63   1.15    0.00    0.46
 1995 159    62    59   15.9    0.0   15.9   0.00   3.61   18.8   15.4    0.5    3.6   3.61   1.09    0.00    0.48
 1995 160    63    60   15.9    0.0   15.9   0.00   3.56   18.8   15.4    0.5    3.6   3.56   1.10    0.00    0.48
 1995 161    64    61   16.3    0.0   16.3   0.00   3.58   19.1   15.7    0.5    3.6   3.58   1.07    0.00    0.50
 1995 162    65    62   16.3    0.0   16.3   0.00   3.54   19.1   15.8    0.5    3.5   3.54   1.07    0.00    0.50
 1995 163    66    63   16.5    0.0   16.5   0.00   3.57   19.3   16.0    0.5    3.6   3.57   1.08    0.00    0.52
 1995 164    67    64   18.8    0.0   18.8   0.00   4.06   21.8   18.2    0.6    4.1   4.06   1.12    0.00    0.54
 1995 165    68    65   18.8    0.0   18.8   0.00   4.07   21.8   18.2    0.6    4.1   4.07   1.12    0.00    0.54
 1995 166    69    66   18.8    0.0   18.8   0.00   4.06   21.8   18.2    0.6    4.1   4.06   1.13    0.00    0.54
 1995 167    70    67   18.8    0.0   18.8   0.00   4.04   21.8   18.2    0.6    4.0   4.04   1.13    0.00    0.54
 1995 168    71    68   18.8    0.0   18.8   0.00   4.01   21.8   18.2    0.6    4.0   4.01   1.14    0.00    0.54
 1995 169    72    69   18.8    0.0   18.8   0.00   3.99   21.8   18.2    0.6    4.0   3.99   1.14    0.00    0.54
 1995 170    73    70   18.8    0.0   18.8   0.00   3.98   21.8   18.2    0.6    4.0   3.98   1.15    0.00    0.54
 1995 171    74    71   18.8    0.0   18.8   0.00   3.96   21.8   18.2    0.6    4.0   3.96   1.16    0.00    0.54
 1995 172    75    72   18.8    0.0   18.8   0.00   3.93   21.8   18.2    0.6    3.9   3.93   1.16    0.00    0.54
 1995 173    76    73   18.8    0.0   18.8   0.00   3.90   21.8   18.2    0.6    3.9   3.90   1.17    0.00    0.54
 1995 174    77    74   18.8    0.0   18.8   0.00   3.88   21.8   18.2    0.6    3.9   3.88   1.17    0.00    0.54
 1995 175    78    75   18.8    0.0   18.8   0.00   3.83   21.8   18.2    0.6    3.8   3.83   1.18    0.00    0.54
 1995 176    79    76   18.8    0.0   18.8   0.00   3.80   21.8   18.2    0.6    3.8   3.80   1.18    0.00    0.54
 1995 177    80    77   18.8    0.0   18.8   0.00   3.78   21.8   18.2    0.6    3.8   3.78   1.19    0.00    0.54
 1995 178    81    78   18.8    0.0   18.8   0.00   3.76   21.8   18.2    0.6    3.8   3.76   1.19    0.00    0.54
 1995 179    82    79   18.8    0.0   18.8   0.00   3.76   21.8   18.2    0.6    3.8   3.76   1.20    0.00    0.54
 1995 180    83    80   18.8    0.0   18.8   0.00   3.76   21.8   18.2    0.6    3.8   3.76   1.20    0.00    0.54
 1995 181    84    81   18.8    0.0   18.8   0.00   3.76   21.8   18.2    0.6    3.8   3.76   1.21    0.00    0.54
 1995 182    85    82   18.8    0.0   18.8   0.00   3.76   21.8   18.2    0.6    3.8   3.76   1.22    0.00    0.54
 1995 183    86    83   18.8    0.0   18.8   0.00   3.76   21.8   18.2    0.6    3.8   3.76   1.22    0.00    0.54
 1995 184    87    84   18.8    0.0   18.8   0.00   3.75   21.8   18.2    0.6    3.8   3.75   1.23    0.00    0.54
 1995 185    88    85   18.8    0.0   18.8   0.00   3.75   21.8   18.2    0.6    3.8   3.75   1.23    0.00    0.54
 1995 186    89    86   18.8    0.0   18.8   0.00   3.75   21.8   18.2    0.6    3.8   3.75   1.24    0.00    0.54
 1995 187    90    87   18.8    0.0   18.8   0.00   3.75   21.8   18.2    0.6    3.8   3.75   1.25    0.00    0.54
 1995 188    91    88   18.8    0.0   18.8   0.00   3.75   21.8   18.2    0.6    3.7   3.75   1.25    0.00    0.54
 1995 189    92    89   18.8    0.0   18.8   0.00   3.75   21.8   18.2    0.6    3.7   3.75   1.26    0.00    0.54
 1995 190    93    90   18.8    0.0   18.8   0.00   3.75   21.8   18.2    0.6    3.7   3.75   1.26    0.00    0.54
 1995 191    94    91   18.8    0.0   18.8   0.00   3.74   21.8   18.2    0.6    3.7   3.74   1.27    0.00    0.54
 1995 192    95    92   18.8    0.0   18.8   0.00   3.74   21.8   18.2    0.6    3.7   3.74   1.28    0.00    0.54
 1995 193    96    93   18.8    0.0   18.8   0.00   3.74   21.8   18.2    0.6    3.7   3.74   1.28    0.00    0.54
 1995 194    97    94   18.8    0.0   18.8   0.00   3.74   21.8   18.2    0.6    3.7   3.74   1.29    0.00    0.54
 1995 195    98    95   18.8    0.0   18.8   0.00   3.74   21.8   18.2    0.6    3.7   3.74   1.30    0.00    0.54
 1995 196    99    96   18.8    0.0   18.8   0.00   3.74   21.8   18.2    0.6    3.7   3.74   1.30    0.00    0.54
 1995 197   100    97   18.8    0.0   18.8   0.00   3.74   21.8   18.2    0.6    3.7   3.74   1.31    0.00    0.54
 1995 198   101    98   18.8    0.0   18.8   0.00   3.74   21.8   18.2    0.6    3.7   3.74   1.32    0.00    0.54
 1995 199   102    99   18.8    0.0   18.8   0.00   3.75   21.8   18.2    0.6    3.7   3.75   1.32    0.00    0.54
 1995 200   103   100   18.8    0.0   18.8   0.00   3.75   21.8   18.2    0.6    3.7   3.75   1.33    0.00    0.54
 1995 201   104   101   18.8    0.0   18.8   0.00   3.75   21.8   18.2    0.6    3.7   3.75   1.34    0.00    0.54
 1995 202   105   102   18.8    0.0   18.8   0.00   3.75   21.8   18.2    0.6    3.7   3.75   1.34    0.00    0.54
 1995 203   106   103   18.8    0.0   18.8   0.00   3.75   21.8   18.2    0.6    3.7   3.75   1.35    0.00    0.54
 1995 204   107   104   18.8    0.0   18.8   0.00   3.75   21.8   18.2    0.6    3.7   3.75   1.36    0.00    0.54
 1995 205   108   105   18.8    0.0   18.8   0.00   3.75   21.8   18.2    0.6    3.8   3.75   1.36    0.00    0.54
 1995 206   109   106   18.8    0.0   18.8   0.00   3.75   21.8   18.2    0.6    3.8   3.75   1.37    0.00    0.54
 1995 207   110   107   18.8    0.0   18.8   0.00   3.75   21.8   18.2    0.6    3.8   3.75   1.38    0.00    0.54
 1995 208   111   108   18.8    0.0   18.8   0.00   3.75   21.8   18.2    0.6    3.8   3.75   1.38    0.00    0.54
 1995 209   112   109   18.8    0.0   18.8   0.00   3.75   21.8   18.2    0.6    3.8   3.75   1.39    0.00    0.54
 1995 210   113   110   18.8    0.0   18.8   0.00   3.76   21.8   18.2    0.6    3.8   3.76   1.40    0.00    0.54
 1995 211   114   111   18.8    0.0   18.8   0.00   3.76   21.8   18.2    0.6    3.8   3.76   1.40    0.00    0.54
 1995 212   115   112   18.8    0.0   18.8   0.00   3.76   21.8   18.2    0.6    3.8   3.76   1.41    0.00    0.54
 1995 213   116   113   18.8    0.0   18.8   0.00   3.76   21.8   18.2    0.6    3.8   3.76   1.42    0.00    0.54
 1995 214   117   114   18.8    0.0   18.8   0.00   3.76   21.8   18.2    0.6    3.8   3.76   1.43    0.00    0.54
 1995 215   118   115   18.8    0.0   18.8   0.00   3.76   21.8   18.2    0.6    3.8   3.76   1.43    0.00    0.54
 1995 216   119   116   18.8    0.0   18.8   0.00   3.76   21.8   18.2    0.6    3.8   3.76   1.44    0.00    0.54
 1995 217   120   117   18.8    0.0   18.8   0.00   3.76   21.8   18.2    0.6    3.8   3.76   1.45    0.00    0.54
 1995 218   121   118   18.8    0.0   18.8   0.00   3.76   21.8   18.2    0.6    3.8   3.76   1.45    0.00    0.54
