*GROWTH ASPECTS OUTPUT FILE

*DSSAT Cropping System Model Ver. 4.0.2.000               Aug 01, 2016; 15:44:49

*RUN   1        : UYMZ                    
 MODEL          : MZCER040 - Maize           
 EXPERIMENT     : UYMZ0105 MZ    late to create DSS                             
 TREATMENT  1   : UYMZ                    

@YEAR DOY   DAS   DAP   L#SD   GSTD   LAID   LWAD   SWAD   GWAD   RWAD   CWAD   G#AD   GWGD   HIAD   PWAD   P#AD   WSPD   WSGD   NSTD   EWSD   LN%D   SH%D   HIPD   PWDD   PWTD     SLAD   CHTD   CWID   RDPD   RL1D   RL2D   RL3D   RL4D   RL5D   RL6D   RL7D   RL8D   RL9D   RL10   CDAD   LDAD   SDAD   SNW0C   SNW1C
 1975 100     3     0    0.0      0   0.00      0      0      0      0      0      0    0.0  0.000      0      0  0.000  0.000  0.000  0.000   0.00   0.00   0.00      0      0      0.0   0.00   0.00   0.03   0.00   0.00   0.00   0.00   0.00   0.00   0.00   0.00   0.00   0.00      0      0      0       0       0
 1975 101     4     1    0.0      0   0.00      0      0      0      0      0      0    0.0  0.000      0      0  0.000  0.000  0.000  0.000   0.00   0.00   0.00      0      0      0.0   0.00   0.00   0.04   0.00   0.00   0.00   0.00   0.00   0.00   0.00   0.00   0.00   0.00      0      0      0       0       0
 1975 102     5     2    0.0      0   0.00      0      0      0      0      0      0    0.0  0.000      0      0  0.000  0.000  0.000  0.000   0.00   0.00   0.00      0      0      0.0   0.00   0.00   0.05   0.00   0.00   0.00   0.00   0.00   0.00   0.00   0.00   0.00   0.00      0      0      0       0       0
 1975 103     6     3    0.0      0   0.00      0      0      0      0      0      0    0.0  0.000      0      0  0.000  0.000  0.000  0.000   0.00   0.00   0.00      0      0      0.0   0.00   0.00   0.07   0.00   0.00   0.00   0.00   0.00   0.00   0.00   0.00   0.00   0.00      0      0      0       0       0
 1975 104     7     4    0.0      0   0.00      0      0      0      0      0      0    0.0  0.000      0      0  0.000  0.000  0.000  0.000   0.00   0.00   0.00      0      0      0.0   0.00   0.00   0.08   0.00   0.00   0.00   0.00   0.00   0.00   0.00   0.00   0.00   0.00      0      0      0       0       0
 1975 105     8     5    0.0      0   0.00      0      0      0      0      0      0    0.0  0.000      0      0  0.000  0.000  0.000  0.000   0.00   0.00   0.00      0      0      0.0   0.00   0.00   0.09   0.00   0.00   0.00   0.00   0.00   0.00   0.00   0.00   0.00   0.00      0      0      0       0       0
 1975 106     9     6    0.0      0   0.00      0      0      0      0      0      0    0.0  0.000      0      0  0.000  0.000  0.000  0.000   0.00   0.00   0.00      0      0      0.0   0.00   0.00   0.10   0.00   0.00   0.00   0.00   0.00   0.00   0.00   0.00   0.00   0.00      0      0      0       0       0
 1975 107    10     7    0.0      0   0.00      0      0      0      0      0      0    0.0  0.000      0      0  0.000  0.000  0.000  0.000   0.00   0.00   0.00      0      0      0.0   0.00   0.00   0.11   0.00   0.00   0.00   0.00   0.00   0.00   0.00   0.00   0.00   0.00      0      0      0       0       0
 1975 108    11     8    0.0      0   0.00      0      0      0      0      0      0    0.0  0.000      0      0  0.000  0.000  0.000  0.000   0.00   0.00   0.00      0      0      0.0   0.00   0.00   0.12   0.00   0.00   0.00   0.00   0.00   0.00   0.00   0.00   0.00   0.00      0      0      0       0       0
 1975 109    12     9    2.0      1   0.00     14     14      0     14     28      0    0.0  0.000      0      0  0.000  0.000  0.012  0.000   4.40   0.00   0.00      0      0     24.6   0.00   0.00   0.14   0.28   0.10   0.00   0.00   0.00   0.00   0.00   0.00   0.00   0.00      0      0      0       0       0
 1975 110    13    10    2.0      1   0.01     14     14      0     14     28      0    0.0  0.000      0      0  0.000  0.000  0.014  0.000   4.51   0.00   0.00      0      0     50.1   0.00   0.00   0.15   0.28   0.11   0.00   0.00   0.00   0.00   0.00   0.00   0.00   0.00      0      0      0       0       0
 1975 111    14    11    3.0      1   0.01     14     14      0     15     28      0    0.0  0.000      0      0  0.000  0.000  0.000  0.000   4.47   0.00   0.00      0      0     81.9   0.00   0.00   0.17   0.29   0.12   0.00   0.00   0.00   0.00   0.00   0.00   0.00   0.00      0      0      0       0       0
 1975 112    15    12    3.0      1   0.02     14     14      0     16     28      0    0.0  0.000      0      0  0.000  0.000  0.000  0.000   4.43   0.00   0.00      0      0    119.5   0.00   0.00   0.18   0.30   0.13   0.00   0.00   0.00   0.00   0.00   0.00   0.00   0.00      0      0      0       0       0
 1975 113    16    13    3.0      1   0.02     14     14      0     18     28      0    0.0  0.000      0      0  0.000  0.000  0.000  0.000   4.41   0.00   0.00      0      0    142.1   0.00   0.00   0.19   0.32   0.15   0.01   0.00   0.00   0.00   0.00   0.00   0.00   0.00      0      0      0       0       0
 1975 114    17    14    4.0      1   0.03     14     14      0     21     28      0    0.0  0.000      0      0  0.000  0.000  0.000  0.000   4.38   0.00   0.00      0      0    219.2   0.00   0.00   0.20   0.35   0.17   0.02   0.00   0.00   0.00   0.00   0.00   0.00   0.00      0      0      0       0       0
 1975 115    18    15    4.0      1   0.05     14     14      0     25     28      0    0.0  0.000      0      0  0.000  0.000  0.000  0.000   4.35   0.00   0.00      0      0    326.4   0.00   0.00   0.21   0.39   0.21   0.03   0.00   0.00   0.00   0.00   0.00   0.00   0.00      0      0      0       0       0
 1975 116    19    16    4.0      1   0.07     21     14      0     27     35      0    0.0  0.000      0      0  0.000  0.000  0.000  0.000   3.51   0.00   0.00      0      0    317.0   0.00   0.00   0.23   0.40   0.23   0.04   0.00   0.00   0.00   0.00   0.00   0.00   0.00      0      0      0       0       0
 1975 117    20    17    5.0      1   0.08     27     14      0     28     41      0    0.0  0.000      0      0  0.000  0.000  0.000  0.000   3.67   0.00   0.00      0      0    301.2   0.00   0.00   0.24   0.41   0.23   0.05   0.00   0.00   0.00   0.00   0.00   0.00   0.00      0      0      0       0       1
 1975 118    21    18    5.0      1   0.10     37     14      0     32     51      0    0.0  0.000      0      0  0.000  0.000  0.000  0.000   3.41   0.00   0.00      0      0    282.1   0.00   0.00   0.25   0.44   0.26   0.07   0.00   0.00   0.00   0.00   0.00   0.00   0.00      0      0      0       0       1
 1975 119    22    19    5.0      1   0.12     44     14      0     35     58      0    0.0  0.000      0      0  0.000  0.000  0.000  0.000   3.71   0.00   0.00      0      0    272.0   0.00   0.00   0.26   0.46   0.29   0.09   0.00   0.00   0.00   0.00   0.00   0.00   0.00      0      0      0       0       1
 1975 120    23    20    5.0      1   0.13     48     14      0     45     62      0    0.0  0.000      0      0  0.000  0.000  0.000  0.000   3.94   0.00   0.00      0      0    267.0   0.00   0.00   0.27   0.52   0.36   0.15   0.00   0.00   0.00   0.00   0.00   0.00   0.00      0      0      0       0       1
 1975 121    24    21    6.0      1   0.14     52     14      0     53     66      0    0.0  0.000      0      0  0.000  0.000  0.000  0.000   3.99   0.00   0.00      0      0    263.0   0.00   0.00   0.27   0.57   0.41   0.19   0.00   0.00   0.00   0.00   0.00   0.00   0.00      0      0      0       0       1
 1975 122    25    22    6.0      1   0.14     56     14      0     57     70      0    0.0  0.000      0      0  0.000  0.000  0.000  0.000   3.97   0.00   0.00      0      0    259.2   0.00   0.00   0.27   0.57   0.43   0.21   0.00   0.00   0.00   0.00   0.00   0.00   0.00      0      0      0       0       2
 1975 123    26    23    6.0      1   0.16     62     14      0     70     76      0    0.0  0.000      0      0  0.000  0.000  0.000  0.000   3.84   0.00   0.00      0      0    253.5   0.00   0.00   0.28   0.62   0.50   0.28   0.00   0.00   0.00   0.00   0.00   0.00   0.00      0      0      0       0       2
 1975 124    27    24    6.0      1   0.17     67     14      0     85     81      0    0.0  0.000      0      0  0.000  0.000  0.000  0.035   3.92   0.00   0.00      0      0    248.5   0.00   0.00   0.28   0.70   0.60   0.38   0.00   0.00   0.00   0.00   0.00   0.00   0.00      0      0      0       0       2
 1975 125    28    25    6.0      1   0.15     71     14      0    100     85      0    0.0  0.000      0      0  0.000  0.000  0.000  0.000   3.97   0.00   0.00      0      0    214.0   0.00   0.00   0.29   0.78   0.70   0.48   0.00   0.00   0.00   0.00   0.00   0.00   0.00      0      0      0       0       3
 1975 126    29    26    6.0      1   0.13     77     14      0    116     91      0    0.0  0.000      0      0  0.000  0.000  0.000  0.000   3.91   0.00   0.00      0      0    173.5   0.00   0.00   0.29   0.86   0.81   0.59   0.00   0.00   0.00   0.00   0.00   0.00   0.00      0      0      0       0       3
 1975 127    30    27    6.0      1   0.14     85     14      0    127     99      0    0.0  0.000      0      0  0.000  0.000  0.000  0.000   3.82   0.00   0.00      0      0    167.8   0.00   0.00   0.30   0.93   0.89   0.67   0.00   0.00   0.00   0.00   0.00   0.00   0.00      0      0      0       0       4
 1975 128    31    28    6.0      1   0.16     97     14      0    135    111      0    0.0  0.000      0      0  0.000  0.000  0.000  0.000   3.67   0.00   0.00      0      0    170.2   0.00   0.00   0.31   0.96   0.93   0.72   0.00   0.00   0.00   0.00   0.00   0.00   0.00      0      0      0       0       4
 1975 129    32    29    7.0      1   0.21    119     14      0    138    133      0    0.0  0.000      0      0  0.000  0.000  0.000  0.000   3.41   0.00   0.00      0      0    172.9   0.00   0.00   0.32   0.98   0.95   0.75   0.00   0.00   0.00   0.00   0.00   0.00   0.00      0      0      0       0       5
 1975 130    33    30    7.0      1   0.24    140     14      0    140    154      0    0.0  0.000      0      0  0.000  0.000  0.000  0.000   3.50   0.00   0.00      0      0    173.7   0.00   0.00   0.32   0.99   0.96   0.76   0.00   0.00   0.00   0.00   0.00   0.00   0.00      0      0      0       0       6
 1975 131    34    31    7.0      1   0.29    152     14      0    142    166      0    0.0  0.000      0      0  0.000  0.000  0.000  0.000   3.75   0.00   0.00      0      0    188.5   0.00   0.00   0.34   0.94   0.92   0.73   0.00   0.00   0.00   0.00   0.00   0.00   0.00      0      0      0       0       6
 1975 132    35    32    8.0      1   0.32    172     14      0    145    186      0    0.0  0.000      0      0  0.000  0.000  0.000  0.000   3.59   0.00   0.00      0      0    187.7   0.00   0.00   0.35   0.91   0.90   0.72   0.01   0.00   0.00   0.00   0.00   0.00   0.00      0      0      0       0       7
 1975 133    36    33    8.0      1   0.35    186     14      0    146    200      0    0.0  0.000      0      0  0.000  0.000  0.000  0.486   3.71   0.00   0.00      0      0    187.0   0.00   0.00   0.36   0.86   0.87   0.70   0.01   0.00   0.00   0.00   0.00   0.00   0.00      0      0      0       0       8
 1975 134    37    34    8.0      1   0.38    202     14      0    149    216      0    0.0  0.000      0      0  0.000  0.000  0.000  0.527   3.69   0.00   0.00      0      0    186.1   0.00   0.00   0.37   0.81   0.82   0.68   0.01   0.00   0.00   0.00   0.00   0.00   0.00      0      0      0       0       9
 1975 135    38    35    8.0      1   0.39    229     14      0    165    243      0    0.0  0.000      0      0  0.000  0.000  0.000  0.502   3.53   0.00   0.00      0      0    170.9   0.00   0.00   0.38   0.77   0.86   0.76   0.04   0.00   0.00   0.00   0.00   0.00   0.00      0      0      0       0       9
 1975 136    39    36    8.0      1   0.40    237     14      0    186    251      0    0.0  0.000      0      0  0.000  0.000  0.000  0.288   3.83   0.00   0.00      0      0    170.5   0.00   0.00   0.39   0.75   0.93   0.90   0.08   0.00   0.00   0.00   0.00   0.00   0.00      0      0      0       0      10
 1975 137    40    37    8.0      1   0.42    247     14      0    210    261      0    0.0  0.000      0      0  0.000  0.000  0.000  0.116   3.79   0.00   0.00      0      0    169.9   0.00   0.00   0.39   0.74   1.03   1.08   0.12   0.00   0.00   0.00   0.00   0.00   0.00      0      0      0       0      11
 1975 138    41    38    9.0      1   0.43    256     14      0    225    270      0    0.0  0.000      0      0  0.000  0.000  0.000  0.047   3.81   0.00   0.00      0      0    168.6   0.00   0.00   0.40   0.74   1.10   1.19   0.16   0.00   0.00   0.00   0.00   0.00   0.00      0      0      0       0      12
 1975 139    42    39    9.0      1   0.45    269     14      0    247    283      0    0.0  0.000      0      0  0.000  0.000  0.000  0.000   3.75   0.00   0.00      0      0    166.3   0.00   0.00   0.40   0.76   1.20   1.36   0.20   0.00   0.00   0.00   0.00   0.00   0.00      0      0      0       0      13
 1975 140    43    40    9.0      1   0.48    291     14      0    267    305      0    0.0  0.000      0      0  0.000  0.000  0.000  0.000   3.63   0.00   0.00      0      0    165.2   0.00   0.00   0.41   0.77   1.29   1.51   0.25   0.00   0.00   0.00   0.00   0.00   0.00      0      0      0       0      14
 1975 141    44    41    9.0      1   0.52    316     14      0    288    330      0    0.0  0.000      0      0  0.000  0.000  0.000  0.000   3.60   0.00   0.00      0      0    164.0   0.00   0.00   0.42   0.79   1.39   1.66   0.31   0.00   0.00   0.00   0.00   0.00   0.00      0      0      0       0      16
 1975 142    45    42    9.0      2   0.57    322     14      0    333    336      0    0.0  0.000      0      0  0.000  0.000  0.000  0.000   3.81   0.00   0.00      0      0    176.5   0.00   0.00   0.43   0.85   1.58   1.98   0.43   0.00   0.00   0.00   0.00   0.00   0.00      0      0      0       0      17
 1975 143    46    43    9.0      2   0.62    352     14      0    363    366      0    0.0  0.000      0      0  0.000  0.000  0.003  0.000   3.58   0.00   0.00      0      0    174.8   0.00   0.00   0.44   0.88   1.71   2.19   0.51   0.00   0.00   0.00   0.00   0.00   0.00      0      0      0       0      19
 1975 144    47    44   10.0      2   0.69    397     14      0    388    411      0    0.0  0.000      0      0  0.000  0.000  0.000  0.000   3.40   0.00   0.00      0      0    172.5   0.00   0.00   0.46   0.92   1.81   2.36   0.59   0.00   0.00   0.00   0.00   0.00   0.00      0      0      0       0      21
 1975 145    48    45   10.0      2   0.74    435     14      0    422    449      0    0.0  0.000      0      0  0.000  0.000  0.000  0.000   3.78   0.00   0.00      0      0    170.6   0.00   0.00   0.47   0.96   1.94   2.58   0.69   0.01   0.00   0.00   0.00   0.00   0.00      0      0      0       0      23
 1975 146    49    46   10.0      3   0.79    476     14      0    450    490      0    0.0  0.000      0      0  0.000  0.000  0.022  0.000   3.68   0.00   0.00      0      0    166.8   0.00   0.00   0.48   1.00   2.05   2.75   0.77   0.02   0.00   0.00   0.00   0.00   0.00      0      0      0       0      25
 1975 147    50    47   10.0      3   0.86    522     14      0    491    536      0    0.0  0.000      0      0  0.000  0.000  0.022  0.000   3.57   0.00   0.00      0      0    164.4   0.00   0.00   0.49   1.06   2.20   3.00   0.88   0.05   0.00   0.00   0.00   0.00   0.00      0      0      0       0      27
 1975 148    51    48   11.0      3   0.94    579     15      0    525    594      0    0.0  0.000      0      0  0.000  0.000  0.022  0.000   3.54   0.00   0.00      0      0    161.7   0.00   0.00   0.50   1.12   2.32   3.21   0.98   0.08   0.00   0.00   0.00   0.00   0.00      0      0      0       0      29
 1975 149    52    49   11.0      3   1.01    636     16      0    565    652      0    0.0  0.000      0      0  0.000  0.000  0.022  0.000   3.51   0.00   0.00      0      0    159.2   0.00   0.00   0.52   1.18   2.47   3.46   1.10   0.13   0.00   0.00   0.00   0.00   0.00      0      0      0       0      32
 1975 150    53    50   11.0      3   1.09    697     18      0    581    714      0    0.0  0.000      0      0  0.000  0.000  0.022  0.000   3.48   0.00   0.00      0      0    156.8   0.00   0.00   0.53   1.20   2.53   3.55   1.14   0.15   0.00   0.00   0.00   0.00   0.00      0      0      0       0      35
 1975 151    54    51   11.0      3   1.14    737     19      0    581    756      0    0.0  0.000      0      0  0.000  0.000  0.022  0.000   3.45   0.00   0.00      0      0    155.1   0.00   0.00   0.54   1.20   2.52   3.55   1.14   0.16   0.00   0.00   0.00   0.00   0.00      0      0      0       0      38
 1975 152    55    52   12.0      3   1.18    764     21      0    579    785      0    0.0  0.000      0      0  0.000  0.000  0.022  0.000   3.49   0.00   0.00      0      0    153.9   0.00   0.00   0.54   1.20   2.51   3.54   1.14   0.16   0.00   0.00   0.00   0.00   0.00      0      0      0       0      41
 1975 153    56    53   12.0      3   1.20    786     22      0    600    808      0    0.0  0.000      0      0  0.000  0.000  0.022  0.000   3.48   0.00   0.00      0      0    152.3   0.00   0.00   0.55   1.21   2.59   3.66   1.20   0.19   0.00   0.00   0.00   0.00   0.00      0      0      0       0      44
 1975 154    57    54   12.0      3   1.09    803     23      0    620    825      0    0.0  0.000      0      0  0.000  0.000  0.022  0.037   3.48   0.00   0.00      0      0    135.3   0.00   0.00   0.55   1.22   2.65   3.78   1.26   0.23   0.00   0.00   0.00   0.00   0.00      0      0      0       0      47
 1975 155    58    55   12.0      3   1.10    824     24      0    656    848      0    0.0  0.000      0      0  0.000  0.000  0.022  0.000   3.46   0.00   0.00      0      0    133.3   0.00   0.00   0.55   1.24   2.78   3.98   1.36   0.30   0.00   0.00   0.00   0.00   0.00      0      0      0       0      50
 1975 156    59    56   12.0      3   0.98    846     25      0    683    872      0    0.0  0.000      0      0  0.000  0.000  0.022  0.000   3.45   0.00   0.00      0      0    115.9   0.00   0.00   0.56   1.26   2.87   4.00   1.44   0.35   0.00   0.00   0.00   0.00   0.00      0      0      0       0      53
 1975 157    60    57   12.0      3   1.02    879     28      0    705    907      0    0.0  0.000      0      0  0.000  0.000  0.022  0.000   3.43   0.00   0.00      0      0    116.1   0.00   0.00   0.56   1.27   2.95   4.00   1.50   0.40   0.00   0.00   0.00   0.00   0.00      0      0      0       0      56
 1975 158    61    58   12.0      3   0.99    897     29      0    732    926      0    0.0  0.000      0      0  0.000  0.000  0.022  0.000   3.44   0.00   0.00      0      0    110.7   0.00   0.00   0.57   1.28   3.04   4.00   1.58   0.46   0.00   0.00   0.00   0.00   0.00      0      0      0       0      60
 1975 159    62    59   12.0      3   0.94    922     31      0    767    954      0    0.0  0.000      0      0  0.000  0.000  0.022  0.000   3.41   0.00   0.00      0      0    101.8   0.00   0.00   0.57   1.30   3.16   4.00   1.68   0.54   0.00   0.00   0.00   0.00   0.00      0      0      0       0      64
 1975 160    63    60   12.0      3   0.56    952     34      0    803    986      0    0.0  0.000      0      0  0.000  0.000  0.022  0.000   3.39   0.00   0.00      0      0     59.3   0.00   0.00   0.57   1.32   3.27   4.00   1.78   0.62   0.00   0.00   0.00   0.00   0.00      0      0      0       0      67
 1975 161    64    61   12.0      3   0.54    978     37      0    818   1014      0    0.0  0.000      0      0  0.000  0.000  0.022  0.000   3.39   0.00   0.00      0      0     54.8   0.00   0.00   0.58   1.33   3.32   4.00   1.83   0.66   0.00   0.00   0.00   0.00   0.00      0      0      0       0      71
 1975 162    65    62   12.0      3   0.30    999     39      0    820   1038      0    0.0  0.000      0      0  0.000  0.000  0.022  0.000   3.39   0.00   0.00      0      0     30.3   0.00   0.00   0.58   1.33   3.33   4.00   1.84   0.67   0.00   0.00   0.00   0.00   0.00      0      0      0       0      76
 1975 163    66    63   12.0      3   0.33   1026     42      0    818   1067      0    0.0  0.000      0      0  0.000  0.000  0.022  0.000   3.33   0.00   0.00      0      0     32.6   0.00   0.00   0.59   1.32   3.31   3.99   1.83   0.67   0.00   0.00   0.00   0.00   0.00      0      0      0       0      80
 1975 164    67    64   13.0      3   0.28   1050     45      0    820   1095      0    0.0  0.000      0      0  0.000  0.000  0.022  0.000   3.36   0.00   0.00      0      0     27.1   0.00   0.00   0.59   1.32   3.32   4.00   1.84   0.68   0.00   0.00   0.00   0.00   0.00      0      0      0       0      84
 1975 165    68    65   13.0      3   0.31   1076     48      0    817   1124      0    0.0  0.000      0      0  0.000  0.000  0.022  0.000   3.32   0.00   0.00      0      0     28.8   0.00   0.00   0.60   1.31   3.30   3.99   1.83   0.68   0.00   0.00   0.00   0.00   0.00      0      0      0       0      88
 1975 166    69    66   13.0      3   0.35   1110     53      0    815   1163      0    0.0  0.000      0      0  0.000  0.000  0.022  0.000   3.29   0.00   0.00      0      0     31.7   0.00   0.00   0.60   1.30   3.29   3.98   1.83   0.68   0.00   0.00   0.00   0.00   0.00      0      0      0       0      92
 1975 167    70    67   13.0      3   0.39   1159     61      0    814   1220      0    0.0  0.000      0      0  0.000  0.000  0.022  0.000   3.27   0.00   0.00      0      0     33.9   0.00   0.00   0.61   1.29   3.26   3.95   1.81   0.68   0.00   0.00   0.00   0.00   0.00      0      0      0       0      96
 1975 168    71    68   13.0      3   0.43   1200     69      0    813   1269      0    0.0  0.000      0      0  0.000  0.000  0.022  0.000   3.25   0.00   0.00      0      0     36.0   0.00   0.00   0.62   1.28   3.23   3.91   1.80   0.68   0.00   0.00   0.00   0.00   0.00      0      0      0       0     100
 1975 169    72    69   13.0      3   0.49   1253     80      0    812   1333      0    0.0  0.000      0      0  0.000  0.000  0.022  0.000   3.23   0.00   0.00      0      0     39.5   0.00   0.00   0.63   1.26   3.21   3.89   1.79   0.68   0.00   0.00   0.00   0.00   0.00      0      0      0       0     104
 1975 170    73    70   13.0      3   0.56   1313     93      0    814   1406      0    0.0  0.000      0      0  0.000  0.000  0.022  0.000   3.21   0.00   0.00      0      0     42.9   0.00   0.00   0.63   1.25   3.19   3.87   1.78   0.68   0.00   0.00   0.00   0.00   0.00      0      0      0       0     108
 1975 171    74    71   14.0      3   0.61   1372    108      0    818   1480      0    0.0  0.000      0      0  0.000  0.000  0.022  0.000   3.19   0.00   0.00      0      0     44.5   0.00   0.00   0.64   1.25   3.18   3.87   1.78   0.70   0.00   0.00   0.00   0.00   0.00      0      0      0       0     112
 1975 172    75    72   14.0      3   0.65   1404    117      0    816   1521      0    0.0  0.000      0      0  0.000  0.000  0.022  0.000   3.17   0.00   0.00      0      0     46.0   0.00   0.00   0.65   1.24   3.15   3.84   1.77   0.70   0.00   0.00   0.00   0.00   0.00      0      0      0       0     116
 1975 173    76    73   14.0      3   0.69   1444    129      0    831   1573      0    0.0  0.000      0      0  0.000  0.000  0.022  0.000   3.17   0.00   0.00      0      0     47.9   0.00   0.00   0.65   1.24   3.17   3.89   1.80   0.74   0.01   0.00   0.00   0.00   0.00      0      0      0       0     120
 1975 174    77    74   14.0      3   0.69   1482    140      0    851   1622      0    0.0  0.000      0      0  0.000  0.000  0.022  0.000   3.16   0.00   0.00      0      0     46.7   0.00   0.00   0.66   1.25   3.20   3.96   1.85   0.79   0.01   0.00   0.00   0.00   0.00      0      0      0       0     125
 1975 175    78    75   14.0      3   0.66   1516    151      0    868   1667      0    0.0  0.000      0      0  0.000  0.000  0.022  0.000   3.15   0.00   0.00      0      0     43.6   0.00   0.00   0.66   1.26   3.23   4.00   1.89   0.84   0.02   0.00   0.00   0.00   0.00      0      0      0       0     129
 1975 176    79    76   14.0      3   0.70   1553    164      0    866   1717      0    0.0  0.000      0      0  0.000  0.000  0.022  0.000   3.14   0.00   0.00      0      0     45.2   0.00   0.00   0.67   1.25   3.21   3.97   1.88   0.84   0.02   0.00   0.00   0.00   0.00      0      0      0       0     133
 1975 177    80    77   15.0      3   0.78   1623    191      0    867   1814      0    0.0  0.000      0      0  0.000  0.000  0.022  0.000   3.10   0.00   0.00      0      0     48.1   0.00   0.00   0.68   1.25   3.19   3.96   1.88   0.85   0.03   0.00   0.00   0.00   0.00      0      0      0       0     138
 1975 178    81    78   15.0      3   0.84   1679    215      0    868   1894      0    0.0  0.000      0      0  0.000  0.000  0.022  0.000   3.07   0.00   0.00      0      0     50.1   0.00   0.00   0.69   1.24   3.17   3.95   1.88   0.85   0.03   0.00   0.00   0.00   0.00      0      0      0       0     142
 1975 179    82    79   15.0      3   0.87   1709    228      0    866   1937      0    0.0  0.000      0      0  0.000  0.000  0.022  0.000   3.07   0.00   0.00      0      0     51.1   0.00   0.00   0.70   1.23   3.15   3.92   1.87   0.85   0.03   0.00   0.00   0.00   0.00      0      0      0       0     146
 1975 180    83    80   15.0      3   0.90   1732    239      0    863   1971      0    0.0  0.000      0      0  0.000  0.000  0.022  0.000   3.05   0.00   0.00      0      0     51.8   0.00   0.00   0.70   1.22   3.13   3.90   1.86   0.85   0.03   0.00   0.00   0.00   0.00      0      0      0       0     151
 1975 181    84    81   15.0      3   0.92   1755    250      0    861   2005      0    0.0  0.000      0      0  0.000  0.000  0.022  0.000   3.03   0.00   0.00      0      0     52.4   0.00   0.00   0.71   1.22   3.11   3.88   1.85   0.84   0.03   0.00   0.00   0.00   0.00      0      0      0       0     155
 1975 182    85    82   15.0      3   0.94   1778    263      0    859   2041      0    0.0  0.000      0      0  0.000  0.000  0.022  0.000   3.01   0.00   0.00      0      0     53.0   0.00   0.00   0.72   1.21   3.10   3.86   1.84   0.84   0.03   0.00   0.00   0.00   0.00      0      0      0       0     159
 1975 183    86    83   16.0      3   0.97   1806    279      0    857   2085      0    0.0  0.000      0      0  0.000  0.000  0.022  0.000   2.99   0.00   0.00      0      0     53.8   0.00   0.00   0.73   1.20   3.08   3.84   1.84   0.84   0.03   0.00   0.00   0.00   0.00      0      0      0       0     163
 1975 184    87    84   16.0      3   1.01   1841    300      0    864   2141      0    0.0  0.000      0      0  0.000  0.000  0.022  0.000   3.00   0.00   0.00      0      0     54.7   0.00   0.00   0.73   1.19   3.09   3.86   1.86   0.87   0.04   0.00   0.00   0.00   0.00      0      0      0       0     168
 1975 185    88    85   16.0      3   1.06   1891    331      0    869   2222      0    0.0  0.000      0      0  0.000  0.000  0.022  0.000   2.96   0.00   0.00      0      0     56.1   0.00   0.00   0.74   1.19   3.10   3.88   1.87   0.89   0.05   0.00   0.00   0.00   0.00      0      0      0       0     172
 1975 186    89    86   16.0      3   1.09   1921    351      0    882   2272      0    0.0  0.000      0      0  0.000  0.000  0.022  0.000   2.98   0.00   0.00      0      0     56.8   0.00   0.00   0.74   1.18   3.12   3.92   1.91   0.93   0.07   0.00   0.00   0.00   0.00      0      0      0       0     176
 1975 187    90    87   16.0      3   1.11   1943    365      0    904   2308      0    0.0  0.000      0      0  0.000  0.000  0.022  0.000   2.98   0.00   0.00      0      0     57.2   0.00   0.00   0.74   1.18   3.16   4.00   1.98   1.00   0.09   0.00   0.00   0.00   0.00      0      0      0       0     181
 1975 188    91    88   16.0      3   1.12   1985    394      0    937   2379      0    0.0  0.000      0      0  0.000  0.000  0.022  0.000   2.94   0.00   0.00      0      0     56.6   0.00   0.00   0.75   1.18   3.22   4.00   2.08   1.10   0.13   0.00   0.00   0.00   0.00      0      0      0       0     185
 1975 189    92    89   16.0      3   1.18   2038    432      0    965   2470      0    0.0  0.000      0      0  0.000  0.000  0.022  0.000   2.92   0.00   0.00      0      0     57.8   0.00   0.00   0.75   1.17   3.28   4.00   2.16   1.19   0.17   0.00   0.00   0.00   0.00      0      0      0       0     190
 1975 190    93    90   16.0      3   1.24   2099    479      0    967   2578      0    0.0  0.000      0      0  0.000  0.000  0.022  0.000   2.90   0.00   0.00      0      0     59.2   0.00   0.00   0.76   1.17   3.27   4.00   2.17   1.20   0.18   0.00   0.00   0.00   0.00      0      0      0       0     195
 1975 191    94    91   17.0      3   1.29   2145    517      0    967   2662      0    0.0  0.000      0      0  0.000  0.000  0.022  0.000   2.87   0.00   0.00      0      0     60.0   0.00   0.00   0.77   1.16   3.26   3.99   2.17   1.21   0.18   0.00   0.00   0.00   0.00      0      0      0       0     200
 1975 192    95    92   17.0      3   1.31   2165    535      0    964   2699      0    0.0  0.000      0      0  0.000  0.000  0.022  0.000   2.86   0.00   0.00      0      0     60.3   0.00   0.00   0.78   1.16   3.25   3.98   2.17   1.20   0.18   0.00   0.00   0.00   0.00      0      0      0       0     204
 1975 193    96    93   17.0      3   1.33   2190    557      0    982   2747      0    0.0  0.000      0      0  0.000  0.000  0.022  0.000   2.88   0.00   0.00      0      0     60.6   0.00   0.00   0.78   1.15   3.27   4.00   2.23   1.27   0.22   0.00   0.00   0.00   0.00      0      0      0       0     209
 1975 194    97    94   17.0      3   1.20   2216    581      0    980   2797      0    0.0  0.000      0      0  0.000  0.000  0.022  0.081   2.85   0.00   0.00      0      0     54.0   0.00   0.00   0.79   1.14   3.23   3.96   2.21   1.26   0.22   0.00   0.00   0.00   0.00      0      0      0       0     214
 1975 195    98    95   17.0      3   1.22   2238    603      0    978   2841      0    0.0  0.000      0      0  0.000  0.000  0.022  0.215   2.82   0.00   0.00      0      0     54.4   0.00   0.00   0.80   1.12   3.19   3.92   2.19   1.25   0.22   0.00   0.00   0.00   0.00      0      0      0       0     219
 1975 196    99    96   17.0      3   1.22   2245    610      0   1004   2855      0    0.0  0.000      0      0  0.000  0.000  0.022  0.576   2.83   0.00   0.00      0      0     54.4   0.00   0.00   0.80   1.05   3.01   3.74   2.12   1.25   0.26   0.00   0.00   0.00   0.00      0      0      0       0     224
 1975 197   100    97   17.0      3   1.05   2245    610      0    999   2854      0    0.0  0.000      0      0  0.000  0.000  0.022  0.341   2.94   0.00   0.00      0      0     46.6   0.00   0.00   0.80   1.05   3.01   3.74   2.12   1.25   0.26   0.00   0.00   0.00   0.00      0      0      0       0     229
 1975 198   101    98   17.0      3   0.81   2248    613      0   1002   2861      0    0.0  0.000      0      0  0.000  0.000  0.022  0.232   2.94   0.00   0.00      0      0     35.9   0.00   0.00   0.80   1.01   2.91   3.62   2.06   1.23   0.26   0.00   0.00   0.00   0.00      0      0      0       0     229
 1975 199   102    99   17.0      3   0.52   2251    617      0   1001   2869      0    0.0  0.000      0      0  0.000  0.000  0.022  0.119   2.93   0.00   0.00      0      0     23.0   0.00   0.00   0.80   0.99   2.84   3.54   2.01   1.21   0.26   0.00   0.00   0.00   0.00      0      0      0       0     229
 1975 200   103   100   17.0      3   0.25   2263    630      0    999   2893      0    0.0  0.000      0      0  0.000  0.000  0.022  0.057   2.90   0.00   0.00      0      0     11.0   0.00   0.00   0.80   0.99   2.79   3.48   1.98   1.19   0.26   0.00   0.00   0.00   0.00      0      0      0       0     229
 1975 201   104   101   17.0      3   0.09   2272    639      0    995   2912      0    0.0  0.000      0      0  0.000  0.000  0.022  0.025   2.89   0.00   0.00      0      0      3.9   0.00   0.00   0.80   0.99   2.74   3.42   1.95   1.17   0.26   0.00   0.00   0.00   0.00      0      0      0       0     229
 1975 202   105   102   17.0      3   0.04   2275    642      0    990   2917      0    0.0  0.000      0      0  0.000  0.000  0.022  0.014   2.88   0.00   0.00      0      0      1.6   0.00   0.00   0.81   0.98   2.70   3.37   1.91   1.16   0.25   0.00   0.00   0.00   0.00      0      0      0       0     229
 1975 203   106   103   17.0      3   0.03   2276    643      0    985   2919      0    0.0  0.000      0      0  0.000  0.000  0.022  0.014   2.88   0.00   0.00      0      0      1.5   0.00   0.00   0.81   0.96   2.65   3.31   1.88   1.14   0.25   0.00   0.00   0.00   0.00      0      0      0       0     229
 1975 204   107   104   18.0      3   0.03   2276    644      0    980   2921      0    0.0  0.000      0      0  0.000  0.000  0.022  0.014   2.88   0.00   0.00      0      0      1.5   0.00   0.00   0.81   0.95   2.61   3.26   1.85   1.12   0.25   0.00   0.00   0.00   0.00      0      0      0       0     229
 1975 205   108   105   18.0      3   0.03   2277    646      0    976   2922      0    0.0  0.000      0      0  0.000  0.000  0.022  0.014   2.88   0.00   0.00      0      0      1.5   0.00   0.00   0.82   0.93   2.57   3.20   1.82   1.10   0.24   0.00   0.00   0.00   0.00      0      0      0       0     229
 1975 206   109   106   18.0      3   0.03   2277    646      0    971   2923      0    0.0  0.000      0      0  0.000  0.000  0.022  0.013   2.87   0.00   0.00      0      0      1.4   0.00   0.00   0.82   0.92   2.53   3.15   1.79   1.08   0.24   0.00   0.00   0.00   0.00      0      0      0       0     229
 1975 207   110   107   18.0      3   0.02   2277    647      0    966   2924      0    0.0  0.000      0      0  0.000  0.000  0.022  0.013   2.87   0.00   0.00      0      0      0.8   0.00   0.00   0.82   0.90   2.48   3.10   1.76   1.06   0.23   0.00   0.00   0.00   0.00      0      0      0       0     229
 1975 208   111   108   18.0      3   0.02   2277    647      0    961   2924      0    0.0  0.000      0      0  0.000  0.000  0.022  0.012   2.87   0.00   0.00      0      0      0.8   0.00   0.00   0.82   0.89   2.44   3.05   1.74   1.05   0.23   0.00   0.00   0.00   0.00      0      0      0       0     229
 1975 209   112   109   18.0      3   0.02   2277    648      0    957   2924      0    0.0  0.000      0      0  0.000  0.000  0.022  0.011   2.87   0.00   0.00      0      0      0.8   0.00   0.00   0.82   0.87   2.40   3.00   1.71   1.03   0.22   0.00   0.00   0.00   0.00      0      0      0       0     229
 1975 210   113   110   18.0      3   0.02   2277    648      0    952   2925      0    0.0  0.000      0      0  0.000  0.000  0.022  0.011   2.87   0.00   0.00      0      0      0.8   0.00   0.00   0.83   0.86   2.37   2.95   1.68   1.01   0.22   0.00   0.00   0.00   0.00      0      0      0       0     229
 1975 211   114   111   18.0      3   0.02   2276    648      0    947   2925      0    0.0  0.000      0      0  0.000  0.000  0.022  0.010   2.87   0.00   0.00      0      0      0.7   0.00   0.00   0.83   0.85   2.33   2.91   1.65   1.00   0.22   0.00   0.00   0.00   0.00      0      0      0       0     229
 1975 212   115   112   18.0      3   0.02   2277    649      0    942   2926      0    0.0  0.000      0      0  0.000  0.000  0.022  0.009   2.87   0.00   0.00      0      0      0.8   0.00   0.00   0.84   0.83   2.29   2.86   1.62   0.98   0.21   0.00   0.00   0.00   0.00      0      0      0       0     229
 1975 213   116   113   18.0      3   0.02   2278    650      0    938   2928      0    0.0  0.000      0      0  0.000  0.000  0.022  0.008   2.87   0.00   0.00      0      0      0.8   0.00   0.00   0.85   0.82   2.25   2.81   1.60   0.96   0.21   0.00   0.00   0.00   0.00      0      0      0       0     229
 1975 214   117   114   18.0      3   0.02   2278    651      0    933   2930      0    0.0  0.000      0      0  0.000  0.000  0.022  0.007   2.87   0.00   0.00      0      0      0.8   0.00   0.00   0.85   0.81   2.22   2.77   1.57   0.95   0.20   0.00   0.00   0.00   0.00      0      0      0       0     229
 1975 215   118   115   19.0      3   0.02   2278    652      0    929   2930      0    0.0  0.000      0      0  0.000  0.000  0.022  0.006   2.87   0.00   0.00      0      0      0.8   0.00   0.00   0.86   0.79   2.18   2.72   1.55   0.93   0.20   0.00   0.00   0.00   0.00      0      0      0       0     229
 1975 216   119   116   19.0      3   0.02   2279    653      0    924   2932      0    0.0  0.000      0      0  0.000  0.000  0.022  0.006   2.87   0.00   0.00      0      0      0.7   0.00   0.00   0.86   0.78   2.14   2.68   1.52   0.92   0.20   0.00   0.00   0.00   0.00      0      0      0       0     229
 1975 217   120   117   19.0      3   0.02   2279    654      0    920   2933      0    0.0  0.000      0      0  0.000  0.000  0.022  0.006   2.87   0.00   0.00      0      0      0.7   0.00   0.00   0.86   0.77   2.11   2.64   1.50   0.90   0.19   0.00   0.00   0.00   0.00      0      0      0       0     229
 1975 218   121   118   19.0      3   0.01   2279    655      0    915   2934      0    0.0  0.000      0      0  0.000  0.000  0.022  0.006   2.86   0.00   0.00      0      0      0.5   0.00   0.00   0.86   0.76   2.08   2.59   1.47   0.89   0.19   0.00   0.00   0.00   0.00      0      0      0       0     229
 1975 219   122   119   19.0      3   0.01   2279    655      0    911   2934      0    0.0  0.000      0      0  0.000  0.000  0.022  0.006   2.86   0.00   0.00      0      0      0.4   0.00   0.00   0.87   0.75   2.04   2.55   1.45   0.87   0.19   0.00   0.00   0.00   0.00      0      0      0       0     229
 1975 220   123   120   19.0      3   0.01   2278    655      0    906   2934      0    0.0  0.000      0      0  0.000  0.000  0.022  0.006   2.86   0.00   0.00      0      0      0.4   0.00   0.00   0.87   0.73   2.01   2.51   1.43   0.86   0.19   0.00   0.00   0.00   0.00      0      0      0       0     229
 1975 221   124   121   19.0      3   0.01   2278    656      0    901   2934      0    0.0  0.000      0      0  0.000  0.000  0.022  0.006   2.86   0.00   0.00      0      0      0.4   0.00   0.00   0.87   0.72   1.98   2.47   1.40   0.84   0.18   0.00   0.00   0.00   0.00      0      0      0       0     229
 1975 222   125   122   19.0      3   0.01   2278    656      0    897   2934      0    0.0  0.000      0      0  0.000  0.000  0.022  0.007   2.86   0.00   0.00      0      0      0.4   0.00   0.00   0.88   0.71   1.95   2.43   1.38   0.83   0.18   0.00   0.00   0.00   0.00      0      0      0       0     229
 1975 223   126   123   19.0      3   0.01   2277    656      0    893   2934      0    0.0  0.000      0      0  0.000  0.000  0.022  0.165   2.86   0.00   0.00      0      0      0.4   0.00   0.00   0.88   0.67   1.84   2.30   1.30   0.78   0.17   0.00   0.00   0.00   0.00      0      0      0       0     229
 1975 224   127   124   19.0      3   0.01   2278    657      0    888   2935      0    0.0  0.000      0      0  0.000  0.000  0.022  0.600   2.86   0.00   0.00      0      0      0.4   0.00   0.00   0.89   0.63   1.74   2.17   1.23   0.74   0.16   0.00   0.00   0.00   0.00      0      0      0       0     229
 1975 225   128   125   19.0      3   0.01   2277    658      0    884   2936      0    0.0  0.000      0      0  0.000  0.000  0.022  0.336   2.86   0.00   0.00      0      0      0.4   0.00   0.00   0.89   0.61   1.67   2.09   1.19   0.71   0.15   0.00   0.00   0.00   0.00      0      0      0       0     229
 1975 226   129   126   19.0      3   0.01   2277    658      0    879   2935      0    0.0  0.000      0      0  0.000  0.000  0.022  0.173   2.86   0.00   0.00      0      0      0.3   0.00   0.00   0.90   0.59   1.63   2.04   1.15   0.69   0.15   0.00   0.00   0.00   0.00      0      0      0       0     229
 1975 227   130   127   20.0      3   0.01   2277    659      0    875   2935      0    0.0  0.000      0      0  0.000  0.000  0.022  0.111   2.86   0.00   0.00      0      0      0.3   0.00   0.00   0.90   0.58   1.59   1.99   1.13   0.68   0.14   0.00   0.00   0.00   0.00      0      0      0       0     229
 1975 228   131   128   20.0      3   0.01   2276    659      0    871   2936      0    0.0  0.000      0      0  0.000  0.000  0.022  0.086   2.86   0.00   0.00      0      0      0.3   0.00   0.00   0.91   0.57   1.56   1.95   1.10   0.66   0.14   0.00   0.00   0.00   0.00      0      0      0       0     229
 1975 229   132   129   20.0      3   0.01   2276    660      0    866   2936      0    0.0  0.000      0      0  0.000  0.000  0.022  0.066   2.86   0.00   0.00      0      0      0.3   0.00   0.00   0.91   0.56   1.54   1.92   1.09   0.65   0.14   0.00   0.00   0.00   0.00      0      0      0       0     229
 1975 230   133   130   20.0      3   0.01   2276    661      0    862   2937      0    0.0  0.000      0      0  0.000  0.000  0.022  0.034   2.86   0.00   0.00      0      0      0.3   0.00   0.00   0.92   0.55   1.52   1.90   1.08   0.65   0.14   0.00   0.00   0.00   0.00      0      0      0       0     229
 1975 231   134   131   20.0      3   0.01   2276    662      0    858   2938      0    0.0  0.000      0      0  0.000  0.000  0.022  0.016   2.86   0.00   0.00      0      0      0.2   0.00   0.00   0.92   0.55   1.51   1.89   1.07   0.64   0.14   0.00   0.00   0.00   0.00      0      0      0       0     229
 1975 232   135   132   20.0      3   0.01   2276    662      0    854   2938      0    0.0  0.000      0      0  0.000  0.000  0.022  0.016   2.86   0.00   0.00      0      0      0.2   0.00   0.00   0.93   0.55   1.50   1.88   1.06   0.64   0.14   0.00   0.00   0.00   0.00      0      0      0       0     229
 1975 233   136   133   21.0      3   0.00   2276    663      0    849   2938      0    0.0  0.000      0      0  0.000  0.000  0.022  0.015   2.86   0.00   0.00      0      0      0.2   0.00   0.00   0.94   0.54   1.50   1.87   1.06   0.63   0.14   0.00   0.00   0.00   0.00      0      0      0       0     229
 1975 234   137   134   21.0      3   0.00   2275    663      0    845   2938      0    0.0  0.000      0      0  0.000  0.000  0.022  0.026   2.86   0.00   0.00      0      0      0.2   0.00   0.00   0.95   0.54   1.48   1.85   1.05   0.63   0.13   0.00   0.00   0.00   0.00      0      0      0       0     229
 1975 235   138   135   21.0      3   0.00   2275    663      0    841   2938      0    0.0  0.000      0      0  0.000  0.000  0.022  0.111   2.86   0.00   0.00      0      0      0.2   0.00   0.00   0.95   0.50   1.39   1.74   0.98   0.59   0.12   0.00   0.00   0.00   0.00      0      0      0       0     229
 1975 236   139   136   21.0      3   0.00   2274    664      0    837   2938      0    0.0  0.000      0      0  0.000  0.000  0.022  0.394   2.86   0.00   0.00      0      0      0.2   0.00   0.00   0.96   0.49   1.34   1.67   0.94   0.56   0.12   0.00   0.00   0.00   0.00      0      0      0       0     229
 1975 237   140   137   21.0      3   0.00   2274    664      0    833   2938      0    0.0  0.000      0      0  0.000  0.000  0.022  0.456   2.86   0.00   0.00      0      0      0.1   0.00   0.00   0.96   0.46   1.28   1.60   0.90   0.54   0.11   0.00   0.00   0.00   0.00      0      0      0       0     229
 1975 238   141   138   21.0      3   0.00   2273    664      0    829   2938      0    0.0  0.000      0      0  0.000  0.000  0.022  0.606   2.86   0.00   0.00      0      0      0.1   0.00   0.00   0.96   0.44   1.20   1.50   0.85   0.51   0.11   0.00   0.00   0.00   0.00      0      0      0       0     229
 1975 239   142   139   21.0      3   0.00   2273    664      0    824   2937      0    0.0  0.000      0      0  0.000  0.000  0.022  0.333   2.86   0.00   0.00      0      0      0.1   0.00   0.00   0.97   0.42   1.16   1.45   0.82   0.49   0.10   0.00   0.00   0.00   0.00      0      0      0       0     229
 1975 240   143   140   21.0      3   0.00   2273    664      0    820   2937      0    0.0  0.000      0      0  0.000  0.000  0.022  0.212   2.86   0.00   0.00      0      0      0.0   0.00   0.00   0.97   0.40   1.11   1.39   0.78   0.47   0.10   0.00   0.00   0.00   0.00      0      0      0       0     229
 1975 241   144   141   22.0      3   0.00   2272    665      0    816   2937      0    0.0  0.000      0      0  0.000  0.000  0.022  0.116   2.86   0.00   0.00      0      0      0.0   0.00   0.00   0.97   0.39   1.08   1.35   0.76   0.46   0.09   0.00   0.00   0.00   0.00      0      0      0       0     229
 1975 242   145   142   22.0      3   0.00   2272    665      0    812   2936      0    0.0  0.000      0      0  0.000  0.000  0.022  0.058   2.86   0.00   0.00      0      0      0.0   0.00   0.00   0.97   0.39   1.08   1.35   0.76   0.46   0.09   0.00   0.00   0.00   0.00      0      0      0       0     229
 1975 243   146   143   22.0      3   0.00   2271    665      0    808   2936      0    0.0  0.000      0      0  0.000  0.000  0.022  0.026   2.86   0.00   0.00      0      0      0.0   0.00   0.00   0.97   0.39   1.08   1.35   0.76   0.46   0.09   0.00   0.00   0.00   0.00      0      0      0       0     229
 1975 244   147   144   22.0      3   0.00   2271    665      0    804   2935      0    0.0  0.000      0      0  0.000  0.000  0.022  0.019   2.86   0.00   0.00      0      0      0.0   0.00   0.00   0.97   0.39   1.08   1.35   0.76   0.46   0.09   0.00   0.00   0.00   0.00      0      0      0       0     229
 1975 245   148   145   22.0      3   0.00   2270    665      0    800   2935      0    0.0  0.000      0      0  0.000  0.000  0.022  0.014   2.86   0.00   0.00      0      0      0.0   0.00   0.00   0.97   0.39   1.08   1.35   0.76   0.46   0.09   0.00   0.00   0.00   0.00      0      0      0       0     229
 1975 246   149   146   22.0      3   0.00   2270    665      0    796   2934      0    0.0  0.000      0      0  0.000  0.000  0.022  0.013   2.86   0.00   0.00      0      0      0.0   0.00   0.00   0.97   0.39   1.08   1.35   0.76   0.46   0.09   0.00   0.00   0.00   0.00      0      0      0       0     229
 1975 247   150   147   22.0      3   0.00   2269    665      0    792   2934      0    0.0  0.000      0      0  0.000  0.000  0.022  0.013   2.86   0.00   0.00      0      0      0.0   0.00   0.00   0.97   0.39   1.08   1.35   0.76   0.46   0.09   0.00   0.00   0.00   0.00      0      0      0       0     229
 1975 248   151   148   22.0      3   0.00   2269    665      0    788   2933      0    0.0  0.000      0      0  0.000  0.000  0.022  0.013   2.86   0.00   0.00      0      0      0.0   0.00   0.00   0.97   0.39   1.08   1.35   0.76   0.46   0.09   0.00   0.00   0.00   0.00      0      0      0       0     229
 1975 249   152   149   22.0      3   0.00   2268    665      0    784   2933      0    0.0  0.000      0      0  0.000  0.000  0.022  0.020   2.87   0.00   0.00      0      0      0.0   0.00   0.00   0.97   0.39   1.08   1.35   0.76   0.46   0.09   0.00   0.00   0.00   0.00      0      0      0       0     229
 1975 250   153   150   22.0      3   0.00   2268    665      0    780   2932      0    0.0  0.000      0      0  0.000  0.000  0.022  0.015   2.87   0.00   0.00      0      0      0.0   0.00   0.00   0.97   0.39   1.08   1.35   0.76   0.46   0.09   0.00   0.00   0.00   0.00      0      0      0       0     229
 1975 251   154   151   22.0      3   0.00   2267    665      0    776   2932      0    0.0  0.000      0      0  0.000  0.000  0.022  0.121   2.87   0.00   0.00      0      0      0.0   0.00   0.00   0.97   0.39   1.08   1.35   0.76   0.46   0.09   0.00   0.00   0.00   0.00      0      0      0       0     229
 1975 252   155   152   22.0      3   0.00   2267    665      0    772   2931      0    0.0  0.000      0      0  0.000  0.000  0.022  0.072   2.87   0.00   0.00      0      0      0.0   0.00   0.00   0.97   0.39   1.08   1.35   0.76   0.46   0.09   0.00   0.00   0.00   0.00      0      0      0       0     229
 1975 253   156   153   22.0      3   0.00   2266    665      0    769   2931      0    0.0  0.000      0      0  0.000  0.000  0.022  0.037   2.87   0.00   0.00      0      0      0.0   0.00   0.00   0.97   0.39   1.08   1.35   0.76   0.46   0.09   0.00   0.00   0.00   0.00      0      0      0       0     229
 1975 254   157   154   22.0      3   0.00   2266    665      0    765   2930      0    0.0  0.000      0      0  0.000  0.000  0.022  0.012   2.87   0.00   0.00      0      0      0.0   0.00   0.00   0.97   0.39   1.08   1.35   0.76   0.46   0.09   0.00   0.00   0.00   0.00      0      0      0       0     229
 1975 255   158   155   22.0      3   0.00   2265    665      0    761   2930      0    0.0  0.000      0      0  0.000  0.000  0.022  0.012   2.87   0.00   0.00      0      0      0.0   0.00   0.00   0.97   0.39   1.08   1.35   0.76   0.46   0.09   0.00   0.00   0.00   0.00      0      0      0       0     229
 1975 256   159   156   22.0      3   0.00   2265    665      0    757   2929      0    0.0  0.000      0      0  0.000  0.000  0.022  0.012   2.87   0.00   0.00      0      0      0.0   0.00   0.00   0.97   0.39   1.08   1.35   0.76   0.46   0.09   0.00   0.00   0.00   0.00      0      0      0       0     229
 1975 257   160   157   22.0      3   0.00   2264    665      0    753   2929      0    0.0  0.000      0      0  0.000  0.000  0.022  0.012   2.87   0.00   0.00      0      0      0.0   0.00   0.00   0.97   0.39   1.08   1.35   0.76   0.46   0.09   0.00   0.00   0.00   0.00      0      0      0       0     229
 1975 258   161   158   22.0      3   0.00   2264    665      0    750   2928      0    0.0  0.000      0      0  0.000  0.000  0.022  0.012   2.87   0.00   0.00      0      0      0.0   0.00   0.00   0.97   0.39   1.08   1.35   0.76   0.46   0.09   0.00   0.00   0.00   0.00      0      0      0       0     229
 1975 259   162   159   22.0      4   0.00   2238    554      0    746   2903      0    0.0  0.000    111      0  0.000  0.000  0.022  0.011   3.01   0.00   0.04      0    111      0.0   0.00   0.00   0.97   0.39   1.08   1.35   0.76   0.46   0.09   0.00   0.00   0.00   0.00      0      0      0       0     229
 1975 260   163   160   22.0      4   0.00   2212    554      0    742   2876      0    0.0  0.000    111      0  0.000  0.000  0.022  0.011   3.04   0.00   0.04      0    111      0.0   0.00   0.00   0.97   0.39   1.08   1.35   0.76   0.46   0.09   0.00   0.00   0.00   0.00      0      0      0       0     229
 1975 261   164   161   22.0      4   0.00   2184    554      0    738   2849      0    0.0  0.000    111      0  0.000  0.000  0.022  0.010   3.07   0.00   0.04      0    111      0.0   0.00   0.00   0.97   0.39   1.08   1.35   0.76   0.46   0.09   0.00   0.00   0.00   0.00      0      0      0       0     229
 1975 262   165   162   22.0      4   0.00   2155    554      0    735   2820      0    0.0  0.000    111      0  0.000  0.000  0.022  0.009   3.10   0.00   0.04      0    111      0.0   0.00   0.00   0.97   0.39   1.08   1.35   0.76   0.46   0.09   0.00   0.00   0.00   0.00      0      0      0       0     229
 1975 263   166   163   22.0      4   0.00   2125    554      0    731   2790      0    0.0  0.000    111      0  0.000  0.000  0.022  0.009   3.14   0.00   0.04      0    111      0.0   0.00   0.00   0.97   0.39   1.08   1.35   0.76   0.46   0.09   0.00   0.00   0.00   0.00      0      0      0       0     229
 1975 264   167   164   22.0      4   0.00   2095    554      0    727   2759      0    0.0  0.000    111      0  0.000  0.000  0.022  0.008   3.17   0.00   0.04      0    111      0.0   0.00   0.00   0.97   0.39   1.08   1.35   0.76   0.46   0.09   0.00   0.00   0.00   0.00      0      0      0       0     229
 1975 265   168   165   22.0      4   0.00   2063    554      0    724   2728      0    0.0  0.000    111      0  0.000  0.000  0.022  0.045   3.21   0.00   0.04      0    111      0.0   0.00   0.00   0.97   0.39   1.08   1.35   0.76   0.46   0.09   0.00   0.00   0.00   0.00      0      0      0       0     229
 1975 266   169   166   22.0      4   0.00   2030    554      0    720   2695      0    0.0  0.000    111      0  0.000  0.000  0.022  0.013   3.25   0.00   0.04      0    111      0.0   0.00   0.00   0.97   0.39   1.08   1.35   0.76   0.46   0.09   0.00   0.00   0.00   0.00      0      0      0       0     229
 1975 267   170   167   22.0      4   0.00   1998    554      0    716   2662      0    0.0  0.000    111      0  0.000  0.000  0.022  0.008   3.29   0.00   0.04      0    111      0.0   0.00   0.00   0.97   0.39   1.08   1.35   0.76   0.46   0.09   0.00   0.00   0.00   0.00      0      0      0       0     229
 1975 268   171   168   22.0      4   0.00   1964    554      0    713   2629      0    0.0  0.000    111      0  0.000  0.000  0.022  0.008   3.34   0.00   0.04      0    111      0.0   0.00   0.00   0.97   0.39   1.08   1.35   0.76   0.46   0.09   0.00   0.00   0.00   0.00      0      0      0       0     229
 1975 269   172   169   22.0      4   0.00   1931    554      0    709   2595      0    0.0  0.000    111      0  0.000  0.000  0.022  0.007   3.38   0.00   0.04      0    111      0.0   0.00   0.00   0.97   0.39   1.08   1.35   0.76   0.46   0.09   0.00   0.00   0.00   0.00      0      0      0       0     229
 1975 270   173   170   22.0      4   0.00   1896    554      0    706   2561      0    0.0  0.000    111      0  0.000  0.000  0.022  0.007   3.43   0.00   0.04      0    111      0.0   0.00   0.00   0.97   0.39   1.08   1.35   0.76   0.46   0.09   0.00   0.00   0.00   0.00      0      0      0       0     229
 1975 271   174   171   22.0      4   0.00   1860    554      0    702   2525      0    0.0  0.000    111      0  0.000  0.000  0.022  0.007   3.48   0.00   0.04      0    111      0.0   0.00   0.00   0.97   0.39   1.08   1.35   0.76   0.46   0.09   0.00   0.00   0.00   0.00      0      0      0       0     229
 1975 272   175   172   22.0      4   0.00   1823    554      0    699   2488      0    0.0  0.000    111      0  0.000  0.000  0.022  0.015   3.54   0.00   0.04      0    111      0.0   0.00   0.00   0.97   0.39   1.08   1.35   0.76   0.46   0.09   0.00   0.00   0.00   0.00      0      0      0       0     229
 1975 273   176   173   22.0      4   0.00   1785    554      0    695   2450      0    0.0  0.000    111      0  0.000  0.000  0.022  0.110   3.59   0.00   0.05      0    111      0.0   0.00   0.00   0.97   0.39   1.08   1.35   0.76   0.46   0.09   0.00   0.00   0.00   0.00      0      0      0       0     229
 1975 274   177   174   22.0      4   0.00   1746    554      0    692   2411      0    0.0  0.000    111      0  0.000  0.000  0.022  0.304   3.65   0.00   0.05      0    111      0.0   0.00   0.00   0.97   0.39   1.08   1.35   0.76   0.46   0.09   0.00   0.00   0.00   0.00      0      0      0       0     229
 1975 275   178   175   22.0      4   0.00   1707    554      0    688   2372      0    0.0  0.000    111      0  0.000  0.000  0.022  0.165   3.72   0.00   0.05      0    111      0.0   0.00   0.00   0.97   0.39   1.08   1.35   0.76   0.46   0.09   0.00   0.00   0.00   0.00      0      0      0       0     229
 1975 276   179   176   22.0      4   0.00   1667    554      0    685   2332      0    0.0  0.000    111      0  0.000  0.000  0.022  0.075   3.78   0.00   0.05      0    111      0.0   0.00   0.00   0.97   0.39   1.08   1.35   0.76   0.46   0.09   0.00   0.00   0.00   0.00      0      0      0       0     229
 1975 277   180   177   22.0      4   0.00   1627    554      0    681   2291      0    0.0  0.000    111      0  0.000  0.000  0.022  0.021   3.85   0.00   0.05      0    111      0.0   0.00   0.00   0.97   0.39   1.08   1.35   0.76   0.46   0.09   0.00   0.00   0.00   0.00      0      0      0       0     229
 1975 278   181   178   22.0      4   0.00   1586    554      0    678   2250      0    0.0  0.000    111      0  0.000  0.000  0.022  0.014   3.93   0.00   0.05      0    111      0.0   0.00   0.00   0.97   0.39   1.08   1.35   0.76   0.46   0.09   0.00   0.00   0.00   0.00      0      0      0       0     229
 1975 279   182   179   22.0      4   0.00   1544    554      0    675   2208      0    0.0  0.000    111      0  0.000  0.000  0.022  0.014   4.01   0.00   0.05      0    111      0.0   0.00   0.00   0.97   0.39   1.08   1.35   0.76   0.46   0.09   0.00   0.00   0.00   0.00      0      0      0       0     229
 1975 280   183   180   22.0      4   0.00   1500    554      0    671   2165      0    0.0  0.000    111      0  0.000  0.000  0.022  0.014   4.09   0.00   0.05      0    111      0.0   0.00   0.00   0.97   0.39   1.08   1.35   0.76   0.46   0.09   0.00   0.00   0.00   0.00      0      0      0       0     229
 1975 281   184   181   22.0      4   0.00   1456    554      0    668   2121      0    0.0  0.000    111      0  0.000  0.000  0.022  0.013   4.18   0.00   0.05      0    111      0.0   0.00   0.00   0.97   0.39   1.08   1.35   0.76   0.46   0.09   0.00   0.00   0.00   0.00      0      0      0       0     229
 1975 282   185   182   22.0      4   0.00   1412    554      0    665   2076      0    0.0  0.000    111      0  0.000  0.000  0.022  0.013   4.28   0.00   0.05      0    111      0.0   0.00   0.00   0.97   0.39   1.08   1.35   0.76   0.46   0.09   0.00   0.00   0.00   0.00      0      0      0       0     229
 1975 283   186   183   22.0      4   0.00   1367    554      0    661   2031      0    0.0  0.000    111      0  0.000  0.000  0.022  0.012   4.38   0.00   0.05      0    111      0.0   0.00   0.00   0.97   0.39   1.08   1.35   0.76   0.46   0.09   0.00   0.00   0.00   0.00      0      0      0       0     229
 1975 284   187   184   22.0      4   0.00   1321    554      0    658   1986      0    0.0  0.000    111      0  0.000  0.000  0.022  0.012   4.48   0.00   0.06      0    111      0.0   0.00   0.00   0.97   0.39   1.08   1.35   0.76   0.46   0.09   0.00   0.00   0.00   0.00      0      0      0       0     229
 1975 285   188   185   22.0      4   0.00   1275    554      0    655   1940      0    0.0  0.000    111      0  0.000  0.000  0.022  0.011   4.60   0.00   0.06      0    111      0.0   0.00   0.00   0.97   0.39   1.08   1.35   0.76   0.46   0.09   0.00   0.00   0.00   0.00      0      0      0       0     229
 1975 286   189   186   22.0      5   0.00   1275    554      0    651   1940    269    0.0  0.000    111      5  0.000  0.000  0.000  0.010   4.60   0.00   0.06      0    111      0.0   0.00   0.00   0.97   0.39   1.08   1.35   0.76   0.46   0.09   0.00   0.00   0.00   0.00      0      0      0       0     229
 1975 287   190   187   22.0      5   0.00   1275    554      0    648   1940    269    0.0  0.000    111      5  0.000  0.000  0.000  0.009   4.60   0.00   0.06      0    111      0.0   0.00   0.00   0.97   0.39   1.08   1.35   0.76   0.46   0.09   0.00   0.00   0.00   0.00      0      0      0       0     229
 1975 288   191   188   22.0      5   0.00   1275    554      0    645   1940    269    0.0  0.000    111      5  0.000  0.000  0.000  0.008   4.60   0.00   0.06      0    111      0.0   0.00   0.00   0.97   0.39   1.08   1.35   0.76   0.46   0.09   0.00   0.00   0.00   0.00      0      0      0       0     229
 1975 289   192   189   22.0      5   0.00   1275    554      0    642   1940    269    0.0  0.000    111      5  0.000  0.000  0.000  0.007   4.60   0.00   0.06      0    111      0.0   0.00   0.00   0.97   0.39   1.08   1.35   0.76   0.46   0.09   0.00   0.00   0.00   0.00      0      0      0       0     229
 1975 290   193   190   22.0      5   0.00   1275    554      0    638   1940    269    0.0  0.000    111      5  0.000  0.000  0.000  0.006   4.60   0.00   0.06      0    111      0.0   0.00   0.00   0.97   0.39   1.08   1.35   0.76   0.46   0.09   0.00   0.00   0.00   0.00      0      0      0       0     229
 1975 291   194   191   22.0      5   0.00   1275    554      0    635   1940    269    0.0  0.000    111      5  0.000  0.000  0.000  0.005   4.60   0.00   0.06      0    111      0.0   0.00   0.00   0.97   0.39   1.08   1.35   0.76   0.46   0.09   0.00   0.00   0.00   0.00      0      0      0       0     229
 1975 292   195   192   22.0      5   0.00   1275    554      0    632   1940    269    0.0  0.000    111      5  0.000  0.000  0.000  0.005   4.60   0.00   0.06      0    111      0.0   0.00   0.00   0.97   0.39   1.08   1.35   0.76   0.46   0.09   0.00   0.00   0.00   0.00      0      0      0       0     229
 1975 293   196   193   22.0      5   0.00   1275    554      0    632   1940    269    0.0  0.000    111      5  0.000  0.000  0.000  0.005   4.60   0.00   0.06      0    111      0.0   0.00   0.00   0.97   0.39   1.08   1.35   0.76   0.46   0.09   0.00   0.00   0.00   0.00      0      0      0       0     229
 1975 294   197   194   22.0      5   0.00   1275    554      0    632   1940    269    0.0  0.000    111      5  0.000  0.000  0.000  0.005   4.60   0.00   0.06      0    111      0.0   0.00   0.00   0.97   0.39   1.08   1.35   0.76   0.46   0.09   0.00   0.00   0.00   0.00      0      0      0       0     229

*DSSAT Cropping System Model Ver. 4.0.2.000               Aug 01, 2016; 15:44:49

*RUN   2        : UYMZ                    
 MODEL          : MZCER040 - Maize           
 EXPERIMENT     : UYMZ0105 MZ    late to create DSS                             
 TREATMENT  1   : UYMZ                    

@YEAR DOY   DAS   DAP   L#SD   GSTD   LAID   LWAD   SWAD   GWAD   RWAD   CWAD   G#AD   GWGD   HIAD   PWAD   P#AD   WSPD   WSGD   NSTD   EWSD   LN%D   SH%D   HIPD   PWDD   PWTD     SLAD   CHTD   CWID   RDPD   RL1D   RL2D   RL3D   RL4D   RL5D   RL6D   RL7D   RL8D   RL9D   RL10   CDAD   LDAD   SDAD   SNW0C   SNW1C
 1976 100     3     0    0.0      0   0.00      0      0      0      0      0      0    0.0  0.000      0      0  0.000  0.000  0.000  0.000   0.00   0.00   0.00      0      0      0.0   0.00   0.00   0.03   0.00   0.00   0.00   0.00   0.00   0.00   0.00   0.00   0.00   0.00      0      0      0       0       0
 1976 101     4     1    0.0      0   0.00      0      0      0      0      0      0    0.0  0.000      0      0  0.000  0.000  0.000  0.000   0.00   0.00   0.00      0      0      0.0   0.00   0.00   0.04   0.00   0.00   0.00   0.00   0.00   0.00   0.00   0.00   0.00   0.00      0      0      0       0       0
 1976 102     5     2    0.0      0   0.00      0      0      0      0      0      0    0.0  0.000      0      0  0.000  0.000  0.000  0.000   0.00   0.00   0.00      0      0      0.0   0.00   0.00   0.05   0.00   0.00   0.00   0.00   0.00   0.00   0.00   0.00   0.00   0.00      0      0      0       0       0
 1976 103     6     3    0.0      0   0.00      0      0      0      0      0      0    0.0  0.000      0      0  0.000  0.000  0.000  0.000   0.00   0.00   0.00      0      0      0.0   0.00   0.00   0.07   0.00   0.00   0.00   0.00   0.00   0.00   0.00   0.00   0.00   0.00      0      0      0       0       0
 1976 104     7     4    0.0      0   0.00      0      0      0      0      0      0    0.0  0.000      0      0  0.000  0.000  0.000  0.000   0.00   0.00   0.00      0      0      0.0   0.00   0.00   0.08   0.00   0.00   0.00   0.00   0.00   0.00   0.00   0.00   0.00   0.00      0      0      0       0       0
 1976 105     8     5    0.0      0   0.00      0      0      0      0      0      0    0.0  0.000      0      0  0.000  0.000  0.000  0.000   0.00   0.00   0.00      0      0      0.0   0.00   0.00   0.10   0.00   0.00   0.00   0.00   0.00   0.00   0.00   0.00   0.00   0.00      0      0      0       0       0
 1976 106     9     6    0.0      0   0.00      0      0      0      0      0      0    0.0  0.000      0      0  0.000  0.000  0.000  0.000   0.00   0.00   0.00      0      0      0.0   0.00   0.00   0.12   0.00   0.00   0.00   0.00   0.00   0.00   0.00   0.00   0.00   0.00      0      0      0       0       0
 1976 107    10     7    1.0      1   0.00     14     14      0     14     28      0    0.0  0.000      0      0  0.000  0.000  0.012  0.000   4.40   0.00   0.00      0      0     23.9   0.00   0.00   0.13   0.28   0.09   0.00   0.00   0.00   0.00   0.00   0.00   0.00   0.00      0      0      0       0       0
 1976 108    11     8    2.0      1   0.01     14     14      0     14     28      0    0.0  0.000      0      0  0.000  0.000  0.015  0.000   4.52   0.00   0.00      0      0     46.9   0.00   0.00   0.14   0.28   0.09   0.00   0.00   0.00   0.00   0.00   0.00   0.00   0.00      0      0      0       0       0
 1976 109    12     9    2.0      1   0.01     14     14      0     14     28      0    0.0  0.000      0      0  0.000  0.000  0.000  0.000   4.52   0.00   0.00      0      0     69.6   0.00   0.00   0.15   0.28   0.10   0.00   0.00   0.00   0.00   0.00   0.00   0.00   0.00      0      0      0       0       0
 1976 110    13    10    3.0      1   0.01     14     14      0     15     28      0    0.0  0.000      0      0  0.000  0.000  0.000  0.000   4.52   0.00   0.00      0      0     87.7   0.00   0.00   0.16   0.27   0.10   0.00   0.00   0.00   0.00   0.00   0.00   0.00   0.00      0      0      0       0       0
 1976 111    14    11    3.0      1   0.01     14     14      0     16     28      0    0.0  0.000      0      0  0.000  0.000  0.000  0.000   4.45   0.00   0.00      0      0    101.7   0.00   0.00   0.17   0.27   0.10   0.00   0.00   0.00   0.00   0.00   0.00   0.00   0.00      0      0      0       0       0
 1976 112    15    12    3.0      1   0.02     14     14      0     17     28      0    0.0  0.000      0      0  0.000  0.000  0.000  0.092   4.44   0.00   0.00      0      0    114.0   0.00   0.00   0.18   0.27   0.11   0.00   0.00   0.00   0.00   0.00   0.00   0.00   0.00      0      0      0       0       0
 1976 113    16    13    3.0      1   0.02     14     14      0     19     28      0    0.0  0.000      0      0  0.000  0.000  0.000  0.005   4.42   0.00   0.00      0      0    128.6   0.00   0.00   0.18   0.28   0.13   0.01   0.00   0.00   0.00   0.00   0.00   0.00   0.00      0      0      0       0       0
 1976 114    17    14    3.0      1   0.02     14     14      0     21     28      0    0.0  0.000      0      0  0.000  0.000  0.000  0.005   4.40   0.00   0.00      0      0    144.2   0.00   0.00   0.19   0.30   0.14   0.01   0.00   0.00   0.00   0.00   0.00   0.00   0.00      0      0      0       0       0
 1976 115    18    15    4.0      1   0.03     14     14      0     23     28      0    0.0  0.000      0      0  0.000  0.000  0.000  0.002   4.39   0.00   0.00      0      0    200.3   0.00   0.00   0.20   0.32   0.16   0.02   0.00   0.00   0.00   0.00   0.00   0.00   0.00      0      0      0       0       0
 1976 116    19    16    4.0      1   0.04     14     14      0     26     28      0    0.0  0.000      0      0  0.000  0.000  0.000  0.000   4.36   0.00   0.00      0      0    274.8   0.00   0.00   0.20   0.35   0.19   0.03   0.00   0.00   0.00   0.00   0.00   0.00   0.00      0      0      0       0       1
 1976 117    20    17    4.0      1   0.05     15     14      0     30     29      0    0.0  0.000      0      0  0.000  0.000  0.000  0.000   4.21   0.00   0.00      0      0    339.1   0.00   0.00   0.21   0.39   0.23   0.05   0.00   0.00   0.00   0.00   0.00   0.00   0.00      0      0      0       0       1
 1976 118    21    18    4.0      1   0.06     20     14      0     35     34      0    0.0  0.000      0      0  0.000  0.000  0.000  0.000   3.66   0.00   0.00      0      0    319.1   0.00   0.00   0.22   0.43   0.26   0.07   0.00   0.00   0.00   0.00   0.00   0.00   0.00      0      0      0       0       1
 1976 119    22    19    5.0      1   0.08     26     14      0     39     40      0    0.0  0.000      0      0  0.000  0.000  0.000  0.000   3.64   0.00   0.00      0      0    302.2   0.00   0.00   0.23   0.46   0.29   0.09   0.00   0.00   0.00   0.00   0.00   0.00   0.00      0      0      0       0       1
 1976 120    23    20    5.0      1   0.09     32     14      0     44     46      0    0.0  0.000      0      0  0.000  0.000  0.000  0.000   3.72   0.00   0.00      0      0    289.9   0.00   0.00   0.24   0.51   0.34   0.12   0.00   0.00   0.00   0.00   0.00   0.00   0.00      0      0      0       0       1
 1976 121    24    21    5.0      1   0.10     36     14      0     54     50      0    0.0  0.000      0      0  0.000  0.000  0.000  0.000   3.94   0.00   0.00      0      0    280.5   0.00   0.00   0.25   0.58   0.40   0.17   0.00   0.00   0.00   0.00   0.00   0.00   0.00      0      0      0       0       1
 1976 122    25    22    5.0      1   0.09     39     14      0     63     53      0    0.0  0.000      0      0  0.000  0.000  0.000  0.000   4.02   0.00   0.00      0      0    230.2   0.00   0.00   0.25   0.66   0.47   0.22   0.00   0.00   0.00   0.00   0.00   0.00   0.00      0      0      0       0       2
 1976 123    26    23    5.0      1   0.10     44     14      0     72     58      0    0.0  0.000      0      0  0.000  0.000  0.000  0.000   3.87   0.00   0.00      0      0    224.9   0.00   0.00   0.26   0.73   0.53   0.27   0.00   0.00   0.00   0.00   0.00   0.00   0.00      0      0      0       0       2
 1976 124    27    24    6.0      1   0.12     51     14      0     77     65      0    0.0  0.000      0      0  0.000  0.000  0.000  0.000   3.72   0.00   0.00      0      0    223.8   0.00   0.00   0.26   0.76   0.56   0.30   0.00   0.00   0.00   0.00   0.00   0.00   0.00      0      0      0       0       2
 1976 125    28    25    6.0      1   0.13     60     14      0     86     74      0    0.0  0.000      0      0  0.000  0.000  0.000  0.000   3.71   0.00   0.00      0      0    221.9   0.00   0.00   0.27   0.83   0.62   0.36   0.00   0.00   0.00   0.00   0.00   0.00   0.00      0      0      0       0       3
 1976 126    29    26    6.0      1   0.16     71     14      0     90     85      0    0.0  0.000      0      0  0.000  0.000  0.000  0.000   3.64   0.00   0.00      0      0    219.2   0.00   0.00   0.28   0.86   0.64   0.38   0.00   0.00   0.00   0.00   0.00   0.00   0.00      0      0      0       0       3
 1976 127    30    27    6.0      1   0.18     84     14      0     95     98      0    0.0  0.000      0      0  0.000  0.000  0.000  0.000   3.58   0.00   0.00      0      0    215.7   0.00   0.00   0.29   0.89   0.68   0.42   0.00   0.00   0.00   0.00   0.00   0.00   0.00      0      0      0       0       4
 1976 128    31    28    6.0      1   0.20     93     14      0     98    107      0    0.0  0.000      0      0  0.000  0.000  0.000  0.000   3.79   0.00   0.00      0      0    213.4   0.00   0.00   0.30   0.91   0.69   0.44   0.00   0.00   0.00   0.00   0.00   0.00   0.00      0      0      0       0       4
 1976 129    32    29    7.0      1   0.22    102     14      0    109    116      0    0.0  0.000      0      0  0.000  0.000  0.000  0.000   3.81   0.00   0.00      0      0    211.3   0.00   0.00   0.31   0.92   0.73   0.50   0.00   0.00   0.00   0.00   0.00   0.00   0.00      0      0      0       0       5
 1976 130    33    30    7.0      1   0.23    110     14      0    123    124      0    0.0  0.000      0      0  0.000  0.000  0.000  0.000   3.83   0.00   0.00      0      0    209.4   0.00   0.00   0.31   0.99   0.81   0.59   0.00   0.00   0.00   0.00   0.00   0.00   0.00      0      0      0       0       5
 1976 131    34    31    7.0      1   0.25    119     14      0    143    133      0    0.0  0.000      0      0  0.000  0.000  0.000  0.090   3.81   0.00   0.00      0      0    207.3   0.00   0.00   0.31   1.11   0.93   0.73   0.01   0.00   0.00   0.00   0.00   0.00   0.00      0      0      0       0       6
 1976 132    35    32    7.0      1   0.27    129     14      0    163    143      0    0.0  0.000      0      0  0.000  0.000  0.000  0.035   3.79   0.00   0.00      0      0    205.2   0.00   0.00   0.32   1.22   1.06   0.87   0.01   0.00   0.00   0.00   0.00   0.00   0.00      0      0      0       0       6
 1976 133    36    33    7.0      1   0.28    139     14      0    187    153      0    0.0  0.000      0      0  0.000  0.000  0.000  0.000   3.82   0.00   0.00      0      0    199.3   0.00   0.00   0.32   1.35   1.20   1.03   0.02   0.00   0.00   0.00   0.00   0.00   0.00      0      0      0       0       7
 1976 134    37    34    7.0      1   0.30    153     14      0    204    167      0    0.0  0.000      0      0  0.000  0.000  0.000  0.000   3.70   0.00   0.00      0      0    197.0   0.00   0.00   0.32   1.44   1.30   1.15   0.03   0.00   0.00   0.00   0.00   0.00   0.00      0      0      0       0       8
 1976 135    38    35    8.0      1   0.33    171     14      0    223    185      0    0.0  0.000      0      0  0.000  0.000  0.000  0.000   3.64   0.00   0.00      0      0    194.2   0.00   0.00   0.34   1.55   1.41   1.28   0.04   0.00   0.00   0.00   0.00   0.00   0.00      0      0      0       0       9
 1976 136    39    36    8.0      1   0.38    198     14      0    242    212      0    0.0  0.000      0      0  0.000  0.000  0.000  0.000   3.49   0.00   0.00      0      0    190.3   0.00   0.00   0.35   1.65   1.52   1.40   0.06   0.00   0.00   0.00   0.00   0.00   0.00      0      0      0       0      10
 1976 137    40    37    8.0      1   0.42    224     14      0    254    238      0    0.0  0.000      0      0  0.000  0.000  0.000  0.000   3.54   0.00   0.00      0      0    187.0   0.00   0.00   0.37   1.71   1.58   1.47   0.07   0.00   0.00   0.00   0.00   0.00   0.00      0      0      0       0      12
 1976 138    41    38    8.0      1   0.45    245     14      0    256    259      0    0.0  0.000      0      0  0.000  0.000  0.000  0.000   3.64   0.00   0.00      0      0    184.5   0.00   0.00   0.38   1.72   1.59   1.49   0.08   0.00   0.00   0.00   0.00   0.00   0.00      0      0      0       0      13
 1976 139    42    39    8.0      1   0.47    256     14      0    279    270      0    0.0  0.000      0      0  0.000  0.000  0.000  0.000   3.79   0.00   0.00      0      0    183.3   0.00   0.00   0.38   1.83   1.72   1.63   0.11   0.00   0.00   0.00   0.00   0.00   0.00      0      0      0       0      14
 1976 140    43    40    9.0      1   0.48    265     14      0    289    279      0    0.0  0.000      0      0  0.000  0.000  0.000  0.000   3.82   0.00   0.00      0      0    182.3   0.00   0.00   0.38   1.87   1.78   1.69   0.12   0.00   0.00   0.00   0.00   0.00   0.00      0      0      0       0      16
 1976 141    44    41    9.0      1   0.45    273     14      0    308    287      0    0.0  0.000      0      0  0.000  0.000  0.000  0.000   3.83   0.00   0.00      0      0    164.1   0.00   0.00   0.39   1.95   1.88   1.82   0.15   0.00   0.00   0.00   0.00   0.00   0.00      0      0      0       0      17
 1976 142    45    42    9.0      1   0.46    284     14      0    330    298      0    0.0  0.000      0      0  0.000  0.000  0.000  0.000   3.78   0.00   0.00      0      0    163.6   0.00   0.00   0.39   2.05   2.01   1.96   0.19   0.00   0.00   0.00   0.00   0.00   0.00      0      0      0       0      19
 1976 143    46    43    9.0      1   0.47    290     14      0    332    304      0    0.0  0.000      0      0  0.000  0.000  0.000  0.000   3.84   0.00   0.00      0      0    163.4   0.00   0.00   0.40   2.06   2.02   1.96   0.19   0.00   0.00   0.00   0.00   0.00   0.00      0      0      0       0      20
 1976 144    47    44    9.0      1   0.51    313     14      0    362    327      0    0.0  0.000      0      0  0.000  0.000  0.000  0.000   3.64   0.00   0.00      0      0    162.5   0.00   0.00   0.41   2.16   2.19   2.16   0.25   0.00   0.00   0.00   0.00   0.00   0.00      0      0      0       0      22
 1976 145    48    45    9.0      2   0.54    310     14      0    401    324      0    0.0  0.000      0      0  0.000  0.000  0.000  0.000   3.94   0.00   0.00      0      0    175.4   0.00   0.00   0.41   2.30   2.40   2.40   0.32   0.00   0.00   0.00   0.00   0.00   0.00      0      0      0       0      24
 1976 146    49    46    9.0      2   0.57    328     14      0    419    342      0    0.0  0.000      0      0  0.000  0.000  0.000  0.058   3.72   0.00   0.00      0      0    174.5   0.00   0.00   0.42   2.36   2.50   2.51   0.36   0.00   0.00   0.00   0.00   0.00   0.00      0      0      0       0      24
 1976 147    50    47    9.0      2   0.59    337     14      0    423    351      0    0.0  0.000      0      0  0.000  0.000  0.000  0.023   3.73   0.00   0.00      0      0    173.8   0.00   0.00   0.42   2.37   2.52   2.54   0.37   0.00   0.00   0.00   0.00   0.00   0.00      0      0      0       0      26
 1976 148    51    48    9.0      2   0.62    361     14      0    436    375      0    0.0  0.000      0      0  0.000  0.000  0.000  0.000   3.78   0.00   0.00      0      0    172.6   0.00   0.00   0.43   2.42   2.59   2.61   0.40   0.00   0.00   0.00   0.00   0.00   0.00      0      0      0       0      28
 1976 149    52    49   10.0      3   0.66    388     14      0    436    402      0    0.0  0.000      0      0  0.000  0.000  0.022  0.000   3.68   0.00   0.00      0      0    169.5   0.00   0.00   0.44   2.41   2.59   2.61   0.40   0.00   0.00   0.00   0.00   0.00   0.00      0      0      0       0      30
 1976 150    53    50   10.0      3   0.69    411     14      0    435    425      0    0.0  0.000      0      0  0.000  0.000  0.022  0.000   3.63   0.00   0.00      0      0    168.0   0.00   0.00   0.45   2.27   2.43   2.46   0.38   0.00   0.00   0.00   0.00   0.00   0.00      0      0      0       0      32
 1976 151    54    51   10.0      3   0.72    435     14      0    456    449      0    0.0  0.000      0      0  0.000  0.000  0.022  0.000   3.59   0.00   0.00      0      0    166.5   0.00   0.00   0.45   2.15   2.38   2.46   0.42   0.00   0.00   0.00   0.00   0.00   0.00      0      0      0       0      34
 1976 152    55    52   10.0      3   0.75    452     14      0    496    466      0    0.0  0.000      0      0  0.000  0.000  0.022  0.314   3.55   0.00   0.00      0      0    165.3   0.00   0.00   0.46   2.10   2.47   2.63   0.52   0.01   0.00   0.00   0.00   0.00   0.00      0      0      0       0      37
 1976 153    56    53   10.0      3   0.79    480     15      0    520    495      0    0.0  0.000      0      0  0.000  0.000  0.022  0.131   3.53   0.00   0.00      0      0    163.8   0.00   0.00   0.47   2.06   2.51   2.73   0.57   0.01   0.00   0.00   0.00   0.00   0.00      0      0      0       0      39
 1976 154    57    54   10.0      3   0.80    494     15      0    551    509      0    0.0  0.000      0      0  0.000  0.000  0.022  0.052   3.57   0.00   0.00      0      0    162.8   0.00   0.00   0.47   2.04   2.59   2.88   0.65   0.03   0.00   0.00   0.00   0.00   0.00      0      0      0       0      42
 1976 155    58    55   10.0      3   0.65    498     15      0    570    513      0    0.0  0.000      0      0  0.000  0.000  0.022  0.001   3.56   0.00   0.00      0      0    129.7   0.00   0.00   0.47   2.03   2.64   2.96   0.70   0.04   0.00   0.00   0.00   0.00   0.00      0      0      0       0      44
[...]
 1995 156    59    56   10.0      3   0.32    402     14      0    355    416      0    0.0  0.000      0      0  0.000  0.000  0.022  0.000   3.67   0.00   0.00      0      0     79.4   0.00   0.00   0.45   1.79   2.13   2.07   0.31   0.00   0.00   0.00   0.00   0.00   0.00      0      0      0       0      37
 1995 157    60    57   10.0      3   0.30    409     14      0    365    423      0    0.0  0.000      0      0  0.000  0.000  0.022  0.000   3.64   0.00   0.00      0      0     72.9   0.00   0.00   0.45   1.83   2.18   2.13   0.34   0.00   0.00   0.00   0.00   0.00   0.00      0      0      0       0      38
 1995 158    61    58   10.0      3   0.18    416     14      0    374    430      0    0.0  0.000      0      0  0.000  0.000  0.022  0.000   3.63   0.00   0.00      0      0     43.8   0.00   0.00   0.45   1.87   2.22   2.18   0.36   0.00   0.00   0.00   0.00   0.00   0.00      0      0      0       0      40
 1995 159    62    59   10.0      3   0.12    425     14      0    377    439      0    0.0  0.000      0      0  0.000  0.000  0.022  0.000   3.61   0.00   0.00      0      0     27.2   0.00   0.00   0.46   1.88   2.24   2.20   0.37   0.00   0.00   0.00   0.00   0.00   0.00      0      0      0       0      42
 1995 160    63    60   10.0      3   0.12    431     14      0    376    446      0    0.0  0.000      0      0  0.000  0.000  0.022  0.000   3.56   0.00   0.00      0      0     28.6   0.00   0.00   0.46   1.88   2.23   2.19   0.37   0.00   0.00   0.00   0.00   0.00   0.00      0      0      0       0      42
 1995 161    64    61   10.0      3   0.11    439     14      0    374    453      0    0.0  0.000      0      0  0.000  0.000  0.022  0.000   3.58   0.00   0.00      0      0     25.8   0.00   0.00   0.46   1.87   2.22   2.18   0.37   0.00   0.00   0.00   0.00   0.00   0.00      0      0      0       0      44
 1995 162    65    62   10.0      3   0.12    446     14      0    373    460      0    0.0  0.000      0      0  0.000  0.000  0.022  0.000   3.54   0.00   0.00      0      0     27.4   0.00   0.00   0.47   1.75   2.08   2.04   0.34   0.00   0.00   0.00   0.00   0.00   0.00      0      0      0       0      44
 1995 163    66    63   10.0      3   0.11    448     14      0    372    462      0    0.0  0.000      0      0  0.000  0.000  0.022  0.000   3.57   0.00   0.00      0      0     25.6   0.00   0.00   0.47   1.63   1.95   1.92   0.32   0.00   0.00   0.00   0.00   0.00   0.00      0      0      0       0      46
 1995 164    67    64   10.0      3   0.07    448     14      0    372    462      0    0.0  0.000      0      0  0.000  0.000  0.022  0.367   4.06   0.00   0.00      0      0     16.0   0.00   0.00   0.47   1.57   1.87   1.85   0.32   0.00   0.00   0.00   0.00   0.00   0.00      0      0      0       0      48
 1995 165    68    65   10.0      3   0.04    448     14      0    371    462      0    0.0  0.000      0      0  0.000  0.000  0.022  0.176   4.07   0.00   0.00      0      0      9.7   0.00   0.00   0.47   1.52   1.83   1.80   0.31   0.00   0.00   0.00   0.00   0.00   0.00      0      0      0       0      48
 1995 166    69    66   10.0      3   0.04    448     14      0    370    463      0    0.0  0.000      0      0  0.000  0.000  0.022  0.510   4.06   0.00   0.00      0      0      9.8   0.00   0.00   0.47   1.44   1.72   1.70   0.29   0.00   0.00   0.00   0.00   0.00   0.00      0      0      0       0      48
 1995 167    70    67   10.0      3   0.05    451     14      0    368    465      0    0.0  0.000      0      0  0.000  0.000  0.022  0.561   4.04   0.00   0.00      0      0     10.1   0.00   0.00   0.48   1.34   1.61   1.59   0.27   0.00   0.00   0.00   0.00   0.00   0.00      0      0      0       0      48
 1995 168    71    68   10.0      3   0.05    454     14      0    366    468      0    0.0  0.000      0      0  0.000  0.000  0.022  0.357   4.01   0.00   0.00      0      0     10.7   0.00   0.00   0.48   1.28   1.54   1.52   0.26   0.00   0.00   0.00   0.00   0.00   0.00      0      0      0       0      48
 1995 169    72    69   10.0      3   0.04    456     14      0    365    471      0    0.0  0.000      0      0  0.000  0.000  0.022  0.167   3.99   0.00   0.00      0      0      9.8   0.00   0.00   0.48   1.25   1.50   1.48   0.25   0.00   0.00   0.00   0.00   0.00   0.00      0      0      0       0      48
 1995 170    73    70   10.0      3   0.03    457     14      0    363    472      0    0.0  0.000      0      0  0.000  0.000  0.022  0.089   3.98   0.00   0.00      0      0      6.5   0.00   0.00   0.48   1.22   1.47   1.45   0.25   0.00   0.00   0.00   0.00   0.00   0.00      0      0      0       0      48
 1995 171    74    71   11.0      3   0.03    460     14      0    361    474      0    0.0  0.000      0      0  0.000  0.000  0.022  0.050   3.96   0.00   0.00      0      0      6.5   0.00   0.00   0.48   1.21   1.45   1.43   0.25   0.00   0.00   0.00   0.00   0.00   0.00      0      0      0       0      48
 1995 172    75    72   11.0      3   0.03    463     14      0    360    478      0    0.0  0.000      0      0  0.000  0.000  0.022  0.013   3.93   0.00   0.00      0      0      6.8   0.00   0.00   0.49   1.19   1.43   1.41   0.24   0.00   0.00   0.00   0.00   0.00   0.00      0      0      0       0      48
 1995 173    76    73   11.0      3   0.04    467     14      0    358    482      0    0.0  0.000      0      0  0.000  0.000  0.022  0.000   3.90   0.00   0.00      0      0      8.0   0.00   0.00   0.49   1.18   1.41   1.40   0.24   0.00   0.00   0.00   0.00   0.00   0.00      0      0      0       0      48
 1995 174    77    74   11.0      3   0.04    469     15      0    357    484      0    0.0  0.000      0      0  0.000  0.000  0.022  0.000   3.88   0.00   0.00      0      0      8.5   0.00   0.00   0.50   1.16   1.40   1.38   0.24   0.00   0.00   0.00   0.00   0.00   0.00      0      0      0       0      48
 1995 175    78    75   11.0      3   0.05    476     15      0    355    491      0    0.0  0.000      0      0  0.000  0.000  0.022  0.000   3.83   0.00   0.00      0      0     10.4   0.00   0.00   0.51   1.13   1.35   1.34   0.23   0.00   0.00   0.00   0.00   0.00   0.00      0      0      0       0      48
 1995 176    79    76   11.0      3   0.04    479     15      0    354    494      0    0.0  0.000      0      0  0.000  0.000  0.022  0.000   3.80   0.00   0.00      0      0      8.6   0.00   0.00   0.51   1.10   1.33   1.31   0.22   0.00   0.00   0.00   0.00   0.00   0.00      0      0      0       0      48
 1995 177    80    77   11.0      3   0.04    482     15      0    352    497      0    0.0  0.000      0      0  0.000  0.000  0.022  0.144   3.78   0.00   0.00      0      0      9.3   0.00   0.00   0.51   1.08   1.30   1.29   0.22   0.00   0.00   0.00   0.00   0.00   0.00      0      0      0       0      48
 1995 178    81    78   11.0      3   0.04    485     15      0    350    500      0    0.0  0.000      0      0  0.000  0.000  0.022  0.080   3.76   0.00   0.00      0      0      7.4   0.00   0.00   0.52   1.07   1.29   1.28   0.22   0.00   0.00   0.00   0.00   0.00   0.00      0      0      0       0      48
 1995 179    82    79   11.0      3   0.01    485     15      0    349    500      0    0.0  0.000      0      0  0.000  0.000  0.022  0.041   3.76   0.00   0.00      0      0      1.8   0.00   0.00   0.52   1.06   1.27   1.26   0.21   0.00   0.00   0.00   0.00   0.00   0.00      0      0      0       0      48
 1995 180    83    80   11.0      3   0.00    485     15      0    347    500      0    0.0  0.000      0      0  0.000  0.000  0.022  0.006   3.76   0.00   0.00      0      0      0.6   0.00   0.00   0.52   1.04   1.26   1.25   0.21   0.00   0.00   0.00   0.00   0.00   0.00      0      0      0       0      48
 1995 181    84    81   11.0      3   0.00    485     15      0    345    500      0    0.0  0.000      0      0  0.000  0.000  0.022  0.000   3.76   0.00   0.00      0      0      0.6   0.00   0.00   0.53   1.03   1.24   1.23   0.21   0.00   0.00   0.00   0.00   0.00   0.00      0      0      0       0      48
 1995 182    85    82   12.0      3   0.00    485     15      0    344    500      0    0.0  0.000      0      0  0.000  0.000  0.022  0.000   3.76   0.00   0.00      0      0      0.6   0.00   0.00   0.54   0.96   1.16   1.15   0.19   0.00   0.00   0.00   0.00   0.00   0.00      0      0      0       0      48
 1995 183    86    83   12.0      3   0.00    485     15      0    342    500      0    0.0  0.000      0      0  0.000  0.000  0.022  0.208   3.76   0.00   0.00      0      0      0.7   0.00   0.00   0.54   0.90   1.08   1.07   0.18   0.00   0.00   0.00   0.00   0.00   0.00      0      0      0       0      48
 1995 184    87    84   12.0      3   0.00    485     15      0    340    500      0    0.0  0.000      0      0  0.000  0.000  0.022  0.323   3.75   0.00   0.00      0      0      0.6   0.00   0.00   0.54   0.86   1.04   1.03   0.17   0.00   0.00   0.00   0.00   0.00   0.00      0      0      0       0      48
 1995 185    88    85   12.0      3   0.00    485     15      0    338    500      0    0.0  0.000      0      0  0.000  0.000  0.022  0.150   3.75   0.00   0.00      0      0      0.6   0.00   0.00   0.55   0.83   1.01   1.00   0.17   0.00   0.00   0.00   0.00   0.00   0.00      0      0      0       0      48
 1995 186    89    86   12.0      3   0.00    485     15      0    337    501      0    0.0  0.000      0      0  0.000  0.000  0.022  0.329   3.75   0.00   0.00      0      0      0.6   0.00   0.00   0.56   0.78   0.94   0.93   0.16   0.00   0.00   0.00   0.00   0.00   0.00      0      0      0       0      48
 1995 187    90    87   12.0      3   0.00    485     15      0    335    501      0    0.0  0.000      0      0  0.000  0.000  0.022  0.222   3.75   0.00   0.00      0      0      0.6   0.00   0.00   0.56   0.75   0.90   0.89   0.15   0.00   0.00   0.00   0.00   0.00   0.00      0      0      0       0      48
 1995 188    91    88   12.0      3   0.00    486     15      0    333    501      0    0.0  0.000      0      0  0.000  0.000  0.022  0.144   3.75   0.00   0.00      0      0      0.5   0.00   0.00   0.56   0.73   0.87   0.87   0.14   0.00   0.00   0.00   0.00   0.00   0.00      0      0      0       0      48
 1995 189    92    89   12.0      3   0.00    486     15      0    332    501      0    0.0  0.000      0      0  0.000  0.000  0.022  0.074   3.75   0.00   0.00      0      0      0.5   0.00   0.00   0.57   0.71   0.86   0.85   0.14   0.00   0.00   0.00   0.00   0.00   0.00      0      0      0       0      48
 1995 190    93    90   12.0      3   0.00    486     15      0    330    502      0    0.0  0.000      0      0  0.000  0.000  0.022  0.026   3.75   0.00   0.00      0      0      0.6   0.00   0.00   0.58   0.70   0.84   0.84   0.14   0.00   0.00   0.00   0.00   0.00   0.00      0      0      0       0      48
 1995 191    94    91   13.0      3   0.00    486     16      0    329    502      0    0.0  0.000      0      0  0.000  0.000  0.022  0.000   3.74   0.00   0.00      0      0      0.6   0.00   0.00   0.58   0.69   0.83   0.83   0.14   0.00   0.00   0.00   0.00   0.00   0.00      0      0      0       0      48
 1995 192    95    92   13.0      3   0.00    486     16      0    327    502      0    0.0  0.000      0      0  0.000  0.000  0.022  0.000   3.74   0.00   0.00      0      0      0.6   0.00   0.00   0.59   0.68   0.82   0.82   0.14   0.00   0.00   0.00   0.00   0.00   0.00      0      0      0       0      48
 1995 193    96    93   13.0      3   0.00    486     16      0    325    502      0    0.0  0.000      0      0  0.000  0.000  0.022  0.000   3.74   0.00   0.00      0      0      0.6   0.00   0.00   0.60   0.64   0.77   0.76   0.13   0.00   0.00   0.00   0.00   0.00   0.00      0      0      0       0      48
 1995 194    97    94   13.0      3   0.00    486     16      0    324    502      0    0.0  0.000      0      0  0.000  0.000  0.022  0.000   3.74   0.00   0.00      0      0      0.6   0.00   0.00   0.61   0.60   0.72   0.71   0.12   0.00   0.00   0.00   0.00   0.00   0.00      0      0      0       0      48
 1995 195    98    95   13.0      3   0.00    486     16      0    322    502      0    0.0  0.000      0      0  0.000  0.000  0.022  0.466   3.74   0.00   0.00      0      0      0.6   0.00   0.00   0.61   0.56   0.68   0.67   0.11   0.00   0.00   0.00   0.00   0.00   0.00      0      0      0       0      48
 1995 196    99    96   13.0      3   0.00    486     16      0    320    502      0    0.0  0.000      0      0  0.000  0.000  0.022  0.515   3.74   0.00   0.00      0      0      0.6   0.00   0.00   0.61   0.53   0.64   0.64   0.10   0.00   0.00   0.00   0.00   0.00   0.00      0      0      0       0      48
 1995 197   100    97   13.0      3   0.00    486     16      0    319    502      0    0.0  0.000      0      0  0.000  0.000  0.022  0.428   3.74   0.00   0.00      0      0      0.4   0.00   0.00   0.61   0.51   0.61   0.61   0.10   0.00   0.00   0.00   0.00   0.00   0.00      0      0      0       0      48
 1995 198   101    98   13.0      3   0.00    486     16      0    317    502      0    0.0  0.000      0      0  0.000  0.000  0.022  0.299   3.74   0.00   0.00      0      0      0.3   0.00   0.00   0.61   0.51   0.61   0.61   0.10   0.00   0.00   0.00   0.00   0.00   0.00      0      0      0       0      48
 1995 199   102    99   13.0      3   0.00    486     16      0    316    502      0    0.0  0.000      0      0  0.000  0.000  0.022  0.577   3.75   0.00   0.00      0      0      0.3   0.00   0.00   0.61   0.51   0.61   0.61   0.10   0.00   0.00   0.00   0.00   0.00   0.00      0      0      0       0      48
 1995 200   103   100   13.0      3   0.00    486     16      0    314    502      0    0.0  0.000      0      0  0.000  0.000  0.022  0.355   3.75   0.00   0.00      0      0      0.2   0.00   0.00   0.61   0.50   0.60   0.60   0.10   0.00   0.00   0.00   0.00   0.00   0.00      0      0      0       0      48
 1995 201   104   101   13.0      3   0.00    486     16      0    313    502      0    0.0  0.000      0      0  0.000  0.000  0.022  0.164   3.75   0.00   0.00      0      0      0.1   0.00   0.00   0.62   0.49   0.59   0.59   0.09   0.00   0.00   0.00   0.00   0.00   0.00      0      0      0       0      48
 1995 202   105   102   13.0      3   0.00    486     16      0    311    501      0    0.0  0.000      0      0  0.000  0.000  0.022  0.085   3.75   0.00   0.00      0      0      0.0   0.00   0.00   0.62   0.49   0.59   0.59   0.09   0.00   0.00   0.00   0.00   0.00   0.00      0      0      0       0      48
 1995 203   106   103   14.0      3   0.00    486     16      0    309    501      0    0.0  0.000      0      0  0.000  0.000  0.022  0.045   3.75   0.00   0.00      0      0      0.0   0.00   0.00   0.62   0.49   0.59   0.59   0.09   0.00   0.00   0.00   0.00   0.00   0.00      0      0      0       0      48
 1995 204   107   104   14.0      3   0.00    485     16      0    308    501      0    0.0  0.000      0      0  0.000  0.000  0.022  0.005   3.75   0.00   0.00      0      0      0.0   0.00   0.00   0.62   0.49   0.59   0.59   0.09   0.00   0.00   0.00   0.00   0.00   0.00      0      0      0       0      48
 1995 205   108   105   14.0      3   0.00    485     16      0    306    501      0    0.0  0.000      0      0  0.000  0.000  0.022  0.000   3.75   0.00   0.00      0      0      0.0   0.00   0.00   0.62   0.49   0.59   0.59   0.09   0.00   0.00   0.00   0.00   0.00   0.00      0      0      0       0      48
 1995 206   109   106   14.0      3   0.00    485     16      0    305    501      0    0.0  0.000      0      0  0.000  0.000  0.022  0.000   3.75   0.00   0.00      0      0      0.0   0.00   0.00   0.62   0.49   0.59   0.59   0.09   0.00   0.00   0.00   0.00   0.00   0.00      0      0      0       0      48
 1995 207   110   107   14.0      3   0.00    485     16      0    303    501      0    0.0  0.000      0      0  0.000  0.000  0.022  0.000   3.75   0.00   0.00      0      0      0.0   0.00   0.00   0.62   0.49   0.59   0.59   0.09   0.00   0.00   0.00   0.00   0.00   0.00      0      0      0       0      48
 1995 208   111   108   15.0      3   0.00    485     16      0    302    501      0    0.0  0.000      0      0  0.000  0.000  0.022  0.605   3.75   0.00   0.00      0      0      0.0   0.00   0.00   0.62   0.49   0.59   0.59   0.09   0.00   0.00   0.00   0.00   0.00   0.00      0      0      0       0      48
 1995 209   112   109   15.0      3   0.00    485     16      0    300    500      0    0.0  0.000      0      0  0.000  0.000  0.022  0.381   3.75   0.00   0.00      0      0      0.0   0.00   0.00   0.62   0.49   0.59   0.59   0.09   0.00   0.00   0.00   0.00   0.00   0.00      0      0      0       0      48
 1995 210   113   110   15.0      3   0.00    485     16      0    299    500      0    0.0  0.000      0      0  0.000  0.000  0.022  0.161   3.76   0.00   0.00      0      0      0.0   0.00   0.00   0.62   0.49   0.59   0.59   0.09   0.00   0.00   0.00   0.00   0.00   0.00      0      0      0       0      48
 1995 211   114   111   15.0      3   0.00    484     16      0    297    500      0    0.0  0.000      0      0  0.000  0.000  0.022  0.083   3.76   0.00   0.00      0      0      0.0   0.00   0.00   0.62   0.49   0.59   0.59   0.09   0.00   0.00   0.00   0.00   0.00   0.00      0      0      0       0      48
 1995 212   115   112   15.0      3   0.00    484     16      0    296    500      0    0.0  0.000      0      0  0.000  0.000  0.022  0.040   3.76   0.00   0.00      0      0      0.0   0.00   0.00   0.62   0.49   0.59   0.59   0.09   0.00   0.00   0.00   0.00   0.00   0.00      0      0      0       0      48
 1995 213   116   113   15.0      3   0.00    484     16      0    294    500      0    0.0  0.000      0      0  0.000  0.000  0.022  0.004   3.76   0.00   0.00      0      0      0.0   0.00   0.00   0.62   0.49   0.59   0.59   0.09   0.00   0.00   0.00   0.00   0.00   0.00      0      0      0       0      48
 1995 214   117   114   15.0      3   0.00    484     16      0    293    500      0    0.0  0.000      0      0  0.000  0.000  0.022  0.000   3.76   0.00   0.00      0      0      0.0   0.00   0.00   0.62   0.49   0.59   0.59   0.09   0.00   0.00   0.00   0.00   0.00   0.00      0      0      0       0      48
 1995 215   118   115   15.0      3   0.00    484     16      0    291    500      0    0.0  0.000      0      0  0.000  0.000  0.022  0.000   3.76   0.00   0.00      0      0      0.0   0.00   0.00   0.62   0.49   0.59   0.59   0.09   0.00   0.00   0.00   0.00   0.00   0.00      0      0      0       0      48
 1995 216   119   116   15.0      3   0.00    484     16      0    290    499      0    0.0  0.000      0      0  0.000  0.000  0.022  0.000   3.76   0.00   0.00      0      0      0.0   0.00   0.00   0.62   0.49   0.59   0.59   0.09   0.00   0.00   0.00   0.00   0.00   0.00      0      0      0       0      48
 1995 217   120   117   15.0      3   0.00    484     16      0    288    499      0    0.0  0.000      0      0  0.000  0.000  0.022  0.000   3.76   0.00   0.00      0      0      0.0   0.00   0.00   0.62   0.49   0.59   0.59   0.09   0.00   0.00   0.00   0.00   0.00   0.00      0      0      0       0      48
 1995 218   121   118   15.0      6   0.00    483     16      0    287    499      0    0.0  0.000      0      0  0.000  0.000  0.022  0.000   3.76   0.00   0.00      0      0      0.0   0.00   0.00   0.62   0.49   0.59   0.59   0.09   0.00   0.00   0.00   0.00   0.00   0.00      0      0      0       0      48
