*WATER BALANCE OUTPUT FILE

*DSSAT Cropping System Model Ver. 4.0.2.000               Aug 01, 2016; 15:44:49

*RUN   1        : UYMZ                    
 MODEL          : MZCER040 - Maize           
 EXPERIMENT     : UYMZ0105 MZ    late to create DSS                             
 TREATMENT  1   : UYMZ                    


     WATER BALANCE PARAMETERS
     ========================                  --mm--

     Soil H20 (start) on Year/day 1975/097     490.84
     Soil H20 (final) on Year/day 1975/294     550.22
     Effective Irrigation                       42.26
     Precipitation                             569.70
     Drainage                                  243.15
     Runoff                                      2.99
     Soil Evaporation                          251.04
     Transpiration                              55.41
     Potential ET                              505.85

     Final Balance                             0.0002


*DSSAT Cropping System Model Ver. 4.0.2.000               Aug 01, 2016; 15:44:49

*RUN   2        : UYMZ                    
 MODEL          : MZCER040 - Maize           
 EXPERIMENT     : UYMZ0105 MZ    late to create DSS                             
 TREATMENT  1   : UYMZ                    


     WATER BALANCE PARAMETERS
     ========================                  --mm--

     Soil H20 (start) on Year/day 1976/097     490.84
     Soil H20 (final) on Year/day 1976/192     546.13
     Effective Irrigation                       40.28
     Precipitation                             381.50
     Drainage                                  166.77
     Runoff                                     52.34
     Soil Evaporation                          122.24
     Transpiration                              25.14
     Potential ET                              216.07

     Final Balance                             0.0000


*DSSAT Cropping System Model Ver. 4.0.2.000               Aug 01, 2016; 15:44:49

*RUN   3        : UYMZ                    
 MODEL          : MZCER040 - Maize           
 EXPERIMENT     : UYMZ0105 MZ    late to create DSS                             
 TREATMENT  1   : UYMZ                    


     WATER BALANCE PARAMETERS
     ========================                  --mm--

     Soil H20 (start) on Year/day 1977/097     490.84
     Soil H20 (final) on Year/day 1977/328     542.63
     Effective Irrigation                       29.87
     Precipitation                            1092.30
     Drainage                                  685.43
     Runoff                                      6.97
     Soil Evaporation                          322.47
     Transpiration                              55.51
     Potential ET                              640.43

     Final Balance                            -0.0004


*DSSAT Cropping System Model Ver. 4.0.2.000               Aug 01, 2016; 15:44:49

*RUN   4        : UYMZ                    
 MODEL          : MZCER040 - Maize           
 EXPERIMENT     : UYMZ0105 MZ    late to create DSS                             
 TREATMENT  1   : UYMZ                    


     WATER BALANCE PARAMETERS
     ========================                  --mm--

     Soil H20 (start) on Year/day 1978/097     490.84
     Soil H20 (final) on Year/day 1978/163     535.20
     Effective Irrigation                       45.50
     Precipitation                              99.70
     Drainage                                   18.82
     Runoff                                      0.61
     Soil Evaporation                           69.97
     Transpiration                              11.43
     Potential ET                              169.48

     Final Balance                             0.0001


*DSSAT Cropping System Model Ver. 4.0.2.000               Aug 01, 2016; 15:44:49

*RUN   5        : UYMZ                    
 MODEL          : MZCER040 - Maize           
 EXPERIMENT     : UYMZ0105 MZ    late to create DSS                             
 TREATMENT  1   : UYMZ                    


     WATER BALANCE PARAMETERS
     ========================                  --mm--

     Soil H20 (start) on Year/day 1979/097     490.84
     Soil H20 (final) on Year/day 1979/159     522.57
     Effective Irrigation                       73.67
     Precipitation                              51.20
     Drainage                                    0.00
     Runoff                                      0.00
     Soil Evaporation                           75.51
     Transpiration                              17.62
     Potential ET                              153.40

     Final Balance                             0.0000


*DSSAT Cropping System Model Ver. 4.0.2.000               Aug 01, 2016; 15:44:49

*RUN   6        : UYMZ                    
 MODEL          : MZCER040 - Maize           
 EXPERIMENT     : UYMZ0105 MZ    late to create DSS                             
 TREATMENT  1   : UYMZ                    


     WATER BALANCE PARAMETERS
     ========================                  --mm--

     Soil H20 (start) on Year/day 1980/097     490.84
     Soil H20 (final) on Year/day 1980/227     550.85
     Effective Irrigation                       43.22
     Precipitation                             673.10
     Drainage                                  437.36
     Runoff                                     20.55
     Soil Evaporation                          157.59
     Transpiration                              40.81
     Potential ET                              261.35

     Final Balance                            -0.0001


*DSSAT Cropping System Model Ver. 4.0.2.000               Aug 01, 2016; 15:44:49

*RUN   7        : UYMZ                    
 MODEL          : MZCER040 - Maize           
 EXPERIMENT     : UYMZ0105 MZ    late to create DSS                             
 TREATMENT  1   : UYMZ                    


     WATER BALANCE PARAMETERS
     ========================                  --mm--

     Soil H20 (start) on Year/day 1981/097     490.84
     Soil H20 (final) on Year/day 1981/331     546.10
     Effective Irrigation                       45.21
     Precipitation                             917.50
     Drainage                                  491.53
     Runoff                                     11.62
     Soil Evaporation                          274.61
     Transpiration                             129.69
     Potential ET                              643.55

     Final Balance                             0.0001


*DSSAT Cropping System Model Ver. 4.0.2.000               Aug 01, 2016; 15:44:49

*RUN   8        : UYMZ                    
 MODEL          : MZCER040 - Maize           
 EXPERIMENT     : UYMZ0105 MZ    late to create DSS                             
 TREATMENT  1   : UYMZ                    


     WATER BALANCE PARAMETERS
     ========================                  --mm--

     Soil H20 (start) on Year/day 1982/097     490.84
     Soil H20 (final) on Year/day 1982/339     524.26
     Effective Irrigation                       74.65
     Precipitation                             998.80
     Drainage                                  582.09
     Runoff                                     19.36
     Soil Evaporation                          324.77
     Transpiration                             113.82
     Potential ET                              696.99

     Final Balance                             0.0000


*DSSAT Cropping System Model Ver. 4.0.2.000               Aug 01, 2016; 15:44:49

*RUN   9        : UYMZ                    
 MODEL          : MZCER040 - Maize           
 EXPERIMENT     : UYMZ0105 MZ    late to create DSS                             
 TREATMENT  1   : UYMZ                    


     WATER BALANCE PARAMETERS
     ========================                  --mm--

     Soil H20 (start) on Year/day 1983/097     490.84
     Soil H20 (final) on Year/day 1983/202     554.05
     Effective Irrigation                       74.81
     Precipitation                             230.10
     Drainage                                   87.53
     Runoff                                      1.17
     Soil Evaporation                          139.36
     Transpiration                              13.64
     Potential ET                              217.40

     Final Balance                             0.0001


*DSSAT Cropping System Model Ver. 4.0.2.000               Aug 01, 2016; 15:44:49

*RUN  10        : UYMZ                    
 MODEL          : MZCER040 - Maize           
 EXPERIMENT     : UYMZ0105 MZ    late to create DSS                             
 TREATMENT  1   : UYMZ                    


     WATER BALANCE PARAMETERS
     ========================                  --mm--

     Soil H20 (start) on Year/day 1984/097     490.84
     Soil H20 (final) on Year/day 1984/211     547.20
     Effective Irrigation                       45.76
     Precipitation                             719.30
     Drainage                                  521.36
     Runoff                                     27.98
     Soil Evaporation                          147.86
     Transpiration                              11.50
     Potential ET                              220.84

     Final Balance                             0.0000


*DSSAT Cropping System Model Ver. 4.0.2.000               Aug 01, 2016; 15:44:49

*RUN  11        : UYMZ                    
 MODEL          : MZCER040 - Maize           
 EXPERIMENT     : UYMZ0105 MZ    late to create DSS                             
 TREATMENT  1   : UYMZ                    


     WATER BALANCE PARAMETERS
     ========================                  --mm--

     Soil H20 (start) on Year/day 1985/097     490.84
     Soil H20 (final) on Year/day 1985/335     547.64
     Effective Irrigation                       45.44
     Precipitation                             756.70
     Drainage                                  337.41
     Runoff                                      1.95
     Soil Evaporation                          336.98
     Transpiration                              69.01
     Potential ET                              678.58

     Final Balance                             0.0000


*DSSAT Cropping System Model Ver. 4.0.2.000               Aug 01, 2016; 15:44:49

*RUN  12        : UYMZ                    
 MODEL          : MZCER040 - Maize           
 EXPERIMENT     : UYMZ0105 MZ    late to create DSS                             
 TREATMENT  1   : UYMZ                    


     WATER BALANCE PARAMETERS
     ========================                  --mm--

     Soil H20 (start) on Year/day 1986/097     490.84
     Soil H20 (final) on Year/day 1986/280     588.14
     Effective Irrigation                       44.88
     Precipitation                             756.90
     Drainage                                  418.27
     Runoff                                     13.47
     Soil Evaporation                          230.38
     Transpiration                              42.38
     Potential ET                              410.50

     Final Balance                             0.0001


*DSSAT Cropping System Model Ver. 4.0.2.000               Aug 01, 2016; 15:44:49

*RUN  13        : UYMZ                    
 MODEL          : MZCER040 - Maize           
 EXPERIMENT     : UYMZ0105 MZ    late to create DSS                             
 TREATMENT  1   : UYMZ                    


     WATER BALANCE PARAMETERS
     ========================                  --mm--

     Soil H20 (start) on Year/day 1987/097     490.84
     Soil H20 (final) on Year/day 1987/152     542.04
     Effective Irrigation                       46.23
     Precipitation                             134.20
     Drainage                                   37.09
     Runoff                                      0.25
     Soil Evaporation                           84.11
     Transpiration                               7.79
     Potential ET                              131.14

     Final Balance                             0.0000


*DSSAT Cropping System Model Ver. 4.0.2.000               Aug 01, 2016; 15:44:49

*RUN  14        : UYMZ                    
 MODEL          : MZCER040 - Maize           
 EXPERIMENT     : UYMZ0105 MZ    late to create DSS                             
 TREATMENT  1   : UYMZ                    


     WATER BALANCE PARAMETERS
     ========================                  --mm--

     Soil H20 (start) on Year/day 1988/097     490.84
     Soil H20 (final) on Year/day 1988/150     534.64
     Effective Irrigation                       35.60
     Precipitation                              74.20
     Drainage                                    0.00
     Runoff                                      0.15
     Soil Evaporation                           63.45
     Transpiration                               2.41
     Potential ET                              139.77

     Final Balance                             0.0001


*DSSAT Cropping System Model Ver. 4.0.2.000               Aug 01, 2016; 15:44:49

*RUN  15        : UYMZ                    
 MODEL          : MZCER040 - Maize           
 EXPERIMENT     : UYMZ0105 MZ    late to create DSS                             
 TREATMENT  1   : UYMZ                    


     WATER BALANCE PARAMETERS
     ========================                  --mm--

     Soil H20 (start) on Year/day 1989/097     490.84
     Soil H20 (final) on Year/day 1989/172     529.52
     Effective Irrigation                       74.29
     Precipitation                              48.00
     Drainage                                    0.00
     Runoff                                      0.00
     Soil Evaporation                           65.29
     Transpiration                              18.31
     Potential ET                              192.10

     Final Balance                             0.0001


*DSSAT Cropping System Model Ver. 4.0.2.000               Aug 01, 2016; 15:44:49

*RUN  16        : UYMZ                    
 MODEL          : MZCER040 - Maize           
 EXPERIMENT     : UYMZ0105 MZ    late to create DSS                             
 TREATMENT  1   : UYMZ                    


     WATER BALANCE PARAMETERS
     ========================                  --mm--

     Soil H20 (start) on Year/day 1990/097     490.84
     Soil H20 (final) on Year/day 1990/180     537.99
     Effective Irrigation                       42.82
     Precipitation                             250.70
     Drainage                                  121.26
     Runoff                                      0.41
     Soil Evaporation                          112.43
     Transpiration                              12.27
     Potential ET                              187.14

     Final Balance                             0.0001


*DSSAT Cropping System Model Ver. 4.0.2.000               Aug 01, 2016; 15:44:49

*RUN  17        : UYMZ                    
 MODEL          : MZCER040 - Maize           
 EXPERIMENT     : UYMZ0105 MZ    late to create DSS                             
 TREATMENT  1   : UYMZ                    


     WATER BALANCE PARAMETERS
     ========================                  --mm--

     Soil H20 (start) on Year/day 1991/097     490.84
     Soil H20 (final) on Year/day 1991/218     553.43
     Effective Irrigation                        0.00
     Precipitation                             659.20
     Drainage                                  386.95
     Runoff                                     17.84
     Soil Evaporation                          161.75
     Transpiration                              30.08
     Potential ET                              227.82

     Final Balance                             0.0000


*DSSAT Cropping System Model Ver. 4.0.2.000               Aug 01, 2016; 15:44:49

*RUN  18        : UYMZ                    
 MODEL          : MZCER040 - Maize           
 EXPERIMENT     : UYMZ0105 MZ    late to create DSS                             
 TREATMENT  1   : UYMZ                    


     WATER BALANCE PARAMETERS
     ========================                  --mm--

     Soil H20 (start) on Year/day 1992/097     490.84
     Soil H20 (final) on Year/day 1992/204     561.91
     Effective Irrigation                       44.52
     Precipitation                             672.40
     Drainage                                  452.10
     Runoff                                     17.91
     Soil Evaporation                          155.05
     Transpiration                              20.78
     Potential ET                              206.93

     Final Balance                             0.0001


*DSSAT Cropping System Model Ver. 4.0.2.000               Aug 01, 2016; 15:44:49

*RUN  19        : UYMZ                    
 MODEL          : MZCER040 - Maize           
 EXPERIMENT     : UYMZ0105 MZ    late to create DSS                             
 TREATMENT  1   : UYMZ                    


     WATER BALANCE PARAMETERS
     ========================                  --mm--

     Soil H20 (start) on Year/day 1993/097     490.84
     Soil H20 (final) on Year/day 1993/198     557.60
     Effective Irrigation                       46.47
     Precipitation                             405.00
     Drainage                                  210.13
     Runoff                                      3.92
     Soil Evaporation                          148.09
     Transpiration                              22.57
     Potential ET                              206.87

     Final Balance                            -0.0001


*DSSAT Cropping System Model Ver. 4.0.2.000               Aug 01, 2016; 15:44:49

*RUN  20        : UYMZ                    
 MODEL          : MZCER040 - Maize           
 EXPERIMENT     : UYMZ0105 MZ    late to create DSS                             
 TREATMENT  1   : UYMZ                    


     WATER BALANCE PARAMETERS
     ========================                  --mm--

     Soil H20 (start) on Year/day 1994/097     490.84
     Soil H20 (final) on Year/day 1994/194     555.50
     Effective Irrigation                       43.53
     Precipitation                             237.50
     Drainage                                   62.66
     Runoff                                      0.17
     Soil Evaporation                          117.65
     Transpiration                              35.89
     Potential ET                              214.15

     Final Balance                            -0.0001


*DSSAT Cropping System Model Ver. 4.0.2.000               Aug 01, 2016; 15:44:49

*RUN  21        : UYMZ                    
 MODEL          : MZCER040 - Maize           
 EXPERIMENT     : UYMZ0105 MZ    late to create DSS                             
 TREATMENT  1   : UYMZ                    


     WATER BALANCE PARAMETERS
     ========================                  --mm--

     Soil H20 (start) on Year/day 1995/097     490.84
     Soil H20 (final) on Year/day 1995/218     549.82
     Effective Irrigation                       36.72
     Precipitation                             548.80
     Drainage                                  333.29
     Runoff                                     10.78
     Soil Evaporation                          168.81
     Transpiration                              13.66
     Potential ET                              256.20

     Final Balance                             0.0000

