*SOIL N BALANCE - CERES SOIL N&C ROUTINES

*DSSAT Cropping System Model Ver. 4.0.2.000               Aug 01, 2016; 15:44:49

*RUN   1        : UYMZ                    
 MODEL          : MZCER040 - Maize           
 EXPERIMENT     : UYMZ0105 MZ    late to create DSS                             
 TREATMENT  1   : UYMZ                    



                                         INITIAL Year/Doy      FINAL Year/Doy
                                                 1975/097            1975/294
SOIL N BALANCE                                  -----------kg N/ha-----------

   Soil Humus N                                  16646.04            16539.36
   Soil Litter N                                     0.00                0.81
   N in Surface Residue                              0.00                0.00
   Soil NO3                                         74.81               83.57
   Soil NH4                                         23.95               21.48
   Soil Urea                                         0.00                0.00

   Added to / Removed from Soil:
   N in Harvest Residues from Previous Crop          0.00
   N from Organic Applications                       0.00
   N from senesced plant matter                      2.53
   Fertilizer N                                     20.00
   Leached NO3                                                          23.05
   N Denitrified                                                         3.89
   N Uptake From Soil                                                   93.71
   Ammonia volatilization                                                1.46

   Total N balance                               16767.34            16767.33

================================================================================

*DSSAT Cropping System Model Ver. 4.0.2.000               Aug 01, 2016; 15:44:49

*RUN   2        : UYMZ                    
 MODEL          : MZCER040 - Maize           
 EXPERIMENT     : UYMZ0105 MZ    late to create DSS                             
 TREATMENT  1   : UYMZ                    



                                         INITIAL Year/Doy      FINAL Year/Doy
                                                 1976/097            1976/192
SOIL N BALANCE                                  -----------kg N/ha-----------

   Soil Humus N                                  16646.04            16594.00
   Soil Litter N                                     0.00                1.07
   N in Surface Residue                              0.00                0.00
   Soil NO3                                         74.81               90.36
   Soil NH4                                         23.95               21.09
   Soil Urea                                         0.00                0.00

   Added to / Removed from Soil:
   N in Harvest Residues from Previous Crop          0.00
   N from Organic Applications                       0.00
   N from senesced plant matter                      1.35
   Fertilizer N                                     10.00
   Leached NO3                                                          12.36
   N Denitrified                                                         2.13
   N Uptake From Soil                                                   34.20
   Ammonia volatilization                                                0.93

   Total N balance                               16756.15            16756.15

================================================================================

*DSSAT Cropping System Model Ver. 4.0.2.000               Aug 01, 2016; 15:44:49

*RUN   3        : UYMZ                    
 MODEL          : MZCER040 - Maize           
 EXPERIMENT     : UYMZ0105 MZ    late to create DSS                             
 TREATMENT  1   : UYMZ                    



                                         INITIAL Year/Doy      FINAL Year/Doy
                                                 1977/097            1977/328
SOIL N BALANCE                                  -----------kg N/ha-----------

   Soil Humus N                                  16646.04            16517.02
   Soil Litter N                                     0.00                0.65
   N in Surface Residue                              0.00                0.00
   Soil NO3                                         74.81               72.39
   Soil NH4                                         23.95               22.64
   Soil Urea                                         0.00                0.00

   Added to / Removed from Soil:
   N in Harvest Residues from Previous Crop          0.00
   N from Organic Applications                       0.00
   N from senesced plant matter                      2.33
   Fertilizer N                                     20.00
   Leached NO3                                                          83.36
   N Denitrified                                                        10.12
   N Uptake From Soil                                                   58.99
   Ammonia volatilization                                                1.97

   Total N balance                               16767.13            16767.13

================================================================================

*DSSAT Cropping System Model Ver. 4.0.2.000               Aug 01, 2016; 15:44:49

*RUN   4        : UYMZ                    
 MODEL          : MZCER040 - Maize           
 EXPERIMENT     : UYMZ0105 MZ    late to create DSS                             
 TREATMENT  1   : UYMZ                    



                                         INITIAL Year/Doy      FINAL Year/Doy
                                                 1978/097            1978/163
SOIL N BALANCE                                  -----------kg N/ha-----------

   Soil Humus N                                  16646.04            16608.81
   Soil Litter N                                     0.00                0.41
   N in Surface Residue                              0.00                0.00
   Soil NO3                                         74.81              113.49
   Soil NH4                                         23.95               15.89
   Soil Urea                                         0.00                0.00

   Added to / Removed from Soil:
   N in Harvest Residues from Previous Crop          0.00
   N from Organic Applications                       0.00
   N from senesced plant matter                      0.44
   Fertilizer N                                     10.00
   Leached NO3                                                           0.79
   N Denitrified                                                         0.15
   N Uptake From Soil                                                   15.06
   Ammonia volatilization                                                0.64

   Total N balance                               16755.24            16755.24

================================================================================

*DSSAT Cropping System Model Ver. 4.0.2.000               Aug 01, 2016; 15:44:49

*RUN   5        : UYMZ                    
 MODEL          : MZCER040 - Maize           
 EXPERIMENT     : UYMZ0105 MZ    late to create DSS                             
 TREATMENT  1   : UYMZ                    



                                         INITIAL Year/Doy      FINAL Year/Doy
                                                 1979/097            1979/159
SOIL N BALANCE                                  -----------kg N/ha-----------

   Soil Humus N                                  16646.04            16608.91
   Soil Litter N                                     0.00                0.39
   N in Surface Residue                              0.00                0.00
   Soil NO3                                         74.81              108.65
   Soil NH4                                         23.95               13.12
   Soil Urea                                         0.00                0.00

   Added to / Removed from Soil:
   N in Harvest Residues from Previous Crop          0.00
   N from Organic Applications                       0.00
   N from senesced plant matter                      0.43
   Fertilizer N                                     10.00
   Leached NO3                                                           0.00
   N Denitrified                                                         0.00
   N Uptake From Soil                                                   23.72
   Ammonia volatilization                                                0.44

   Total N balance                               16755.23            16755.23

================================================================================

*DSSAT Cropping System Model Ver. 4.0.2.000               Aug 01, 2016; 15:44:49

*RUN   6        : UYMZ                    
 MODEL          : MZCER040 - Maize           
 EXPERIMENT     : UYMZ0105 MZ    late to create DSS                             
 TREATMENT  1   : UYMZ                    



                                         INITIAL Year/Doy      FINAL Year/Doy
                                                 1980/097            1980/227
SOIL N BALANCE                                  -----------kg N/ha-----------

   Soil Humus N                                  16646.04            16574.23
   Soil Litter N                                     0.00                0.86
   N in Surface Residue                              0.00                0.00
   Soil NO3                                         74.81               50.38
   Soil NH4                                         23.95               23.62
   Soil Urea                                         0.00                0.00

   Added to / Removed from Soil:
   N in Harvest Residues from Previous Crop          0.00
   N from Organic Applications                       0.00
   N from senesced plant matter                      1.57
   Fertilizer N                                     20.00
   Leached NO3                                                          43.37
   N Denitrified                                                         4.12
   N Uptake From Soil                                                   68.44
   Ammonia volatilization                                                1.35

   Total N balance                               16766.37            16766.37

================================================================================

*DSSAT Cropping System Model Ver. 4.0.2.000               Aug 01, 2016; 15:44:49

*RUN   7        : UYMZ                    
 MODEL          : MZCER040 - Maize           
 EXPERIMENT     : UYMZ0105 MZ    late to create DSS                             
 TREATMENT  1   : UYMZ                    



                                         INITIAL Year/Doy      FINAL Year/Doy
                                                 1981/097            1981/331
SOIL N BALANCE                                  -----------kg N/ha-----------

   Soil Humus N                                  16646.04            16513.11
   Soil Litter N                                     0.00                0.92
   N in Surface Residue                              0.00                0.00
   Soil NO3                                         74.81               56.62
   Soil NH4                                         23.95               13.82
   Soil Urea                                         0.00                0.00

   Added to / Removed from Soil:
   N in Harvest Residues from Previous Crop          0.00
   N from Organic Applications                       0.00
   N from senesced plant matter                      4.00
   Fertilizer N                                     20.00
   Leached NO3                                                          43.03
   N Denitrified                                                         6.26
   N Uptake From Soil                                                  132.71
   Ammonia volatilization                                                2.32

   Total N balance                               16768.80            16768.81

================================================================================

*DSSAT Cropping System Model Ver. 4.0.2.000               Aug 01, 2016; 15:44:49

*RUN   8        : UYMZ                    
 MODEL          : MZCER040 - Maize           
 EXPERIMENT     : UYMZ0105 MZ    late to create DSS                             
 TREATMENT  1   : UYMZ                    



                                         INITIAL Year/Doy      FINAL Year/Doy
                                                 1982/097            1982/339
SOIL N BALANCE                                  -----------kg N/ha-----------

   Soil Humus N                                  16646.04            16511.68
   Soil Litter N                                     0.00                0.82
   N in Surface Residue                              0.00                0.00
   Soil NO3                                         74.81               76.84
   Soil NH4                                         23.95               17.56
   Soil Urea                                         0.00                0.00

   Added to / Removed from Soil:
   N in Harvest Residues from Previous Crop          0.00
   N from Organic Applications                       0.00
   N from senesced plant matter                      3.35
   Fertilizer N                                     20.00
   Leached NO3                                                          70.70
   N Denitrified                                                         7.85
   N Uptake From Soil                                                   80.72
   Ammonia volatilization                                                1.98

   Total N balance                               16768.15            16768.15

================================================================================

*DSSAT Cropping System Model Ver. 4.0.2.000               Aug 01, 2016; 15:44:49

*RUN   9        : UYMZ                    
 MODEL          : MZCER040 - Maize           
 EXPERIMENT     : UYMZ0105 MZ    late to create DSS                             
 TREATMENT  1   : UYMZ                    



                                         INITIAL Year/Doy      FINAL Year/Doy
                                                 1983/097            1983/202
SOIL N BALANCE                                  -----------kg N/ha-----------

   Soil Humus N                                  16646.04            16591.14
   Soil Litter N                                     0.00                0.26
   N in Surface Residue                              0.00                0.00
   Soil NO3                                         74.81              127.03
   Soil NH4                                         23.95               21.30
   Soil Urea                                         0.00                0.00

   Added to / Removed from Soil:
   N in Harvest Residues from Previous Crop          0.00
   N from Organic Applications                       0.00
   N from senesced plant matter                      0.37
   Fertilizer N                                     20.00
   Leached NO3                                                           5.62
   N Denitrified                                                         1.55
   N Uptake From Soil                                                   17.64
   Ammonia volatilization                                                0.63

   Total N balance                               16765.17            16765.17

================================================================================

*DSSAT Cropping System Model Ver. 4.0.2.000               Aug 01, 2016; 15:44:49

*RUN  10        : UYMZ                    
 MODEL          : MZCER040 - Maize           
 EXPERIMENT     : UYMZ0105 MZ    late to create DSS                             
 TREATMENT  1   : UYMZ                    



                                         INITIAL Year/Doy      FINAL Year/Doy
                                                 1984/097            1984/211
SOIL N BALANCE                                  -----------kg N/ha-----------

   Soil Humus N                                  16646.04            16586.12
   Soil Litter N                                     0.00                0.33
   N in Surface Residue                              0.00                0.00
   Soil NO3                                         74.81               56.10
   Soil NH4                                         23.95               24.86
   Soil Urea                                         0.00                0.00

   Added to / Removed from Soil:
   N in Harvest Residues from Previous Crop          0.00
   N from Organic Applications                       0.00
   N from senesced plant matter                      0.47
   Fertilizer N                                     20.00
   Leached NO3                                                          71.19
   N Denitrified                                                         8.64
   N Uptake From Soil                                                   16.57
   Ammonia volatilization                                                1.47

   Total N balance                               16765.27            16765.27

================================================================================

*DSSAT Cropping System Model Ver. 4.0.2.000               Aug 01, 2016; 15:44:49

*RUN  11        : UYMZ                    
 MODEL          : MZCER040 - Maize           
 EXPERIMENT     : UYMZ0105 MZ    late to create DSS                             
 TREATMENT  1   : UYMZ                    



                                         INITIAL Year/Doy      FINAL Year/Doy
                                                 1985/097            1985/335
SOIL N BALANCE                                  -----------kg N/ha-----------

   Soil Humus N                                  16646.04            16512.50
   Soil Litter N                                     0.00                0.59
   N in Surface Residue                              0.00                0.00
   Soil NO3                                         74.81              111.76
   Soil NH4                                         23.95               22.65
   Soil Urea                                         0.00                0.00

   Added to / Removed from Soil:
   N in Harvest Residues from Previous Crop          0.00
   N from Organic Applications                       0.00
   N from senesced plant matter                      2.20
   Fertilizer N                                     20.00
   Leached NO3                                                          47.52
   N Denitrified                                                         8.39
   N Uptake From Soil                                                   61.52
   Ammonia volatilization                                                2.07

   Total N balance                               16767.01            16767.01

================================================================================

*DSSAT Cropping System Model Ver. 4.0.2.000               Aug 01, 2016; 15:44:49

*RUN  12        : UYMZ                    
 MODEL          : MZCER040 - Maize           
 EXPERIMENT     : UYMZ0105 MZ    late to create DSS                             
 TREATMENT  1   : UYMZ                    



                                         INITIAL Year/Doy      FINAL Year/Doy
                                                 1986/097            1986/280
SOIL N BALANCE                                  -----------kg N/ha-----------

   Soil Humus N                                  16646.04            16546.29
   Soil Litter N                                     0.00                0.80
   N in Surface Residue                              0.00                0.00
   Soil NO3                                         74.81               65.11
   Soil NH4                                         23.95               22.92
   Soil Urea                                         0.00                0.00

   Added to / Removed from Soil:
   N in Harvest Residues from Previous Crop          0.00
   N from Organic Applications                       0.00
   N from senesced plant matter                      2.13
   Fertilizer N                                     20.00
   Leached NO3                                                          49.39
   N Denitrified                                                         6.56
   N Uptake From Soil                                                   74.60
   Ammonia volatilization                                                1.25

   Total N balance                               16766.93            16766.93

================================================================================

*DSSAT Cropping System Model Ver. 4.0.2.000               Aug 01, 2016; 15:44:49

*RUN  13        : UYMZ                    
 MODEL          : MZCER040 - Maize           
 EXPERIMENT     : UYMZ0105 MZ    late to create DSS                             
 TREATMENT  1   : UYMZ                    



                                         INITIAL Year/Doy      FINAL Year/Doy
                                                 1987/097            1987/152
SOIL N BALANCE                                  -----------kg N/ha-----------

   Soil Humus N                                  16646.04            16612.92
   Soil Litter N                                     0.00                0.24
   N in Surface Residue                              0.00                0.00
   Soil NO3                                         74.81              107.48
   Soil NH4                                         23.95               19.11
   Soil Urea                                         0.00                0.00

   Added to / Removed from Soil:
   N in Harvest Residues from Previous Crop          0.00
   N from Organic Applications                       0.00
   N from senesced plant matter                      0.25
   Fertilizer N                                     10.00
   Leached NO3                                                           0.87
   N Denitrified                                                         0.64
   N Uptake From Soil                                                   13.02
   Ammonia volatilization                                                0.77

   Total N balance                               16755.05            16755.06

================================================================================

*DSSAT Cropping System Model Ver. 4.0.2.000               Aug 01, 2016; 15:44:49

*RUN  14        : UYMZ                    
 MODEL          : MZCER040 - Maize           
 EXPERIMENT     : UYMZ0105 MZ    late to create DSS                             
 TREATMENT  1   : UYMZ                    



                                         INITIAL Year/Doy      FINAL Year/Doy
                                                 1988/097            1988/150
SOIL N BALANCE                                  -----------kg N/ha-----------

   Soil Humus N                                  16646.04            16615.52
   Soil Litter N                                     0.00                0.10
   N in Surface Residue                              0.00                0.00
   Soil NO3                                         74.81              120.83
   Soil NH4                                         23.95               13.69
   Soil Urea                                         0.00                0.00

   Added to / Removed from Soil:
   N in Harvest Residues from Previous Crop          0.00
   N from Organic Applications                       0.00
   N from senesced plant matter                      0.10
   Fertilizer N                                     10.00
   Leached NO3                                                           0.00
   N Denitrified                                                         0.03
   N Uptake From Soil                                                    4.39
   Ammonia volatilization                                                0.34

   Total N balance                               16754.90            16754.90

================================================================================

*DSSAT Cropping System Model Ver. 4.0.2.000               Aug 01, 2016; 15:44:49

*RUN  15        : UYMZ                    
 MODEL          : MZCER040 - Maize           
 EXPERIMENT     : UYMZ0105 MZ    late to create DSS                             
 TREATMENT  1   : UYMZ                    



                                         INITIAL Year/Doy      FINAL Year/Doy
                                                 1989/097            1989/172
SOIL N BALANCE                                  -----------kg N/ha-----------

   Soil Humus N                                  16646.04            16599.91
   Soil Litter N                                     0.00                0.56
   N in Surface Residue                              0.00                0.00
   Soil NO3                                         74.81              106.71
   Soil NH4                                         23.95               12.75
   Soil Urea                                         0.00                0.00

   Added to / Removed from Soil:
   N in Harvest Residues from Previous Crop          0.00
   N from Organic Applications                       0.00
   N from senesced plant matter                      0.64
   Fertilizer N                                     10.00
   Leached NO3                                                           0.00
   N Denitrified                                                         0.00
   N Uptake From Soil                                                   34.90
   Ammonia volatilization                                                0.61

   Total N balance                               16755.45            16755.45

================================================================================

*DSSAT Cropping System Model Ver. 4.0.2.000               Aug 01, 2016; 15:44:49

*RUN  16        : UYMZ                    
 MODEL          : MZCER040 - Maize           
 EXPERIMENT     : UYMZ0105 MZ    late to create DSS                             
 TREATMENT  1   : UYMZ                    



                                         INITIAL Year/Doy      FINAL Year/Doy
                                                 1990/097            1990/180
SOIL N BALANCE                                  -----------kg N/ha-----------

   Soil Humus N                                  16646.04            16600.14
   Soil Litter N                                     0.00                0.51
   N in Surface Residue                              0.00                0.00
   Soil NO3                                         74.81              110.11
   Soil NH4                                         23.95               19.45
   Soil Urea                                         0.00                0.00

   Added to / Removed from Soil:
   N in Harvest Residues from Previous Crop          0.00
   N from Organic Applications                       0.00
   N from senesced plant matter                      0.61
   Fertilizer N                                     10.00
   Leached NO3                                                           5.53
   N Denitrified                                                         3.10
   N Uptake From Soil                                                   15.80
   Ammonia volatilization                                                0.80

   Total N balance                               16755.41            16755.41

================================================================================

*DSSAT Cropping System Model Ver. 4.0.2.000               Aug 01, 2016; 15:44:49

*RUN  17        : UYMZ                    
 MODEL          : MZCER040 - Maize           
 EXPERIMENT     : UYMZ0105 MZ    late to create DSS                             
 TREATMENT  1   : UYMZ                    



                                         INITIAL Year/Doy      FINAL Year/Doy
                                                 1991/097            1991/218
SOIL N BALANCE                                  -----------kg N/ha-----------

   Soil Humus N                                  16646.04            16580.51
   Soil Litter N                                     0.00                0.82
   N in Surface Residue                              0.00                0.00
   Soil NO3                                         74.81               58.96
   Soil NH4                                         23.95               24.36
   Soil Urea                                         0.00                0.00

   Added to / Removed from Soil:
   N in Harvest Residues from Previous Crop          0.00
   N from Organic Applications                       0.00
   N from senesced plant matter                      1.30
   Fertilizer N                                     20.00
   Leached NO3                                                          43.18
   N Denitrified                                                         6.03
   N Uptake From Soil                                                   50.55
   Ammonia volatilization                                                1.70

   Total N balance                               16766.10            16766.10

================================================================================

*DSSAT Cropping System Model Ver. 4.0.2.000               Aug 01, 2016; 15:44:49

*RUN  18        : UYMZ                    
 MODEL          : MZCER040 - Maize           
 EXPERIMENT     : UYMZ0105 MZ    late to create DSS                             
 TREATMENT  1   : UYMZ                    



                                         INITIAL Year/Doy      FINAL Year/Doy
                                                 1992/097            1992/204
SOIL N BALANCE                                  -----------kg N/ha-----------

   Soil Humus N                                  16646.04            16587.71
   Soil Litter N                                     0.00                0.71
   N in Surface Residue                              0.00                0.00
   Soil NO3                                         74.81               57.12
   Soil NH4                                         23.95               26.77
   Soil Urea                                         0.00                0.00

   Added to / Removed from Soil:
   N in Harvest Residues from Previous Crop          0.00
   N from Organic Applications                       0.00
   N from senesced plant matter                      1.04
   Fertilizer N                                     20.00
   Leached NO3                                                          56.53
   N Denitrified                                                         6.90
   N Uptake From Soil                                                   28.97
   Ammonia volatilization                                                1.13

   Total N balance                               16765.85            16765.85

================================================================================

*DSSAT Cropping System Model Ver. 4.0.2.000               Aug 01, 2016; 15:44:49

*RUN  19        : UYMZ                    
 MODEL          : MZCER040 - Maize           
 EXPERIMENT     : UYMZ0105 MZ    late to create DSS                             
 TREATMENT  1   : UYMZ                    



                                         INITIAL Year/Doy      FINAL Year/Doy
                                                 1993/097            1993/198
SOIL N BALANCE                                  -----------kg N/ha-----------

   Soil Humus N                                  16646.04            16590.54
   Soil Litter N                                     0.00                0.84
   N in Surface Residue                              0.00                0.00
   Soil NO3                                         74.81               86.23
   Soil NH4                                         23.95               21.51
   Soil Urea                                         0.00                0.00

   Added to / Removed from Soil:
   N in Harvest Residues from Previous Crop          0.00
   N from Organic Applications                       0.00
   N from senesced plant matter                      1.13
   Fertilizer N                                     10.00
   Leached NO3                                                          15.63
   N Denitrified                                                         3.62
   N Uptake From Soil                                                   36.81
   Ammonia volatilization                                                0.77

   Total N balance                               16755.94            16755.94

================================================================================

*DSSAT Cropping System Model Ver. 4.0.2.000               Aug 01, 2016; 15:44:49

*RUN  20        : UYMZ                    
 MODEL          : MZCER040 - Maize           
 EXPERIMENT     : UYMZ0105 MZ    late to create DSS                             
 TREATMENT  1   : UYMZ                    



                                         INITIAL Year/Doy      FINAL Year/Doy
                                                 1994/097            1994/194
SOIL N BALANCE                                  -----------kg N/ha-----------

   Soil Humus N                                  16646.04            16590.74
   Soil Litter N                                     0.00                1.04
   N in Surface Residue                              0.00                0.00
   Soil NO3                                         74.81               75.95
   Soil NH4                                         23.95               20.07
   Soil Urea                                         0.00                0.00

   Added to / Removed from Soil:
   N in Harvest Residues from Previous Crop          0.00
   N from Organic Applications                       0.00
   N from senesced plant matter                      1.35
   Fertilizer N                                     10.00
   Leached NO3                                                           2.83
   N Denitrified                                                         2.40
   N Uptake From Soil                                                   62.14
   Ammonia volatilization                                                0.98

   Total N balance                               16756.15            16756.15

================================================================================

*DSSAT Cropping System Model Ver. 4.0.2.000               Aug 01, 2016; 15:44:49

*RUN  21        : UYMZ                    
 MODEL          : MZCER040 - Maize           
 EXPERIMENT     : UYMZ0105 MZ    late to create DSS                             
 TREATMENT  1   : UYMZ                    



                                         INITIAL Year/Doy      FINAL Year/Doy
                                                 1995/097            1995/218
SOIL N BALANCE                                  -----------kg N/ha-----------

   Soil Humus N                                  16646.04            16581.96
   Soil Litter N                                     0.00                0.34
   N in Surface Residue                              0.00                0.00
   Soil NO3                                         74.81               84.53
   Soil NH4                                         23.95               23.61
   Soil Urea                                         0.00                0.00

   Added to / Removed from Soil:
   N in Harvest Residues from Previous Crop          0.00
   N from Organic Applications                       0.00
   N from senesced plant matter                      0.54
   Fertilizer N                                     20.00
   Leached NO3                                                          45.12
   N Denitrified                                                         6.63
   N Uptake From Soil                                                   21.79
   Ammonia volatilization                                                1.38

   Total N balance                               16765.34            16765.34
