*SOIL TEMPERATURE OUTPUT FILE (DAILY)

*DSSAT Cropping System Model Ver. 4.0.2.000               Aug 01, 2016; 15:44:49

*RUN   1        : UYMZ                    
 MODEL          : MZCER040 - Maize           
 EXPERIMENT     : UYMZ0105 MZ    late to create DSS                             
 TREATMENT  1   : UYMZ                    

@YEAR DOY   DAS  TS1D  TS2D  TS3D  TS4D  TS5D  TS6D  TS7D  TS8D  TS9D  TS10
 1975 097     0  25.7  24.8  23.5  22.2  21.0  19.6  18.5  18.0   0.0   0.0
 1975 098     1  25.0  24.3  23.1  21.8  20.7  19.4  18.4  17.9   0.0   0.0
 1975 099     2  24.2  23.6  22.6  21.4  20.5  19.3  18.3  17.8   0.0   0.0
 1975 100     3  23.5  23.0  22.1  21.1  20.2  19.1  18.2  17.8   0.0   0.0
 1975 101     4  22.8  22.4  21.7  20.8  20.0  19.0  18.2  17.7   0.0   0.0
 1975 102     5  21.6  21.3  20.8  20.1  19.5  18.7  18.0  17.6   0.0   0.0
 1975 103     6  21.6  21.4  20.8  20.2  19.5  18.7  18.0  17.6   0.0   0.0
 1975 104     7  21.1  20.9  20.5  19.9  19.4  18.6  17.9  17.6   0.0   0.0
 1975 105     8  20.5  20.3  20.0  19.6  19.1  18.4  17.8  17.5   0.0   0.0
 1975 106     9  20.0  19.9  19.7  19.4  18.9  18.3  17.8  17.5   0.0   0.0
 1975 107    10  20.3  20.2  20.0  19.5  19.1  18.4  17.8  17.5   0.0   0.0
 1975 108    11  20.5  20.4  20.1  19.6  19.2  18.5  17.9  17.5   0.0   0.0
 1975 109    12  21.9  21.6  21.1  20.4  19.7  18.8  18.1  17.7   0.0   0.0
 1975 110    13  23.5  23.0  22.1  21.2  20.3  19.2  18.4  17.9   0.0   0.0
 1975 111    14  24.7  24.1  23.0  21.8  20.8  19.6  18.6  18.0   0.0   0.0
 1975 112    15  25.6  24.8  23.6  22.3  21.2  19.8  18.7  18.1   0.0   0.0
 1975 113    16  25.2  24.5  23.3  22.1  21.0  19.7  18.7  18.1   0.0   0.0
 1975 114    17  24.7  24.0  23.0  21.8  20.8  19.6  18.6  18.1   0.0   0.0
 1975 115    18  24.4  23.8  22.8  21.7  20.7  19.5  18.5  18.0   0.0   0.0
 1975 116    19  24.3  23.7  22.7  21.6  20.7  19.5  18.5  18.0   0.0   0.0
 1975 117    20  22.7  22.3  21.6  20.8  20.1  19.1  18.3  17.9   0.0   0.0
 1975 118    21  23.2  22.7  21.9  21.1  20.3  19.2  18.4  17.9   0.0   0.0
 1975 119    22  22.4  22.0  21.4  20.6  20.0  19.0  18.3  17.8   0.0   0.0
 1975 120    23  20.6  20.5  20.2  19.8  19.3  18.6  18.0  17.7   0.0   0.0
 1975 121    24  18.6  18.7  18.8  18.7  18.5  18.1  17.7  17.4   0.0   0.0
 1975 122    25  17.5  17.8  18.1  18.2  18.1  17.9  17.5  17.3   0.0   0.0
 1975 123    26  16.2  16.6  17.1  17.5  17.6  17.5  17.3  17.2   0.0   0.0
 1975 124    27  15.7  16.2  16.8  17.2  17.4  17.4  17.3  17.1   0.0   0.0
 1975 125    28  15.7  16.2  16.8  17.3  17.4  17.4  17.3  17.1   0.0   0.0
 1975 126    29  16.2  16.7  17.2  17.5  17.6  17.6  17.4  17.2   0.0   0.0
 1975 127    30  17.3  17.6  17.9  18.1  18.1  17.8  17.5  17.3   0.0   0.0
 1975 128    31  18.3  18.4  18.6  18.6  18.4  18.1  17.7  17.5   0.0   0.0
 1975 129    32  20.0  20.0  19.8  19.5  19.1  18.5  18.0  17.7   0.0   0.0
 1975 130    33  21.1  20.9  20.5  20.0  19.5  18.8  18.2  17.8   0.0   0.0
 1975 131    34  21.4  21.2  20.7  20.2  19.7  18.9  18.2  17.8   0.0   0.0
 1975 132    35  21.5  21.2  20.8  20.2  19.7  19.0  18.3  17.9   0.0   0.0
 1975 133    36  20.6  20.4  20.2  19.8  19.4  18.7  18.1  17.8   0.0   0.0
 1975 134    37  18.7  18.8  18.9  18.8  18.6  18.3  17.8  17.6   0.0   0.0
 1975 135    38  17.8  18.0  18.3  18.3  18.3  18.0  17.7  17.5   0.0   0.0
 1975 136    39  16.9  17.2  17.6  17.9  17.9  17.8  17.6  17.4   0.0   0.0
 1975 137    40  16.1  16.5  17.1  17.4  17.6  17.6  17.4  17.3   0.0   0.0
 1975 138    41  15.4  16.0  16.6  17.1  17.4  17.4  17.3  17.2   0.0   0.0
 1975 139    42  15.3  15.8  16.5  17.0  17.3  17.4  17.3  17.2   0.0   0.0
 1975 140    43  15.4  15.9  16.6  17.1  17.4  17.4  17.3  17.2   0.0   0.0
 1975 141    44  16.1  16.6  17.1  17.5  17.6  17.6  17.5  17.3   0.0   0.0
 1975 142    45  17.2  17.5  17.8  18.0  18.0  17.9  17.6  17.4   0.0   0.0
 1975 143    46  18.3  18.4  18.5  18.6  18.5  18.2  17.8  17.6   0.0   0.0
 1975 144    47  19.4  19.4  19.3  19.1  18.9  18.5  18.0  17.7   0.0   0.0
 1975 145    48  19.9  19.8  19.7  19.4  19.1  18.6  18.1  17.8   0.0   0.0
 1975 146    49  20.2  20.1  19.9  19.5  19.2  18.7  18.1  17.8   0.0   0.0
 1975 147    50  20.5  20.3  20.0  19.7  19.3  18.7  18.2  17.8   0.0   0.0
 1975 148    51  21.0  20.8  20.4  20.0  19.5  18.9  18.3  17.9   0.0   0.0
 1975 149    52  21.2  20.9  20.5  20.0  19.6  18.9  18.3  17.9   0.0   0.0
 1975 150    53  21.3  21.0  20.6  20.1  19.6  18.9  18.3  17.9   0.0   0.0
 1975 151    54  20.9  20.6  20.3  19.9  19.4  18.8  18.2  17.9   0.0   0.0
 1975 152    55  19.2  19.2  19.2  19.0  18.8  18.4  18.0  17.7   0.0   0.0
 1975 153    56  17.4  17.6  17.9  18.1  18.1  18.0  17.7  17.5   0.0   0.0
 1975 154    57  15.3  15.8  16.5  17.0  17.3  17.4  17.4  17.3   0.0   0.0
 1975 155    58  13.8  14.5  15.4  16.2  16.7  17.1  17.1  17.1   0.0   0.0
 1975 156    59  12.9  13.7  14.8  15.7  16.3  16.8  17.0  17.0   0.0   0.0
 1975 157    60  13.0  13.8  14.9  15.8  16.4  16.8  17.0  17.0   0.0   0.0
 1975 158    61  12.9  13.7  14.8  15.7  16.3  16.8  17.0  17.0   0.0   0.0
 1975 159    62  13.4  14.1  15.1  16.0  16.5  16.9  17.1  17.1   0.0   0.0
 1975 160    63  13.7  14.4  15.3  16.1  16.6  17.0  17.1  17.1   0.0   0.0
 1975 161    64  13.9  14.6  15.5  16.2  16.7  17.1  17.2  17.1   0.0   0.0
 1975 162    65  13.5  14.2  15.2  16.0  16.6  17.0  17.1  17.1   0.0   0.0
 1975 163    66  14.1  14.7  15.5  16.3  16.8  17.1  17.2  17.2   0.0   0.0
 1975 164    67  14.0  14.6  15.5  16.2  16.7  17.1  17.2  17.1   0.0   0.0
 1975 165    68  13.9  14.5  15.4  16.2  16.7  17.0  17.2  17.1   0.0   0.0
 1975 166    69  14.4  15.0  15.8  16.4  16.9  17.2  17.2  17.2   0.0   0.0
 1975 167    70  15.7  16.1  16.6  17.1  17.3  17.5  17.4  17.3   0.0   0.0
 1975 168    71  16.1  16.5  16.9  17.3  17.5  17.6  17.5  17.4   0.0   0.0
 1975 169    72  17.3  17.5  17.7  17.9  18.0  17.9  17.7  17.5   0.0   0.0
 1975 170    73  18.4  18.4  18.4  18.4  18.4  18.2  17.9  17.7   0.0   0.0
 1975 171    74  19.0  18.9  18.8  18.7  18.6  18.3  18.0  17.7   0.0   0.0
 1975 172    75  18.7  18.7  18.6  18.6  18.5  18.2  17.9  17.7   0.0   0.0
 1975 173    76  18.4  18.4  18.4  18.4  18.3  18.2  17.9  17.7   0.0   0.0
 1975 174    77  17.7  17.8  17.9  18.0  18.0  18.0  17.8  17.6   0.0   0.0
 1975 175    78  16.7  16.9  17.2  17.5  17.7  17.7  17.6  17.5   0.0   0.0
 1975 176    79  15.7  16.1  16.6  17.0  17.3  17.5  17.4  17.4   0.0   0.0
 1975 177    80  16.3  16.6  16.9  17.3  17.5  17.6  17.5  17.4   0.0   0.0
 1975 178    81  17.1  17.3  17.5  17.7  17.8  17.8  17.7  17.5   0.0   0.0
 1975 179    82  16.9  17.1  17.4  17.6  17.7  17.7  17.6  17.5   0.0   0.0
 1975 180    83  16.8  17.0  17.3  17.5  17.7  17.7  17.6  17.5   0.0   0.0
 1975 181    84  16.9  17.1  17.3  17.5  17.7  17.7  17.6  17.5   0.0   0.0
 1975 182    85  16.2  16.4  16.8  17.2  17.4  17.5  17.5  17.4   0.0   0.0
 1975 183    86  15.4  15.7  16.3  16.7  17.1  17.3  17.4  17.3   0.0   0.0
 1975 184    87  15.3  15.6  16.2  16.7  17.0  17.3  17.3  17.3   0.0   0.0
 1975 185    88  15.7  16.0  16.4  16.9  17.2  17.4  17.4  17.3   0.0   0.0
 1975 186    89  15.4  15.7  16.2  16.7  17.0  17.3  17.3  17.3   0.0   0.0
 1975 187    90  14.6  15.0  15.7  16.3  16.7  17.1  17.2  17.2   0.0   0.0
 1975 188    91  14.5  15.0  15.6  16.2  16.7  17.1  17.2  17.2   0.0   0.0
 1975 189    92  15.2  15.5  16.0  16.6  16.9  17.2  17.3  17.3   0.0   0.0
 1975 190    93  15.8  16.0  16.4  16.8  17.1  17.4  17.4  17.3   0.0   0.0
 1975 191    94  17.0  17.1  17.2  17.4  17.6  17.7  17.6  17.5   0.0   0.0
 1975 192    95  17.4  17.5  17.6  17.7  17.8  17.8  17.6  17.5   0.0   0.0
 1975 193    96  16.9  17.0  17.2  17.4  17.5  17.6  17.6  17.5   0.0   0.0
 1975 194    97  16.0  16.2  16.6  16.9  17.2  17.4  17.4  17.4   0.0   0.0
 1975 195    98  15.3  15.6  16.1  16.5  16.9  17.2  17.3  17.3   0.0   0.0
 1975 196    99  13.8  14.3  15.0  15.7  16.3  16.8  17.0  17.1   0.0   0.0
 1975 197   100  12.2  12.9  13.9  14.9  15.6  16.4  16.8  16.9   0.0   0.0
 1975 198   101  11.3  12.1  13.3  14.4  15.3  16.1  16.6  16.8   0.0   0.0
 1975 199   102  10.3  11.2  12.6  13.9  14.8  15.8  16.4  16.7   0.0   0.0
 1975 200   103   9.2  10.2  11.8  13.3  14.4  15.6  16.3  16.5   0.0   0.0
 1975 201   104   9.1  10.1  11.7  13.2  14.4  15.5  16.2  16.5   0.0   0.0
 1975 202   105   9.8  10.8  12.2  13.6  14.6  15.7  16.4  16.6   0.0   0.0
 1975 203   106  10.5  11.3  12.6  13.9  14.9  15.9  16.5  16.7   0.0   0.0
 1975 204   107  11.5  12.3  13.3  14.4  15.3  16.1  16.6  16.8   0.0   0.0
 1975 205   108  11.9  12.6  13.6  14.6  15.4  16.2  16.7  16.8   0.0   0.0
 1975 206   109  11.5  12.3  13.3  14.4  15.2  16.1  16.6  16.8   0.0   0.0
 1975 207   110  11.1  11.8  13.0  14.1  15.0  16.0  16.5  16.7   0.0   0.0
 1975 208   111  10.7  11.5  12.8  14.0  14.9  15.9  16.5  16.7   0.0   0.0
 1975 209   112  10.5  11.3  12.6  13.8  14.8  15.8  16.4  16.7   0.0   0.0
 1975 210   113  10.7  11.5  12.7  13.9  14.8  15.8  16.4  16.7   0.0   0.0
 1975 211   114  10.9  11.7  12.9  14.0  14.9  15.9  16.5  16.7   0.0   0.0
 1975 212   115  12.3  12.9  13.8  14.7  15.4  16.2  16.7  16.8   0.0   0.0
 1975 213   116  14.2  14.5  15.0  15.7  16.1  16.7  17.0  17.1   0.0   0.0
 1975 214   117  14.9  15.1  15.5  16.0  16.4  16.8  17.1  17.1   0.0   0.0
 1975 215   118  14.8  15.1  15.5  16.0  16.4  16.8  17.1  17.1   0.0   0.0
 1975 216   119  15.0  15.2  15.6  16.0  16.4  16.8  17.1  17.1   0.0   0.0
 1975 217   120  14.3  14.6  15.1  15.7  16.1  16.7  17.0  17.0   0.0   0.0
 1975 218   121  12.9  13.3  14.1  14.9  15.6  16.3  16.7  16.9   0.0   0.0
 1975 219   122  11.8  12.4  13.4  14.3  15.1  16.0  16.5  16.7   0.0   0.0
 1975 220   123  11.8  12.4  13.4  14.3  15.1  16.0  16.5  16.7   0.0   0.0
 1975 221   124  12.1  12.7  13.5  14.5  15.2  16.0  16.6  16.8   0.0   0.0
 1975 222   125  12.6  13.0  13.8  14.7  15.4  16.1  16.6  16.8   0.0   0.0
 1975 223   126  12.5  13.0  13.8  14.6  15.3  16.1  16.6  16.8   0.0   0.0
 1975 224   127  13.7  14.0  14.6  15.2  15.8  16.4  16.8  16.9   0.0   0.0
 1975 225   128  14.0  14.3  14.8  15.3  15.9  16.4  16.8  16.9   0.0   0.0
 1975 226   129  13.6  13.9  14.5  15.1  15.7  16.3  16.7  16.9   0.0   0.0
 1975 227   130  13.7  14.0  14.5  15.1  15.7  16.3  16.7  16.9   0.0   0.0
 1975 228   131  14.2  14.5  14.9  15.4  15.9  16.5  16.8  16.9   0.0   0.0
 1975 229   132  14.0  14.2  14.7  15.3  15.8  16.4  16.8  16.9   0.0   0.0
 1975 230   133  14.6  14.7  15.1  15.6  16.0  16.5  16.8  17.0   0.0   0.0
 1975 231   134  16.0  15.9  16.0  16.3  16.5  16.8  17.1  17.1   0.0   0.0
 1975 232   135  16.4  16.3  16.3  16.5  16.7  16.9  17.1  17.2   0.0   0.0
 1975 233   136  17.4  17.1  17.0  17.0  17.0  17.2  17.3  17.3   0.0   0.0
 1975 234   137  17.6  17.4  17.1  17.1  17.1  17.2  17.3  17.3   0.0   0.0
 1975 235   138  17.4  17.2  17.0  17.0  17.0  17.2  17.2  17.3   0.0   0.0
 1975 236   139  17.2  17.0  16.8  16.8  16.9  17.1  17.2  17.2   0.0   0.0
 1975 237   140  16.2  16.1  16.1  16.3  16.5  16.8  17.0  17.1   0.0   0.0
 1975 238   141  14.5  14.6  14.9  15.4  15.8  16.4  16.7  16.9   0.0   0.0
 1975 239   142  13.6  13.8  14.3  14.9  15.4  16.1  16.6  16.8   0.0   0.0
 1975 240   143  13.6  13.8  14.3  14.9  15.4  16.1  16.6  16.8   0.0   0.0
 1975 241   144  13.2  13.5  14.0  14.6  15.2  16.0  16.5  16.7   0.0   0.0
 1975 242   145  13.8  14.0  14.4  15.0  15.5  16.1  16.6  16.8   0.0   0.0
 1975 243   146  14.8  14.9  15.1  15.5  15.9  16.4  16.7  16.9   0.0   0.0
 1975 244   147  16.3  16.1  16.1  16.2  16.4  16.7  16.9  17.0   0.0   0.0
 1975 245   148  17.1  16.9  16.7  16.6  16.7  16.9  17.1  17.1   0.0   0.0
 1975 246   149  18.1  17.7  17.3  17.1  17.1  17.1  17.2  17.2   0.0   0.0
 1975 247   150  18.8  18.3  17.8  17.5  17.3  17.3  17.3  17.3   0.0   0.0
 1975 248   151  19.3  18.7  18.1  17.7  17.5  17.4  17.4  17.4   0.0   0.0
 1975 249   152  17.8  17.5  17.1  16.9  16.9  17.0  17.1  17.2   0.0   0.0
 1975 250   153  16.7  16.5  16.3  16.3  16.5  16.7  16.9  17.0   0.0   0.0
 1975 251   154  15.7  15.6  15.6  15.8  16.1  16.5  16.8  16.9   0.0   0.0
 1975 252   155  15.0  15.0  15.1  15.4  15.8  16.3  16.6  16.8   0.0   0.0
 1975 253   156  14.5  14.6  14.8  15.2  15.6  16.1  16.6  16.8   0.0   0.0
 1975 254   157  15.4  15.3  15.4  15.6  15.9  16.3  16.7  16.8   0.0   0.0
 1975 255   158  15.9  15.8  15.7  15.9  16.1  16.5  16.8  16.9   0.0   0.0
 1975 256   159  16.7  16.4  16.2  16.2  16.4  16.6  16.9  17.0   0.0   0.0
 1975 257   160  16.9  16.6  16.4  16.3  16.4  16.7  16.9  17.0   0.0   0.0
 1975 258   161  17.1  16.8  16.5  16.4  16.5  16.7  16.9  17.0   0.0   0.0
 1975 259   162  17.4  17.1  16.7  16.6  16.6  16.8  16.9  17.0   0.0   0.0
 1975 260   163  17.9  17.5  17.1  16.8  16.8  16.9  17.0  17.1   0.0   0.0
 1975 261   164  17.7  17.3  16.9  16.7  16.7  16.8  17.0  17.0   0.0   0.0
 1975 262   165  18.0  17.5  17.1  16.8  16.8  16.9  17.0  17.1   0.0   0.0
 1975 263   166  18.6  18.1  17.5  17.1  17.0  17.0  17.1  17.1   0.0   0.0
 1975 264   167  18.8  18.3  17.6  17.2  17.1  17.0  17.1  17.1   0.0   0.0
 1975 265   168  18.4  17.9  17.4  17.0  16.9  16.9  17.0  17.1   0.0   0.0
 1975 266   169  19.0  18.4  17.8  17.3  17.1  17.1  17.1  17.1   0.0   0.0
 1975 267   170  18.3  17.8  17.3  17.0  16.8  16.9  17.0  17.0   0.0   0.0
 1975 268   171  17.0  16.7  16.4  16.3  16.3  16.5  16.8  16.9   0.0   0.0
 1975 269   172  16.4  16.1  15.9  15.9  16.1  16.4  16.6  16.8   0.0   0.0
 1975 270   173  16.3  16.1  15.9  15.9  16.0  16.3  16.6  16.8   0.0   0.0
 1975 271   174  16.5  16.2  16.0  15.9  16.1  16.3  16.6  16.8   0.0   0.0
 1975 272   175  16.9  16.6  16.3  16.2  16.2  16.5  16.7  16.8   0.0   0.0
 1975 273   176  18.1  17.7  17.1  16.8  16.7  16.7  16.9  17.0   0.0   0.0
 1975 274   177  19.0  18.4  17.7  17.2  17.0  17.0  17.0  17.1   0.0   0.0
 1975 275   178  18.4  17.9  17.3  16.9  16.8  16.8  16.9  17.0   0.0   0.0
 1975 276   179  17.8  17.3  16.9  16.6  16.5  16.6  16.8  16.9   0.0   0.0
 1975 277   180  18.0  17.5  17.0  16.7  16.6  16.6  16.8  16.9   0.0   0.0
 1975 278   181  17.5  17.1  16.7  16.4  16.4  16.5  16.7  16.8   0.0   0.0
 1975 279   182  17.3  16.9  16.5  16.3  16.3  16.4  16.7  16.8   0.0   0.0
 1975 280   183  19.4  18.7  17.9  17.3  17.1  17.0  17.0  17.0   0.0   0.0
 1975 281   184  19.4  18.7  17.9  17.3  17.1  16.9  17.0  17.0   0.0   0.0
 1975 282   185  19.2  18.5  17.8  17.2  17.0  16.9  16.9  17.0   0.0   0.0
 1975 283   186  19.2  18.6  17.8  17.2  17.0  16.9  16.9  17.0   0.0   0.0
 1975 284   187  19.1  18.5  17.7  17.2  16.9  16.8  16.9  17.0   0.0   0.0
 1975 285   188  17.8  17.3  16.8  16.5  16.4  16.5  16.7  16.8   0.0   0.0
 1975 286   189  18.5  17.9  17.3  16.8  16.7  16.7  16.8  16.9   0.0   0.0
 1975 287   190  19.4  18.7  17.9  17.3  17.0  16.9  16.9  17.0   0.0   0.0
 1975 288   191  20.7  19.9  18.8  18.0  17.5  17.2  17.1  17.1   0.0   0.0
 1975 289   192  22.0  21.0  19.7  18.6  18.0  17.5  17.3  17.3   0.0   0.0
 1975 290   193  23.5  22.3  20.7  19.4  18.6  17.9  17.5  17.4   0.0   0.0
 1975 291   194  24.4  23.0  21.3  19.8  18.9  18.1  17.7  17.5   0.0   0.0
 1975 292   195  24.3  22.9  21.2  19.8  18.9  18.1  17.6  17.5   0.0   0.0
 1975 293   196  23.5  22.3  20.7  19.4  18.6  17.9  17.5  17.4   0.0   0.0
 1975 294   197  22.6  21.5  20.1  18.9  18.2  17.6  17.4  17.3   0.0   0.0

*DSSAT Cropping System Model Ver. 4.0.2.000               Aug 01, 2016; 15:44:49

*RUN   2        : UYMZ                    
 MODEL          : MZCER040 - Maize           
 EXPERIMENT     : UYMZ0105 MZ    late to create DSS                             
 TREATMENT  1   : UYMZ                    

@YEAR DOY   DAS  TS1D  TS2D  TS3D  TS4D  TS5D  TS6D  TS7D  TS8D  TS9D  TS10
 1976 097     0  16.9  17.2  17.5  17.7  17.6  17.4  17.1  17.0   0.0   0.0
 1976 098     1  17.2  17.5  17.8  17.9  17.8  17.5  17.2  17.1   0.0   0.0
 1976 099     2  18.2  18.4  18.5  18.4  18.2  17.8  17.4  17.2   0.0   0.0
 1976 100     3  19.3  19.4  19.2  19.0  18.6  18.1  17.6  17.3   0.0   0.0
 1976 101     4  19.7  19.7  19.5  19.2  18.8  18.2  17.7  17.4   0.0   0.0
 1976 102     5  20.5  20.3  20.0  19.6  19.1  18.4  17.8  17.5   0.0   0.0
 1976 103     6  21.4  21.1  20.7  20.1  19.4  18.6  18.0  17.6   0.0   0.0
 1976 104     7  21.9  21.6  21.0  20.3  19.7  18.8  18.0  17.7   0.0   0.0
 1976 105     8  22.2  21.9  21.2  20.5  19.8  18.9  18.1  17.7   0.0   0.0
 1976 106     9  23.0  22.6  21.8  20.9  20.1  19.1  18.2  17.8   0.0   0.0
 1976 107    10  23.4  22.9  22.1  21.1  20.3  19.2  18.3  17.9   0.0   0.0
 1976 108    11  23.4  22.9  22.0  21.1  20.3  19.2  18.3  17.9   0.0   0.0
 1976 109    12  22.6  22.2  21.5  20.7  20.0  19.0  18.2  17.8   0.0   0.0
 1976 110    13  21.6  21.3  20.8  20.2  19.6  18.8  18.1  17.7   0.0   0.0
 1976 111    14  20.3  20.2  20.0  19.6  19.1  18.5  17.9  17.6   0.0   0.0
 1976 112    15  18.7  18.8  18.9  18.8  18.5  18.1  17.6  17.4   0.0   0.0
 1976 113    16  17.6  17.9  18.1  18.2  18.1  17.8  17.5  17.3   0.0   0.0
 1976 114    17  17.1  17.4  17.8  17.9  17.9  17.7  17.4  17.2   0.0   0.0
 1976 115    18  17.1  17.4  17.8  17.9  17.9  17.7  17.4  17.2   0.0   0.0
 1976 116    19  17.7  18.0  18.2  18.3  18.2  17.9  17.5  17.3   0.0   0.0
 1976 117    20  18.7  18.8  18.9  18.8  18.5  18.1  17.7  17.4   0.0   0.0
 1976 118    21  19.7  19.7  19.5  19.3  18.9  18.4  17.9  17.5   0.0   0.0
 1976 119    22  20.2  20.2  19.9  19.6  19.2  18.5  18.0  17.6   0.0   0.0
 1976 120    23  20.6  20.5  20.2  19.8  19.3  18.6  18.0  17.7   0.0   0.0
 1976 121    24  20.1  20.1  19.9  19.5  19.1  18.5  18.0  17.6   0.0   0.0
 1976 122    25  19.3  19.3  19.3  19.1  18.8  18.3  17.8  17.5   0.0   0.0
 1976 123    26  18.6  18.7  18.8  18.7  18.5  18.1  17.7  17.5   0.0   0.0
 1976 124    27  18.4  18.5  18.7  18.6  18.5  18.1  17.7  17.4   0.0   0.0
 1976 125    28  18.5  18.7  18.8  18.7  18.5  18.1  17.7  17.5   0.0   0.0
 1976 126    29  19.3  19.3  19.3  19.1  18.8  18.3  17.9  17.6   0.0   0.0
 1976 127    30  20.3  20.2  20.0  19.6  19.2  18.6  18.0  17.7   0.0   0.0
 1976 128    31  19.8  19.8  19.7  19.4  19.0  18.5  18.0  17.6   0.0   0.0
 1976 129    32  19.1  19.1  19.1  19.0  18.8  18.3  17.9  17.6   0.0   0.0
 1976 130    33  18.2  18.4  18.5  18.5  18.4  18.1  17.7  17.5   0.0   0.0
 1976 131    34  17.5  17.8  18.1  18.2  18.2  17.9  17.6  17.4   0.0   0.0
 1976 132    35  16.7  17.0  17.5  17.8  17.8  17.7  17.5  17.3   0.0   0.0
 1976 133    36  16.9  17.3  17.7  17.9  17.9  17.8  17.5  17.3   0.0   0.0
 1976 134    37  17.4  17.7  18.0  18.1  18.1  17.9  17.6  17.4   0.0   0.0
 1976 135    38  18.0  18.2  18.4  18.4  18.3  18.1  17.7  17.5   0.0   0.0
 1976 136    39  18.8  18.9  18.9  18.8  18.7  18.3  17.9  17.6   0.0   0.0
 1976 137    40  19.4  19.4  19.4  19.2  18.9  18.4  18.0  17.7   0.0   0.0
 1976 138    41  19.5  19.5  19.4  19.2  18.9  18.5  18.0  17.7   0.0   0.0
 1976 139    42  18.7  18.8  18.9  18.8  18.6  18.3  17.9  17.6   0.0   0.0
 1976 140    43  17.6  17.8  18.1  18.2  18.2  18.0  17.7  17.5   0.0   0.0
 1976 141    44  16.1  16.5  17.0  17.4  17.6  17.6  17.4  17.3   0.0   0.0
 1976 142    45  14.8  15.4  16.2  16.8  17.1  17.3  17.2  17.2   0.0   0.0
 1976 143    46  13.7  14.4  15.4  16.2  16.7  17.0  17.1  17.0   0.0   0.0
 1976 144    47  14.2  14.9  15.7  16.4  16.9  17.1  17.2  17.1   0.0   0.0
 1976 145    48  14.9  15.5  16.2  16.8  17.1  17.3  17.3  17.2   0.0   0.0
 1976 146    49  15.2  15.8  16.4  17.0  17.3  17.4  17.3  17.2   0.0   0.0
 1976 147    50  14.8  15.4  16.2  16.8  17.1  17.3  17.3  17.2   0.0   0.0
 1976 148    51  15.7  16.1  16.7  17.2  17.4  17.5  17.4  17.3   0.0   0.0
 1976 149    52  15.4  15.9  16.5  17.0  17.3  17.4  17.4  17.3   0.0   0.0
 1976 150    53  14.8  15.4  16.2  16.8  17.1  17.3  17.3  17.2   0.0   0.0
 1976 151    54  14.7  15.3  16.0  16.7  17.0  17.3  17.3  17.2   0.0   0.0
 1976 152    55  15.4  15.9  16.5  17.0  17.3  17.5  17.4  17.3   0.0   0.0
 1976 153    56  15.6  16.0  16.6  17.1  17.4  17.5  17.4  17.3   0.0   0.0
 1976 154    57  15.2  15.7  16.4  16.9  17.2  17.4  17.4  17.3   0.0   0.0
 1976 155    58  14.5  15.1  15.9  16.5  17.0  17.2  17.2  17.2   0.0   0.0
 1976 156    59  13.5  14.2  15.2  16.0  16.6  17.0  17.1  17.1   0.0   0.0
 1976 157    60  12.5  13.4  14.5  15.5  16.2  16.7  16.9  17.0   0.0   0.0
 1976 158    61  11.6  12.6  13.9  15.0  15.8  16.5  16.8  16.9   0.0   0.0
 1976 159    62  11.5  12.5  13.8  14.9  15.7  16.4  16.8  16.8   0.0   0.0
 1976 160    63  11.6  12.6  13.9  15.0  15.8  16.5  16.8  16.9   0.0   0.0
 1976 161    64  11.8  12.7  14.0  15.1  15.9  16.5  16.8  16.9   0.0   0.0
 1976 162    65  11.7  12.7  13.9  15.1  15.8  16.5  16.8  16.9   0.0   0.0
 1976 163    66  11.3  12.2  13.6  14.8  15.6  16.4  16.7  16.8   0.0   0.0
 1976 164    67  10.7  11.8  13.2  14.5  15.4  16.2  16.6  16.8   0.0   0.0
 1976 165    68  10.7  11.7  13.2  14.5  15.4  16.2  16.6  16.8   0.0   0.0
 1976 166    69  10.8  11.8  13.2  14.5  15.4  16.2  16.6  16.8   0.0   0.0
 1976 167    70  11.7  12.6  13.9  15.0  15.8  16.5  16.8  16.9   0.0   0.0
 1976 168    71  12.1  12.9  14.1  15.2  15.9  16.6  16.9  16.9   0.0   0.0
 1976 169    72  12.4  13.2  14.3  15.3  16.0  16.6  16.9  17.0   0.0   0.0
 1976 170    73  13.4  14.1  15.0  15.9  16.4  16.9  17.1  17.1   0.0   0.0
 1976 171    74  14.3  14.8  15.6  16.3  16.8  17.1  17.2  17.2   0.0   0.0
 1976 172    75  14.9  15.4  16.0  16.6  17.0  17.3  17.3  17.3   0.0   0.0
 1976 173    76  17.2  17.4  17.6  17.8  17.9  17.9  17.7  17.5   0.0   0.0
 1976 174    77  19.6  19.4  19.2  19.0  18.8  18.5  18.1  17.8   0.0   0.0
 1976 175    78  20.8  20.5  20.0  19.6  19.3  18.8  18.3  17.9   0.0   0.0
 1976 176    79  21.4  21.0  20.4  19.9  19.5  18.9  18.3  18.0   0.0   0.0
 1976 177    80  20.0  19.8  19.5  19.2  18.9  18.5  18.1  17.8   0.0   0.0
 1976 178    81  17.3  17.4  17.6  17.8  17.9  17.9  17.7  17.5   0.0   0.0
 1976 179    82  14.8  15.3  15.9  16.5  16.9  17.2  17.3  17.3   0.0   0.0
 1976 180    83  12.7  13.4  14.4  15.4  16.1  16.7  16.9  17.0   0.0   0.0
 1976 181    84  10.7  11.6  13.0  14.3  15.2  16.1  16.6  16.8   0.0   0.0
 1976 182    85  10.3  11.3  12.8  14.1  15.1  16.0  16.5  16.7   0.0   0.0
 1976 183    86  10.6  11.6  13.0  14.3  15.2  16.1  16.6  16.8   0.0   0.0
 1976 184    87  11.0  11.9  13.2  14.5  15.4  16.2  16.7  16.8   0.0   0.0
 1976 185    88  11.8  12.6  13.8  14.9  15.6  16.4  16.8  16.9   0.0   0.0
 1976 186    89  12.3  13.1  14.1  15.1  15.8  16.5  16.9  17.0   0.0   0.0
 1976 187    90  12.4  13.1  14.2  15.1  15.9  16.5  16.9  17.0   0.0   0.0
 1976 188    91  12.4  13.1  14.2  15.1  15.9  16.5  16.9  17.0   0.0   0.0
 1976 189    92  12.0  12.7  13.8  14.9  15.7  16.4  16.8  16.9   0.0   0.0
 1976 190    93  10.6  11.5  12.9  14.2  15.1  16.0  16.6  16.7   0.0   0.0
 1976 191    94  10.1  11.1  12.5  13.9  14.9  15.9  16.5  16.7   0.0   0.0
 1976 192    95  10.0  11.0  12.5  13.9  14.9  15.9  16.5  16.7   0.0   0.0

*DSSAT Cropping System Model Ver. 4.0.2.000               Aug 01, 2016; 15:44:49

*RUN   3        : UYMZ                    
 MODEL          : MZCER040 - Maize           
 EXPERIMENT     : UYMZ0105 MZ    late to create DSS                             
 TREATMENT  1   : UYMZ                    

@YEAR DOY   DAS  TS1D  TS2D  TS3D  TS4D  TS5D  TS6D  TS7D  TS8D  TS9D  TS10
 1977 097     0  18.6  18.7  18.7  18.6  18.3  17.8  17.4  17.2   0.0   0.0
 1977 098     1  18.3  18.4  18.5  18.4  18.2  17.8  17.4  17.2   0.0   0.0
 1977 099     2  18.1  18.3  18.4  18.3  18.1  17.7  17.4  17.2   0.0   0.0
 1977 100     3  17.3  17.6  17.9  17.9  17.8  17.6  17.3  17.1   0.0   0.0
 1977 101     4  17.5  17.7  18.0  18.0  17.9  17.6  17.3  17.1   0.0   0.0
 1977 102     5  18.7  18.8  18.8  18.7  18.4  17.9  17.5  17.3   0.0   0.0
 1977 103     6  19.1  19.2  19.1  18.9  18.6  18.1  17.6  17.3   0.0   0.0
 1977 104     7  19.7  19.7  19.5  19.2  18.8  18.2  17.7  17.4   0.0   0.0
 1977 105     8  20.9  20.7  20.4  19.8  19.3  18.5  17.9  17.5   0.0   0.0
 1977 106     9  20.9  20.7  20.3  19.8  19.3  18.5  17.9  17.6   0.0   0.0
 1977 107    10  21.0  20.8  20.4  19.9  19.3  18.6  17.9  17.6   0.0   0.0
 1977 108    11  21.3  21.1  20.6  20.0  19.5  18.7  18.0  17.6   0.0   0.0
 1977 109    12  21.5  21.2  20.8  20.1  19.5  18.7  18.0  17.6   0.0   0.0
 1977 110    13  21.3  21.1  20.6  20.0  19.5  18.7  18.0  17.6   0.0   0.0
 1977 111    14  21.7  21.4  20.9  20.3  19.6  18.8  18.1  17.7   0.0   0.0
 1977 112    15  21.8  21.5  21.0  20.3  19.7  18.8  18.1  17.7   0.0   0.0
 1977 113    16  22.0  21.7  21.1  20.4  19.8  18.9  18.1  17.7   0.0   0.0
 1977 114    17  22.1  21.8  21.2  20.5  19.8  18.9  18.2  17.8   0.0   0.0
 1977 115    18  22.6  22.2  21.5  20.8  20.0  19.1  18.3  17.8   0.0   0.0
 1977 116    19  22.8  22.4  21.7  20.9  20.1  19.1  18.3  17.9   0.0   0.0
 1977 117    20  22.8  22.4  21.7  20.9  20.1  19.1  18.3  17.9   0.0   0.0
 1977 118    21  23.1  22.6  21.9  21.0  20.2  19.2  18.4  17.9   0.0   0.0
 1977 119    22  23.5  23.0  22.2  21.2  20.4  19.3  18.4  18.0   0.0   0.0
 1977 120    23  24.0  23.4  22.5  21.5  20.6  19.4  18.5  18.0   0.0   0.0
 1977 121    24  23.2  22.7  22.0  21.1  20.3  19.3  18.4  18.0   0.0   0.0
 1977 122    25  22.1  21.8  21.2  20.5  19.9  19.0  18.3  17.9   0.0   0.0
 1977 123    26  20.9  20.7  20.4  19.9  19.4  18.7  18.1  17.7   0.0   0.0
 1977 124    27  20.4  20.3  20.1  19.7  19.3  18.6  18.0  17.7   0.0   0.0
 1977 125    28  19.0  19.0  19.1  18.9  18.7  18.2  17.8  17.5   0.0   0.0
 1977 126    29  18.5  18.6  18.7  18.7  18.5  18.1  17.7  17.5   0.0   0.0
 1977 127    30  19.2  19.2  19.2  19.0  18.8  18.3  17.9  17.6   0.0   0.0
 1977 128    31  19.3  19.3  19.3  19.1  18.9  18.4  17.9  17.6   0.0   0.0
 1977 129    32  17.9  18.1  18.3  18.4  18.3  18.0  17.7  17.4   0.0   0.0
 1977 130    33  17.4  17.6  18.0  18.1  18.1  17.9  17.6  17.4   0.0   0.0
 1977 131    34  17.5  17.8  18.1  18.2  18.2  17.9  17.6  17.4   0.0   0.0
 1977 132    35  17.3  17.6  17.9  18.1  18.1  17.9  17.6  17.4   0.0   0.0
 1977 133    36  17.7  17.9  18.2  18.3  18.2  18.0  17.7  17.4   0.0   0.0
 1977 134    37  17.4  17.7  18.0  18.1  18.1  17.9  17.6  17.4   0.0   0.0
 1977 135    38  16.9  17.3  17.6  17.9  17.9  17.8  17.5  17.4   0.0   0.0
 1977 136    39  15.8  16.2  16.9  17.3  17.5  17.5  17.4  17.2   0.0   0.0
 1977 137    40  14.4  15.0  15.9  16.6  16.9  17.2  17.1  17.1   0.0   0.0
 1977 138    41  12.9  13.8  14.9  15.8  16.4  16.8  16.9  16.9   0.0   0.0
 1977 139    42  12.9  13.8  14.9  15.8  16.4  16.8  16.9  16.9   0.0   0.0
 1977 140    43  13.6  14.3  15.3  16.1  16.6  17.0  17.0  17.0   0.0   0.0
 1977 141    44  14.3  14.9  15.8  16.5  16.9  17.1  17.1  17.1   0.0   0.0
 1977 142    45  14.0  14.7  15.6  16.4  16.8  17.1  17.1  17.1   0.0   0.0
 1977 143    46  13.9  14.6  15.5  16.3  16.8  17.1  17.1  17.1   0.0   0.0
 1977 144    47  13.8  14.5  15.5  16.3  16.7  17.0  17.1  17.1   0.0   0.0
 1977 145    48  13.5  14.3  15.3  16.1  16.6  17.0  17.1  17.0   0.0   0.0
 1977 146    49  13.3  14.1  15.1  16.0  16.5  16.9  17.0  17.0   0.0   0.0
 1977 147    50  14.0  14.7  15.6  16.3  16.8  17.1  17.1  17.1   0.0   0.0
 1977 148    51  14.6  15.2  16.0  16.6  17.0  17.2  17.2  17.2   0.0   0.0
 1977 149    52  14.5  15.1  15.9  16.6  17.0  17.2  17.2  17.2   0.0   0.0
 1977 150    53  14.3  14.9  15.8  16.5  16.9  17.2  17.2  17.1   0.0   0.0
 1977 151    54  14.4  15.1  15.9  16.5  16.9  17.2  17.2  17.2   0.0   0.0
 1977 152    55  14.4  15.1  15.9  16.5  16.9  17.2  17.2  17.2   0.0   0.0
 1977 153    56  15.0  15.5  16.2  16.8  17.1  17.3  17.3  17.2   0.0   0.0
 1977 154    57  16.5  16.8  17.2  17.6  17.7  17.7  17.6  17.4   0.0   0.0
 1977 155    58  17.2  17.4  17.7  17.9  18.0  17.9  17.7  17.5   0.0   0.0
 1977 156    59  17.3  17.5  17.8  18.0  18.1  17.9  17.7  17.5   0.0   0.0
 1977 157    60  17.5  17.7  17.9  18.1  18.1  18.0  17.7  17.5   0.0   0.0
 1977 158    61  17.2  17.4  17.7  17.9  18.0  17.9  17.7  17.5   0.0   0.0
 1977 159    62  16.5  16.8  17.3  17.6  17.7  17.7  17.6  17.4   0.0   0.0
 1977 160    63  16.8  17.1  17.5  17.7  17.8  17.8  17.6  17.5   0.0   0.0
 1977 161    64  16.9  17.2  17.5  17.8  17.9  17.8  17.6  17.5   0.0   0.0
 1977 162    65  16.4  16.8  17.2  17.5  17.7  17.7  17.6  17.4   0.0   0.0
 1977 163    66  16.4  16.7  17.2  17.5  17.7  17.7  17.6  17.4   0.0   0.0
 1977 164    67  16.7  16.9  17.3  17.6  17.8  17.8  17.6  17.5   0.0   0.0
 1977 165    68  16.6  16.9  17.3  17.6  17.7  17.7  17.6  17.5   0.0   0.0
 1977 166    69  16.3  16.6  17.1  17.4  17.6  17.7  17.5  17.4   0.0   0.0
 1977 167    70  16.5  16.8  17.1  17.5  17.6  17.7  17.6  17.4   0.0   0.0
 1977 168    71  16.3  16.6  17.0  17.4  17.6  17.6  17.5  17.4   0.0   0.0
 1977 169    72  14.9  15.4  16.0  16.6  17.0  17.3  17.3  17.3   0.0   0.0
 1977 170    73  13.9  14.5  15.3  16.1  16.6  17.0  17.1  17.1   0.0   0.0
 1977 171    74  12.9  13.7  14.7  15.6  16.2  16.8  17.0  17.0   0.0   0.0
 1977 172    75  11.9  12.7  13.9  15.0  15.8  16.5  16.8  16.9   0.0   0.0
 1977 173    76  11.0  12.0  13.4  14.6  15.5  16.3  16.7  16.8   0.0   0.0
 1977 174    77  10.6  11.7  13.1  14.4  15.3  16.2  16.6  16.8   0.0   0.0
 1977 175    78   9.9  11.0  12.5  14.0  15.0  16.0  16.5  16.7   0.0   0.0
 1977 176    79  10.2  11.3  12.8  14.1  15.1  16.0  16.5  16.7   0.0   0.0
 1977 177    80  10.8  11.8  13.1  14.4  15.3  16.2  16.6  16.8   0.0   0.0
 1977 178    81  10.7  11.7  13.1  14.4  15.3  16.2  16.6  16.8   0.0   0.0
 1977 179    82  11.5  12.4  13.6  14.8  15.6  16.3  16.7  16.9   0.0   0.0
 1977 180    83  12.4  13.2  14.2  15.2  15.9  16.6  16.9  17.0   0.0   0.0
 1977 181    84  13.9  14.5  15.3  16.0  16.5  17.0  17.1  17.1   0.0   0.0
 1977 182    85  15.8  16.1  16.5  17.0  17.2  17.4  17.4  17.4   0.0   0.0
 1977 183    86  18.0  18.0  18.1  18.1  18.1  18.0  17.8  17.6   0.0   0.0
 1977 184    87  18.9  18.7  18.6  18.5  18.4  18.2  17.9  17.7   0.0   0.0
 1977 185    88  18.2  18.1  18.1  18.1  18.1  18.0  17.8  17.6   0.0   0.0
 1977 186    89  16.7  16.8  17.1  17.4  17.5  17.6  17.6  17.5   0.0   0.0
 1977 187    90  15.4  15.7  16.2  16.7  17.0  17.3  17.3  17.3   0.0   0.0
 1977 188    91  13.1  13.8  14.6  15.5  16.1  16.7  17.0  17.0   0.0   0.0
 1977 189    92  12.5  13.2  14.2  15.1  15.8  16.5  16.9  17.0   0.0   0.0
 1977 190    93  14.1  14.5  15.2  15.9  16.4  16.9  17.1  17.1   0.0   0.0
 1977 191    94  14.8  15.1  15.7  16.3  16.7  17.1  17.2  17.2   0.0   0.0
 1977 192    95  16.2  16.4  16.7  17.0  17.3  17.5  17.5  17.4   0.0   0.0
 1977 193    96  17.3  17.3  17.4  17.6  17.7  17.7  17.6  17.5   0.0   0.0
 1977 194    97  17.0  17.0  17.2  17.4  17.5  17.6  17.6  17.5   0.0   0.0
 1977 195    98  16.1  16.3  16.6  16.9  17.2  17.4  17.4  17.4   0.0   0.0
 1977 196    99  15.4  15.6  16.1  16.5  16.9  17.2  17.3  17.3   0.0   0.0
 1977 197   100  12.9  13.5  14.4  15.2  15.9  16.5  16.9  17.0   0.0   0.0
 1977 198   101  12.2  12.9  13.9  14.9  15.6  16.4  16.8  16.9   0.0   0.0
 1977 199   102  11.9  12.6  13.7  14.7  15.5  16.3  16.7  16.9   0.0   0.0
 1977 200   103  11.2  12.0  13.2  14.3  15.2  16.1  16.6  16.8   0.0   0.0
 1977 201   104  11.1  11.9  13.1  14.2  15.1  16.0  16.6  16.8   0.0   0.0
 1977 202   105  12.1  12.7  13.7  14.7  15.5  16.3  16.7  16.9   0.0   0.0
 1977 203   106  12.7  13.3  14.1  15.0  15.7  16.4  16.8  16.9   0.0   0.0
 1977 204   107  13.1  13.6  14.4  15.2  15.8  16.5  16.9  17.0   0.0   0.0
 1977 205   108  13.5  13.9  14.7  15.4  16.0  16.6  16.9  17.0   0.0   0.0
 1977 206   109  14.2  14.6  15.2  15.8  16.3  16.8  17.0  17.1   0.0   0.0
 1977 207   110  14.3  14.6  15.2  15.8  16.3  16.8  17.0  17.1   0.0   0.0
 1977 208   111  14.0  14.4  15.0  15.6  16.2  16.7  17.0  17.1   0.0   0.0
 1977 209   112  14.4  14.7  15.2  15.8  16.3  16.8  17.0  17.1   0.0   0.0
 1977 210   113  15.1  15.3  15.7  16.1  16.5  16.9  17.1  17.2   0.0   0.0
 1977 211   114  14.9  15.2  15.6  16.1  16.5  16.9  17.1  17.2   0.0   0.0
 1977 212   115  14.6  14.8  15.3  15.9  16.3  16.8  17.0  17.1   0.0   0.0
 1977 213   116  13.6  14.0  14.7  15.4  15.9  16.5  16.9  17.0   0.0   0.0
 1977 214   117  12.8  13.3  14.1  14.9  15.6  16.3  16.7  16.9   0.0   0.0
 1977 215   118  11.9  12.5  13.5  14.5  15.2  16.1  16.6  16.8   0.0   0.0
 1977 216   119  12.0  12.6  13.5  14.5  15.2  16.1  16.6  16.8   0.0   0.0
 1977 217   120  12.0  12.6  13.5  14.5  15.2  16.1  16.6  16.8   0.0   0.0
 1977 218   121  12.6  13.1  13.9  14.8  15.5  16.2  16.7  16.8   0.0   0.0
 1977 219   122  13.4  13.8  14.4  15.1  15.7  16.4  16.8  16.9   0.0   0.0
 1977 220   123  14.0  14.3  14.8  15.4  15.9  16.5  16.9  17.0   0.0   0.0
 1977 221   124  13.8  14.1  14.7  15.3  15.8  16.4  16.8  16.9   0.0   0.0
 1977 222   125  13.9  14.2  14.7  15.3  15.9  16.5  16.8  17.0   0.0   0.0
 1977 223   126  14.3  14.5  15.0  15.5  16.0  16.5  16.9  17.0   0.0   0.0
 1977 224   127  14.2  14.5  14.9  15.5  16.0  16.5  16.9  17.0   0.0   0.0
 1977 225   128  13.8  14.1  14.7  15.3  15.8  16.4  16.8  16.9   0.0   0.0
 1977 226   129  13.7  14.0  14.6  15.2  15.7  16.3  16.7  16.9   0.0   0.0
 1977 227   130  13.7  14.0  14.6  15.2  15.7  16.3  16.7  16.9   0.0   0.0
 1977 228   131  13.4  13.7  14.3  15.0  15.6  16.2  16.7  16.9   0.0   0.0
 1977 229   132  13.6  13.9  14.4  15.1  15.6  16.3  16.7  16.9   0.0   0.0
 1977 230   133  13.4  13.8  14.3  15.0  15.6  16.2  16.7  16.8   0.0   0.0
 1977 231   134  13.8  14.1  14.6  15.2  15.7  16.3  16.7  16.9   0.0   0.0
 1977 232   135  14.6  14.8  15.1  15.6  16.0  16.5  16.8  17.0   0.0   0.0
 1977 233   136  15.7  15.7  15.8  16.1  16.4  16.8  17.0  17.1   0.0   0.0
 1977 234   137  16.0  16.0  16.0  16.3  16.5  16.8  17.0  17.1   0.0   0.0
 1977 235   138  16.6  16.5  16.4  16.5  16.7  16.9  17.1  17.2   0.0   0.0
 1977 236   139  16.9  16.7  16.6  16.7  16.8  17.0  17.1  17.2   0.0   0.0
 1977 237   140  17.2  17.0  16.8  16.8  16.9  17.1  17.2  17.2   0.0   0.0
 1977 238   141  17.4  17.1  16.9  16.9  17.0  17.1  17.2  17.2   0.0   0.0
 1977 239   142  16.9  16.7  16.6  16.6  16.8  17.0  17.1  17.2   0.0   0.0
 1977 240   143  17.4  17.1  16.9  16.8  16.9  17.1  17.2  17.2   0.0   0.0
 1977 241   144  17.6  17.3  17.0  16.9  17.0  17.1  17.2  17.2   0.0   0.0
 1977 242   145  17.9  17.5  17.2  17.1  17.1  17.2  17.2  17.2   0.0   0.0
 1977 243   146  16.9  16.7  16.5  16.5  16.7  16.9  17.1  17.1   0.0   0.0
 1977 244   147  16.6  16.4  16.3  16.4  16.5  16.8  17.0  17.1   0.0   0.0
 1977 245   148  16.1  16.0  16.0  16.1  16.3  16.7  16.9  17.0   0.0   0.0
 1977 246   149  16.2  16.0  16.0  16.1  16.3  16.7  16.9  17.0   0.0   0.0
 1977 247   150  15.3  15.3  15.4  15.7  16.0  16.4  16.8  16.9   0.0   0.0
 1977 248   151  15.5  15.5  15.5  15.8  16.0  16.5  16.8  16.9   0.0   0.0
 1977 249   152  16.0  15.9  15.9  16.0  16.2  16.6  16.9  17.0   0.0   0.0
 1977 250   153  16.9  16.7  16.5  16.5  16.6  16.8  17.0  17.1   0.0   0.0
 1977 251   154  17.9  17.5  17.2  17.0  16.9  17.0  17.1  17.2   0.0   0.0
 1977 252   155  20.1  19.4  18.6  18.1  17.8  17.6  17.5  17.4   0.0   0.0
 1977 253   156  20.5  19.7  18.9  18.2  17.9  17.6  17.5  17.4   0.0   0.0
 1977 254   157  20.7  19.9  19.0  18.4  18.0  17.7  17.5  17.5   0.0   0.0
 1977 255   158  20.8  20.1  19.1  18.4  18.0  17.7  17.5  17.5   0.0   0.0
 1977 256   159  19.8  19.1  18.4  17.9  17.6  17.4  17.4  17.3   0.0   0.0
 1977 257   160  17.9  17.5  17.0  16.8  16.8  16.9  17.0  17.1   0.0   0.0
 1977 258   161  17.6  17.2  16.9  16.7  16.7  16.8  17.0  17.1   0.0   0.0
 1977 259   162  17.9  17.5  17.1  16.8  16.8  16.9  17.0  17.1   0.0   0.0
 1977 260   163  17.4  17.0  16.7  16.5  16.6  16.7  16.9  17.0   0.0   0.0
 1977 261   164  17.5  17.2  16.8  16.6  16.6  16.8  16.9  17.0   0.0   0.0
 1977 262   165  17.9  17.5  17.0  16.8  16.7  16.8  17.0  17.0   0.0   0.0
 1977 263   166  18.8  18.3  17.7  17.3  17.1  17.1  17.1  17.1   0.0   0.0
 1977 264   167  19.7  19.0  18.2  17.7  17.4  17.3  17.2  17.2   0.0   0.0
 1977 265   168  21.4  20.5  19.4  18.6  18.1  17.7  17.5  17.4   0.0   0.0
 1977 266   169  21.5  20.6  19.5  18.6  18.1  17.7  17.5  17.4   0.0   0.0
 1977 267   170  21.2  20.4  19.3  18.5  18.0  17.6  17.5  17.4   0.0   0.0
 1977 268   171  21.1  20.2  19.2  18.4  17.9  17.6  17.4  17.4   0.0   0.0
 1977 269   172  21.4  20.5  19.4  18.5  18.0  17.6  17.5  17.4   0.0   0.0
 1977 270   173  21.5  20.6  19.4  18.5  18.0  17.6  17.5  17.4   0.0   0.0
 1977 271   174  20.9  20.1  19.0  18.3  17.8  17.5  17.4  17.3   0.0   0.0
 1977 272   175  20.8  20.0  19.0  18.2  17.7  17.4  17.3  17.3   0.0   0.0
 1977 273   176  20.2  19.4  18.5  17.8  17.5  17.3  17.2  17.2   0.0   0.0
 1977 274   177  19.1  18.5  17.7  17.3  17.0  17.0  17.0  17.1   0.0   0.0
 1977 275   178  17.7  17.3  16.8  16.6  16.5  16.6  16.8  16.9   0.0   0.0
 1977 276   179  18.6  18.0  17.4  17.0  16.8  16.8  16.9  17.0   0.0   0.0
 1977 277   180  19.4  18.8  18.0  17.4  17.1  17.0  17.0  17.1   0.0   0.0
 1977 278   181  20.4  19.6  18.6  17.9  17.5  17.2  17.2  17.2   0.0   0.0
 1977 279   182  22.0  21.0  19.7  18.7  18.1  17.6  17.4  17.4   0.0   0.0
 1977 280   183  24.0  22.8  21.1  19.8  18.9  18.1  17.7  17.6   0.0   0.0
 1977 281   184  24.4  23.1  21.4  19.9  19.0  18.2  17.8  17.6   0.0   0.0
 1977 282   185  23.9  22.6  21.0  19.7  18.8  18.1  17.7  17.5   0.0   0.0
 1977 283   186  22.4  21.3  20.0  18.9  18.2  17.7  17.4  17.4   0.0   0.0
 1977 284   187  19.6  18.9  18.0  17.4  17.1  17.0  17.0  17.0   0.0   0.0
 1977 285   188  16.7  16.4  16.0  15.9  16.0  16.2  16.5  16.7   0.0   0.0
 1977 286   189  16.4  16.1  15.8  15.8  15.8  16.1  16.4  16.6   0.0   0.0
 1977 287   190  16.5  16.2  15.9  15.8  15.9  16.1  16.4  16.6   0.0   0.0
 1977 288   191  17.0  16.7  16.3  16.1  16.1  16.3  16.5  16.7   0.0   0.0
 1977 289   192  18.1  17.6  17.0  16.7  16.5  16.5  16.7  16.8   0.0   0.0
 1977 290   193  19.2  18.6  17.8  17.2  16.9  16.8  16.9  16.9   0.0   0.0
 1977 291   194  19.7  19.0  18.1  17.5  17.1  16.9  16.9  17.0   0.0   0.0
 1977 292   195  21.0  20.1  19.0  18.1  17.6  17.2  17.1  17.1   0.0   0.0
 1977 293   196  22.9  21.7  20.3  19.1  18.3  17.7  17.4  17.3   0.0   0.0
 1977 294   197  25.1  23.6  21.8  20.2  19.2  18.2  17.8  17.6   0.0   0.0
 1977 295   198  26.7  25.0  22.9  21.0  19.8  18.6  18.0  17.7   0.0   0.0
 1977 296   199  27.0  25.3  23.1  21.2  19.9  18.7  18.1  17.8   0.0   0.0
 1977 297   200  26.6  24.9  22.8  21.0  19.7  18.6  18.0  17.7   0.0   0.0
 1977 298   201  25.8  24.3  22.3  20.6  19.4  18.4  17.8  17.6   0.0   0.0
 1977 299   202  23.8  22.5  20.9  19.5  18.6  17.9  17.5  17.4   0.0   0.0
 1977 300   203  22.5  21.4  20.0  18.8  18.1  17.5  17.3  17.2   0.0   0.0
 1977 301   204  22.0  21.0  19.7  18.6  17.9  17.4  17.2  17.1   0.0   0.0
 1977 302   205  22.4  21.3  19.9  18.8  18.1  17.5  17.2  17.2   0.0   0.0
 1977 303   206  23.8  22.5  20.9  19.5  18.6  17.8  17.5  17.3   0.0   0.0
 1977 304   207  24.8  23.4  21.6  20.0  19.0  18.1  17.6  17.4   0.0   0.0
 1977 305   208  24.5  23.2  21.4  19.9  18.9  18.0  17.6  17.4   0.0   0.0
 1977 306   209  24.9  23.5  21.6  20.1  19.0  18.1  17.6  17.4   0.0   0.0
 1977 307   210  23.9  22.6  21.0  19.6  18.6  17.8  17.5  17.3   0.0   0.0
 1977 308   211  22.4  21.3  19.9  18.7  18.0  17.4  17.2  17.1   0.0   0.0
 1977 309   212  21.8  20.8  19.5  18.4  17.8  17.3  17.1  17.1   0.0   0.0
 1977 310   213  22.1  21.0  19.7  18.6  17.9  17.4  17.1  17.1   0.0   0.0
 1977 311   214  22.1  21.1  19.7  18.6  17.9  17.4  17.1  17.1   0.0   0.0
 1977 312   215  23.1  21.9  20.4  19.1  18.3  17.6  17.3  17.2   0.0   0.0
 1977 313   216  23.0  21.9  20.3  19.1  18.2  17.6  17.3  17.2   0.0   0.0
 1977 314   217  22.2  21.2  19.8  18.7  17.9  17.4  17.1  17.1   0.0   0.0
 1977 315   218  22.5  21.4  20.0  18.8  18.0  17.4  17.2  17.1   0.0   0.0
 1977 316   219  21.6  20.6  19.4  18.3  17.7  17.2  17.0  17.0   0.0   0.0
 1977 317   220  20.8  20.0  18.9  18.0  17.4  17.0  16.9  16.9   0.0   0.0
 1977 318   221  21.5  20.5  19.3  18.3  17.7  17.2  17.0  17.0   0.0   0.0
 1977 319   222  23.4  22.2  20.6  19.3  18.4  17.6  17.3  17.2   0.0   0.0
 1977 320   223  24.7  23.4  21.5  20.0  18.9  18.0  17.5  17.3   0.0   0.0
 1977 321   224  26.9  25.3  23.0  21.1  19.8  18.5  17.8  17.6   0.0   0.0
 1977 322   225  29.1  27.2  24.6  22.2  20.6  19.1  18.2  17.8   0.0   0.0
 1977 323   226  29.1  27.1  24.5  22.2  20.6  19.1  18.2  17.8   0.0   0.0
 1977 324   227  28.5  26.7  24.2  21.9  20.4  18.9  18.1  17.7   0.0   0.0
 1977 325   228  26.2  24.7  22.6  20.7  19.5  18.3  17.7  17.5   0.0   0.0
 1977 326   229  24.8  23.4  21.6  20.0  18.9  18.0  17.5  17.3   0.0   0.0
 1977 327   230  22.9  21.8  20.3  19.1  18.2  17.5  17.2  17.1   0.0   0.0
 1977 328   231  22.9  21.8  20.3  19.0  18.2  17.5  17.2  17.1   0.0   0.0

*DSSAT Cropping System Model Ver. 4.0.2.000               Aug 01, 2016; 15:44:49

*RUN   4        : UYMZ                    
 MODEL          : MZCER040 - Maize           
 EXPERIMENT     : UYMZ0105 MZ    late to create DSS                             
 TREATMENT  1   : UYMZ                    

@YEAR DOY   DAS  TS1D  TS2D  TS3D  TS4D  TS5D  TS6D  TS7D  TS8D  TS9D  TS10
 1978 097     0  18.9  19.0  19.0  18.7  18.4  17.9  17.5  17.2   0.0   0.0
 1978 098     1  19.3  19.3  19.2  18.9  18.6  18.0  17.5  17.3   0.0   0.0
 1978 099     2  19.0  19.1  19.0  18.8  18.5  18.0  17.5  17.3   0.0   0.0
 1978 100     3  19.2  19.3  19.2  18.9  18.6  18.0  17.6  17.3   0.0   0.0
 1978 101     4  20.0  19.9  19.7  19.3  18.9  18.3  17.7  17.4   0.0   0.0
 1978 102     5  20.9  20.7  20.3  19.8  19.3  18.5  17.9  17.5   0.0   0.0
 1978 103     6  21.2  21.0  20.6  20.0  19.4  18.6  17.9  17.6   0.0   0.0
 1978 104     7  22.5  22.1  21.4  20.6  19.9  18.9  18.1  17.7   0.0   0.0
 1978 105     8  22.7  22.3  21.6  20.8  20.0  19.0  18.2  17.8   0.0   0.0
 1978 106     9  22.6  22.2  21.5  20.7  19.9  19.0  18.2  17.8   0.0   0.0
 1978 107    10  22.7  22.3  21.6  20.8  20.0  19.0  18.2  17.8   0.0   0.0
 1978 108    11  22.6  22.2  21.5  20.7  20.0  19.0  18.2  17.8   0.0   0.0
 1978 109    12  21.9  21.6  21.0  20.3  19.7  18.8  18.1  17.7   0.0   0.0
 1978 110    13  21.5  21.3  20.8  20.2  19.6  18.7  18.0  17.7   0.0   0.0
 1978 111    14  21.1  20.9  20.5  19.9  19.4  18.6  18.0  17.6   0.0   0.0
 1978 112    15  19.6  19.6  19.5  19.2  18.9  18.3  17.8  17.5   0.0   0.0
 1978 113    16  18.5  18.6  18.7  18.6  18.4  18.0  17.6  17.4   0.0   0.0
 1978 114    17  18.0  18.2  18.4  18.4  18.2  17.9  17.5  17.3   0.0   0.0
 1978 115    18  17.6  17.9  18.1  18.2  18.1  17.8  17.5  17.3   0.0   0.0
 1978 116    19  17.7  18.0  18.2  18.3  18.2  17.9  17.5  17.3   0.0   0.0
 1978 117    20  18.4  18.5  18.6  18.6  18.4  18.0  17.6  17.4   0.0   0.0
 1978 118    21  18.4  18.5  18.6  18.6  18.4  18.0  17.6  17.4   0.0   0.0
 1978 119    22  18.1  18.3  18.5  18.5  18.3  18.0  17.6  17.4   0.0   0.0
 1978 120    23  18.1  18.3  18.5  18.5  18.3  18.0  17.6  17.4   0.0   0.0
 1978 121    24  17.8  18.0  18.3  18.3  18.2  17.9  17.6  17.3   0.0   0.0
 1978 122    25  17.7  17.9  18.2  18.3  18.2  17.9  17.6  17.3   0.0   0.0
 1978 123    26  18.3  18.5  18.6  18.6  18.4  18.1  17.7  17.4   0.0   0.0
 1978 124    27  18.6  18.8  18.8  18.8  18.6  18.2  17.7  17.5   0.0   0.0
 1978 125    28  18.4  18.5  18.7  18.6  18.5  18.1  17.7  17.4   0.0   0.0
 1978 126    29  18.4  18.6  18.7  18.7  18.5  18.1  17.7  17.5   0.0   0.0
 1978 127    30  18.2  18.4  18.6  18.5  18.4  18.1  17.7  17.4   0.0   0.0
 1978 128    31  18.8  18.9  19.0  18.8  18.6  18.2  17.8  17.5   0.0   0.0
 1978 129    32  20.0  19.9  19.8  19.5  19.1  18.5  18.0  17.6   0.0   0.0
 1978 130    33  21.6  21.3  20.9  20.3  19.7  18.9  18.2  17.8   0.0   0.0
 1978 131    34  21.9  21.6  21.1  20.4  19.8  19.0  18.3  17.9   0.0   0.0
 1978 132    35  22.3  21.9  21.3  20.6  20.0  19.1  18.4  17.9   0.0   0.0
 1978 133    36  22.0  21.7  21.1  20.5  19.9  19.1  18.3  17.9   0.0   0.0
 1978 134    37  20.4  20.3  20.0  19.7  19.3  18.7  18.1  17.7   0.0   0.0
 1978 135    38  18.8  18.9  18.9  18.9  18.7  18.3  17.8  17.6   0.0   0.0
 1978 136    39  17.6  17.8  18.1  18.2  18.2  18.0  17.7  17.5   0.0   0.0
 1978 137    40  16.3  16.7  17.2  17.6  17.7  17.7  17.5  17.3   0.0   0.0
 1978 138    41  15.0  15.6  16.3  16.9  17.2  17.3  17.2  17.2   0.0   0.0
 1978 139    42  15.1  15.7  16.4  16.9  17.2  17.4  17.3  17.2   0.0   0.0
 1978 140    43  14.9  15.5  16.2  16.8  17.1  17.3  17.2  17.2   0.0   0.0
 1978 141    44  14.8  15.4  16.2  16.8  17.1  17.3  17.2  17.1   0.0   0.0
 1978 142    45  14.4  15.1  15.9  16.6  17.0  17.2  17.2  17.1   0.0   0.0
 1978 143    46  14.4  15.1  15.9  16.6  17.0  17.2  17.2  17.1   0.0   0.0
 1978 144    47  13.5  14.3  15.3  16.1  16.6  17.0  17.0  17.0   0.0   0.0
 1978 145    48  13.0  13.8  14.9  15.8  16.4  16.8  17.0  17.0   0.0   0.0
 1978 146    49  12.7  13.6  14.7  15.7  16.3  16.8  16.9  16.9   0.0   0.0
 1978 147    50  12.8  13.7  14.8  15.7  16.3  16.8  16.9  17.0   0.0   0.0
 1978 148    51  12.7  13.6  14.7  15.7  16.3  16.8  16.9  16.9   0.0   0.0
 1978 149    52  12.4  13.3  14.5  15.5  16.2  16.7  16.9  16.9   0.0   0.0
 1978 150    53  11.9  12.9  14.2  15.3  16.0  16.6  16.8  16.9   0.0   0.0
 1978 151    54  11.8  12.8  14.1  15.2  15.9  16.5  16.8  16.9   0.0   0.0
 1978 152    55  11.6  12.6  14.0  15.1  15.9  16.5  16.8  16.8   0.0   0.0
 1978 153    56  11.9  12.8  14.1  15.2  16.0  16.6  16.8  16.9   0.0   0.0
 1978 154    57  12.5  13.4  14.6  15.6  16.2  16.7  16.9  16.9   0.0   0.0
 1978 155    58  12.9  13.7  14.8  15.7  16.3  16.8  17.0  17.0   0.0   0.0
 1978 156    59  12.6  13.5  14.6  15.6  16.2  16.8  16.9  17.0   0.0   0.0
 1978 157    60  12.3  13.2  14.4  15.4  16.1  16.7  16.9  16.9   0.0   0.0
 1978 158    61  11.6  12.6  13.9  15.1  15.8  16.5  16.8  16.9   0.0   0.0
 1978 159    62  11.2  12.2  13.6  14.8  15.7  16.4  16.7  16.8   0.0   0.0
 1978 160    63  11.1  12.1  13.5  14.8  15.6  16.4  16.7  16.8   0.0   0.0
 1978 161    64  11.1  12.1  13.5  14.8  15.6  16.3  16.7  16.8   0.0   0.0
 1978 162    65  10.9  12.0  13.4  14.7  15.6  16.3  16.7  16.8   0.0   0.0
 1978 163    66  11.7  12.7  14.0  15.1  15.9  16.5  16.8  16.9   0.0   0.0

*DSSAT Cropping System Model Ver. 4.0.2.000               Aug 01, 2016; 15:44:49

*RUN   5        : UYMZ                    
 MODEL          : MZCER040 - Maize           
 EXPERIMENT     : UYMZ0105 MZ    late to create DSS                             
 TREATMENT  1   : UYMZ                    

@YEAR DOY   DAS  TS1D  TS2D  TS3D  TS4D  TS5D  TS6D  TS7D  TS8D  TS9D  TS10
 1979 097     0  20.3  20.2  19.9  19.4  19.0  18.3  17.7  17.4   0.0   0.0
 1979 098     1  20.6  20.4  20.1  19.6  19.1  18.3  17.7  17.4   0.0   0.0
 1979 099     2  20.5  20.4  20.1  19.6  19.1  18.3  17.7  17.4   0.0   0.0
 1979 100     3  20.8  20.7  20.3  19.7  19.2  18.4  17.8  17.5   0.0   0.0
 1979 101     4  20.9  20.7  20.3  19.8  19.2  18.5  17.9  17.5   0.0   0.0
 1979 102     5  20.8  20.6  20.3  19.8  19.2  18.5  17.8  17.5   0.0   0.0
 1979 103     6  20.7  20.5  20.2  19.7  19.2  18.5  17.8  17.5   0.0   0.0
 1979 104     7  20.4  20.3  20.0  19.5  19.1  18.4  17.8  17.5   0.0   0.0
 1979 105     8  20.5  20.4  20.1  19.6  19.1  18.4  17.8  17.5   0.0   0.0
 1979 106     9  21.5  21.2  20.7  20.1  19.5  18.7  18.0  17.6   0.0   0.0
 1979 107    10  21.6  21.4  20.9  20.2  19.6  18.7  18.0  17.7   0.0   0.0
 1979 108    11  22.2  21.8  21.2  20.5  19.8  18.9  18.1  17.7   0.0   0.0
 1979 109    12  23.5  23.0  22.1  21.2  20.3  19.2  18.4  17.9   0.0   0.0
 1979 110    13  23.8  23.3  22.4  21.4  20.5  19.3  18.4  17.9   0.0   0.0
 1979 111    14  22.9  22.5  21.8  20.9  20.1  19.1  18.3  17.8   0.0   0.0
 1979 112    15  23.1  22.6  21.8  21.0  20.2  19.1  18.3  17.9   0.0   0.0
 1979 113    16  22.3  21.9  21.3  20.6  19.9  19.0  18.2  17.8   0.0   0.0
 1979 114    17  21.0  20.8  20.5  19.9  19.4  18.7  18.0  17.6   0.0   0.0
 1979 115    18  20.2  20.1  19.9  19.5  19.1  18.5  17.9  17.6   0.0   0.0
 1979 116    19  20.1  20.1  19.9  19.5  19.1  18.5  17.9  17.6   0.0   0.0
 1979 117    20  19.8  19.8  19.6  19.3  19.0  18.4  17.8  17.5   0.0   0.0
 1979 118    21  20.1  20.1  19.9  19.5  19.1  18.5  17.9  17.6   0.0   0.0
 1979 119    22  20.7  20.6  20.3  19.8  19.3  18.6  18.0  17.7   0.0   0.0
 1979 120    23  19.9  19.9  19.7  19.4  19.0  18.4  17.9  17.6   0.0   0.0
 1979 121    24  19.0  19.0  19.1  18.9  18.7  18.2  17.7  17.5   0.0   0.0
 1979 122    25  18.2  18.4  18.5  18.5  18.4  18.0  17.6  17.4   0.0   0.0
 1979 123    26  17.8  18.1  18.3  18.3  18.2  17.9  17.6  17.4   0.0   0.0
 1979 124    27  16.7  17.1  17.5  17.7  17.8  17.7  17.4  17.2   0.0   0.0
 1979 125    28  16.9  17.2  17.6  17.9  17.9  17.7  17.5  17.3   0.0   0.0
 1979 126    29  17.7  18.0  18.2  18.3  18.2  17.9  17.6  17.4   0.0   0.0
 1979 127    30  18.4  18.6  18.7  18.7  18.5  18.1  17.7  17.5   0.0   0.0
 1979 128    31  17.9  18.1  18.3  18.4  18.3  18.0  17.6  17.4   0.0   0.0
 1979 129    32  18.4  18.5  18.7  18.6  18.5  18.1  17.7  17.5   0.0   0.0
 1979 130    33  18.7  18.8  18.9  18.8  18.6  18.2  17.8  17.5   0.0   0.0
 1979 131    34  18.8  18.9  19.0  18.9  18.6  18.2  17.8  17.5   0.0   0.0
 1979 132    35  18.7  18.8  18.9  18.8  18.6  18.2  17.8  17.5   0.0   0.0
 1979 133    36  20.2  20.1  19.9  19.6  19.2  18.6  18.0  17.7   0.0   0.0
 1979 134    37  20.4  20.2  20.0  19.6  19.3  18.7  18.1  17.7   0.0   0.0
 1979 135    38  20.5  20.4  20.1  19.7  19.3  18.7  18.1  17.8   0.0   0.0
 1979 136    39  20.4  20.3  20.0  19.7  19.3  18.7  18.1  17.8   0.0   0.0
 1979 137    40  19.6  19.6  19.5  19.2  19.0  18.5  18.0  17.7   0.0   0.0
 1979 138    41  18.0  18.2  18.4  18.5  18.4  18.1  17.7  17.5   0.0   0.0
 1979 139    42  17.7  17.9  18.2  18.3  18.2  18.0  17.7  17.5   0.0   0.0
 1979 140    43  17.9  18.1  18.3  18.4  18.3  18.1  17.7  17.5   0.0   0.0
 1979 141    44  18.0  18.2  18.4  18.4  18.4  18.1  17.8  17.5   0.0   0.0
 1979 142    45  17.9  18.1  18.3  18.4  18.3  18.1  17.7  17.5   0.0   0.0
 1979 143    46  17.3  17.6  17.9  18.1  18.1  17.9  17.6  17.4   0.0   0.0
 1979 144    47  16.9  17.2  17.6  17.8  17.9  17.8  17.6  17.4   0.0   0.0
 1979 145    48  16.4  16.8  17.3  17.6  17.7  17.7  17.5  17.4   0.0   0.0
 1979 146    49  15.2  15.7  16.4  17.0  17.3  17.4  17.3  17.2   0.0   0.0
 1979 147    50  14.9  15.5  16.3  16.8  17.2  17.3  17.3  17.2   0.0   0.0
 1979 148    51  15.0  15.6  16.3  16.9  17.2  17.4  17.3  17.2   0.0   0.0
 1979 149    52  14.2  14.9  15.7  16.4  16.9  17.2  17.2  17.1   0.0   0.0
 1979 150    53  12.2  13.2  14.4  15.4  16.1  16.7  16.9  16.9   0.0   0.0
 1979 151    54  11.6  12.6  14.0  15.1  15.9  16.5  16.8  16.8   0.0   0.0
 1979 152    55  11.9  12.9  14.2  15.3  16.0  16.6  16.8  16.9   0.0   0.0
 1979 153    56  12.8  13.6  14.8  15.7  16.3  16.8  17.0  17.0   0.0   0.0
 1979 154    57  14.1  14.7  15.6  16.4  16.8  17.1  17.2  17.1   0.0   0.0
 1979 155    58  15.5  16.0  16.6  17.1  17.4  17.5  17.4  17.3   0.0   0.0
 1979 156    59  15.8  16.2  16.8  17.2  17.5  17.5  17.4  17.3   0.0   0.0
 1979 157    60  15.0  15.6  16.2  16.8  17.2  17.4  17.3  17.2   0.0   0.0
 1979 158    61  13.9  14.6  15.5  16.3  16.7  17.1  17.2  17.1   0.0   0.0
 1979 159    62  13.2  14.0  15.0  15.9  16.4  16.9  17.0  17.0   0.0   0.0

*DSSAT Cropping System Model Ver. 4.0.2.000               Aug 01, 2016; 15:44:49

*RUN   6        : UYMZ                    
 MODEL          : MZCER040 - Maize           
 EXPERIMENT     : UYMZ0105 MZ    late to create DSS                             
 TREATMENT  1   : UYMZ                    

@YEAR DOY   DAS  TS1D  TS2D  TS3D  TS4D  TS5D  TS6D  TS7D  TS8D  TS9D  TS10
 1980 097     0  26.2  25.3  23.9  22.4  21.2  19.7  18.6  18.0   0.0   0.0
 1980 098     1  26.1  25.2  23.8  22.4  21.2  19.7  18.6  18.0   0.0   0.0
 1980 099     2  25.6  24.7  23.5  22.1  21.0  19.6  18.5  18.0   0.0   0.0
 1980 100     3  25.5  24.7  23.4  22.1  21.0  19.6  18.5  18.0   0.0   0.0
 1980 101     4  24.8  24.1  23.0  21.8  20.8  19.5  18.5  18.0   0.0   0.0
 1980 102     5  24.1  23.5  22.5  21.4  20.5  19.3  18.4  17.9   0.0   0.0
 1980 103     6  22.3  22.0  21.3  20.6  19.9  18.9  18.1  17.7   0.0   0.0
 1980 104     7  21.0  20.8  20.4  19.9  19.4  18.6  17.9  17.6   0.0   0.0
 1980 105     8  19.0  19.1  19.1  18.9  18.6  18.1  17.6  17.4   0.0   0.0
 1980 106     9  17.9  18.1  18.3  18.3  18.1  17.8  17.4  17.2   0.0   0.0
 1980 107    10  17.1  17.5  17.8  17.9  17.9  17.6  17.3  17.2   0.0   0.0
 1980 108    11  17.7  17.9  18.1  18.2  18.1  17.8  17.4  17.2   0.0   0.0
 1980 109    12  18.5  18.6  18.7  18.6  18.4  18.0  17.6  17.3   0.0   0.0
 1980 110    13  19.2  19.3  19.2  19.0  18.7  18.2  17.7  17.4   0.0   0.0
 1980 111    14  20.0  19.9  19.7  19.4  19.0  18.4  17.8  17.5   0.0   0.0
 1980 112    15  21.5  21.3  20.8  20.2  19.6  18.8  18.1  17.7   0.0   0.0
 1980 113    16  23.3  22.9  22.1  21.2  20.3  19.3  18.4  18.0   0.0   0.0
 1980 114    17  24.9  24.2  23.1  22.0  21.0  19.7  18.7  18.1   0.0   0.0
 1980 115    18  26.8  25.9  24.4  23.0  21.7  20.2  19.0  18.4   0.0   0.0
 1980 116    19  27.8  26.7  25.1  23.5  22.1  20.4  19.2  18.5   0.0   0.0
 1980 117    20  27.5  26.5  24.9  23.3  22.0  20.4  19.1  18.4   0.0   0.0
 1980 118    21  27.1  26.1  24.6  23.1  21.8  20.3  19.0  18.4   0.0   0.0
 1980 119    22  26.7  25.8  24.4  22.9  21.7  20.2  19.0  18.4   0.0   0.0
 1980 120    23  26.2  25.4  24.0  22.7  21.5  20.1  18.9  18.3   0.0   0.0
 1980 121    24  24.4  23.7  22.8  21.7  20.8  19.6  18.6  18.1   0.0   0.0
 1980 122    25  22.7  22.3  21.6  20.9  20.1  19.2  18.4  17.9   0.0   0.0
 1980 123    26  20.5  20.4  20.1  19.7  19.3  18.6  18.0  17.7   0.0   0.0
 1980 124    27  18.1  18.3  18.5  18.5  18.4  18.0  17.7  17.4   0.0   0.0
 1980 125    28  16.2  16.6  17.1  17.5  17.6  17.5  17.3  17.2   0.0   0.0
 1980 126    29  16.3  16.8  17.3  17.6  17.7  17.6  17.4  17.2   0.0   0.0
 1980 127    30  16.5  16.9  17.4  17.7  17.8  17.6  17.4  17.3   0.0   0.0
 1980 128    31  16.8  17.1  17.6  17.8  17.9  17.7  17.5  17.3   0.0   0.0
 1980 129    32  16.8  17.2  17.6  17.8  17.9  17.7  17.5  17.3   0.0   0.0
 1980 130    33  17.5  17.8  18.1  18.2  18.2  17.9  17.6  17.4   0.0   0.0
 1980 131    34  18.1  18.3  18.5  18.5  18.4  18.1  17.7  17.5   0.0   0.0
 1980 132    35  18.7  18.8  18.8  18.8  18.6  18.2  17.8  17.5   0.0   0.0
 1980 133    36  20.3  20.2  19.9  19.6  19.2  18.6  18.1  17.7   0.0   0.0
 1980 134    37  22.7  22.3  21.6  20.9  20.2  19.3  18.5  18.0   0.0   0.0
 1980 135    38  23.8  23.3  22.4  21.4  20.6  19.5  18.6  18.1   0.0   0.0
 1980 136    39  24.0  23.4  22.5  21.5  20.7  19.6  18.7  18.2   0.0   0.0
 1980 137    40  23.3  22.8  22.0  21.2  20.4  19.4  18.6  18.1   0.0   0.0
 1980 138    41  21.6  21.3  20.8  20.3  19.7  19.0  18.3  17.9   0.0   0.0
 1980 139    42  19.2  19.3  19.2  19.1  18.8  18.4  17.9  17.6   0.0   0.0
 1980 140    43  18.0  18.2  18.4  18.4  18.4  18.1  17.7  17.5   0.0   0.0
 1980 141    44  17.5  17.7  18.0  18.2  18.1  18.0  17.7  17.5   0.0   0.0
 1980 142    45  18.0  18.1  18.3  18.4  18.3  18.1  17.7  17.5   0.0   0.0
 1980 143    46  18.5  18.6  18.7  18.7  18.6  18.2  17.8  17.6   0.0   0.0
 1980 144    47  19.2  19.2  19.1  19.0  18.8  18.4  18.0  17.7   0.0   0.0
 1980 145    48  18.8  18.9  18.9  18.8  18.7  18.3  17.9  17.6   0.0   0.0
 1980 146    49  18.6  18.7  18.7  18.7  18.6  18.3  17.9  17.6   0.0   0.0
 1980 147    50  18.9  19.0  19.0  18.9  18.7  18.3  17.9  17.7   0.0   0.0
 1980 148    51  19.7  19.6  19.5  19.3  19.0  18.5  18.0  17.7   0.0   0.0
 1980 149    52  19.8  19.7  19.5  19.3  19.0  18.6  18.1  17.8   0.0   0.0
 1980 150    53  19.3  19.3  19.2  19.1  18.9  18.4  18.0  17.7   0.0   0.0
 1980 151    54  19.3  19.3  19.2  19.1  18.8  18.4  18.0  17.7   0.0   0.0
 1980 152    55  18.8  18.8  18.8  18.8  18.6  18.3  17.9  17.7   0.0   0.0
 1980 153    56  16.8  17.1  17.5  17.7  17.9  17.8  17.6  17.4   0.0   0.0
 1980 154    57  15.0  15.5  16.2  16.8  17.2  17.4  17.3  17.2   0.0   0.0
 1980 155    58  13.8  14.5  15.4  16.2  16.7  17.0  17.1  17.1   0.0   0.0
 1980 156    59  12.1  13.0  14.2  15.3  16.0  16.6  16.9  16.9   0.0   0.0
 1980 157    60  11.0  12.1  13.5  14.7  15.6  16.3  16.7  16.8   0.0   0.0
 1980 158    61  10.5  11.6  13.1  14.5  15.4  16.2  16.6  16.7   0.0   0.0
 1980 159    62  11.8  12.8  14.0  15.2  15.9  16.5  16.8  16.9   0.0   0.0
 1980 160    63  12.8  13.6  14.7  15.6  16.3  16.8  17.0  17.0   0.0   0.0
 1980 161    64  14.5  15.1  15.9  16.5  16.9  17.2  17.3  17.2   0.0   0.0
 1980 162    65  15.2  15.7  16.3  16.9  17.2  17.4  17.4  17.3   0.0   0.0
 1980 163    66  16.2  16.5  17.0  17.3  17.6  17.6  17.5  17.4   0.0   0.0
 1980 164    67  15.7  16.1  16.6  17.1  17.4  17.5  17.5  17.4   0.0   0.0
 1980 165    68  15.4  15.8  16.4  16.9  17.2  17.4  17.4  17.3   0.0   0.0
 1980 166    69  14.4  14.9  15.7  16.4  16.8  17.2  17.2  17.2   0.0   0.0
 1980 167    70  13.9  14.6  15.4  16.2  16.7  17.0  17.2  17.1   0.0   0.0
 1980 168    71  14.1  14.7  15.5  16.2  16.7  17.1  17.2  17.2   0.0   0.0
 1980 169    72  14.7  15.2  15.9  16.5  16.9  17.2  17.3  17.2   0.0   0.0
 1980 170    73  15.1  15.5  16.2  16.7  17.1  17.3  17.3  17.3   0.0   0.0
 1980 171    74  14.7  15.2  15.9  16.5  16.9  17.2  17.3  17.2   0.0   0.0
 1980 172    75  14.6  15.1  15.8  16.4  16.9  17.2  17.3  17.2   0.0   0.0
 1980 173    76  14.3  14.8  15.6  16.3  16.8  17.1  17.2  17.2   0.0   0.0
 1980 174    77  13.4  14.1  15.0  15.8  16.4  16.9  17.1  17.1   0.0   0.0
 1980 175    78  13.6  14.2  15.1  15.9  16.4  16.9  17.1  17.1   0.0   0.0
 1980 176    79  14.0  14.6  15.4  16.1  16.6  17.0  17.2  17.2   0.0   0.0
 1980 177    80  13.8  14.4  15.2  16.0  16.5  17.0  17.1  17.1   0.0   0.0
 1980 178    81  12.6  13.4  14.4  15.4  16.0  16.6  16.9  17.0   0.0   0.0
 1980 179    82  11.6  12.5  13.7  14.8  15.6  16.4  16.8  16.9   0.0   0.0
 1980 180    83  11.2  12.1  13.4  14.6  15.5  16.3  16.7  16.8   0.0   0.0
 1980 181    84  11.2  12.1  13.4  14.6  15.5  16.3  16.7  16.8   0.0   0.0
 1980 182    85  10.9  11.9  13.2  14.4  15.3  16.2  16.6  16.8   0.0   0.0
 1980 183    86  11.1  12.0  13.3  14.5  15.4  16.2  16.6  16.8   0.0   0.0
 1980 184    87  10.9  11.8  13.2  14.4  15.3  16.2  16.6  16.8   0.0   0.0
 1980 185    88  10.1  11.1  12.6  13.9  15.0  15.9  16.5  16.7   0.0   0.0
 1980 186    89   9.6  10.7  12.2  13.7  14.8  15.8  16.4  16.6   0.0   0.0
 1980 187    90  10.6  11.5  12.9  14.2  15.1  16.1  16.6  16.7   0.0   0.0
 1980 188    91  11.8  12.6  13.7  14.8  15.6  16.4  16.8  16.9   0.0   0.0
 1980 189    92  13.2  13.8  14.7  15.5  16.1  16.7  17.0  17.0   0.0   0.0
 1980 190    93  14.0  14.5  15.2  15.9  16.4  16.9  17.1  17.1   0.0   0.0
 1980 191    94  13.9  14.4  15.1  15.8  16.4  16.9  17.1  17.1   0.0   0.0
 1980 192    95  13.4  13.9  14.7  15.5  16.1  16.7  17.0  17.1   0.0   0.0
 1980 193    96  12.8  13.4  14.3  15.2  15.9  16.6  16.9  17.0   0.0   0.0
 1980 194    97  12.6  13.2  14.2  15.1  15.8  16.5  16.9  17.0   0.0   0.0
 1980 195    98  12.7  13.3  14.2  15.2  15.8  16.5  16.9  17.0   0.0   0.0
 1980 196    99  12.6  13.3  14.2  15.1  15.8  16.5  16.9  17.0   0.0   0.0
 1980 197   100  12.4  13.1  14.0  15.0  15.7  16.4  16.8  16.9   0.0   0.0
 1980 198   101  12.1  12.8  13.8  14.8  15.6  16.3  16.7  16.9   0.0   0.0
 1980 199   102  11.8  12.5  13.6  14.6  15.5  16.2  16.7  16.9   0.0   0.0
 1980 200   103  11.8  12.5  13.6  14.6  15.4  16.2  16.7  16.9   0.0   0.0
 1980 201   104  13.7  14.1  14.9  15.6  16.2  16.7  17.0  17.1   0.0   0.0
 1980 202   105  14.1  14.5  15.1  15.8  16.3  16.8  17.0  17.1   0.0   0.0
 1980 203   106  15.0  15.3  15.7  16.2  16.6  17.0  17.2  17.2   0.0   0.0
 1980 204   107  15.6  15.8  16.2  16.5  16.9  17.2  17.3  17.3   0.0   0.0
 1980 205   108  16.0  16.1  16.4  16.7  17.0  17.2  17.3  17.3   0.0   0.0
 1980 206   109  15.8  15.9  16.2  16.6  16.9  17.2  17.3  17.3   0.0   0.0
 1980 207   110  16.6  16.7  16.8  17.0  17.2  17.4  17.4  17.4   0.0   0.0
 1980 208   111  17.0  17.0  17.0  17.2  17.3  17.5  17.5  17.4   0.0   0.0
 1980 209   112  16.5  16.5  16.7  16.9  17.1  17.3  17.4  17.3   0.0   0.0
 1980 210   113  16.1  16.2  16.4  16.7  17.0  17.2  17.3  17.3   0.0   0.0
 1980 211   114  14.2  14.6  15.1  15.7  16.2  16.7  17.0  17.1   0.0   0.0
 1980 212   115  12.6  13.1  14.0  14.8  15.5  16.3  16.7  16.9   0.0   0.0
 1980 213   116  11.2  11.9  13.0  14.1  15.0  15.9  16.5  16.7   0.0   0.0
 1980 214   117  11.3  12.0  13.0  14.1  15.0  15.9  16.5  16.7   0.0   0.0
 1980 215   118  10.5  11.3  12.5  13.7  14.7  15.7  16.3  16.6   0.0   0.0
 1980 216   119  11.4  12.1  13.1  14.2  15.0  15.9  16.5  16.7   0.0   0.0
 1980 217   120  12.8  13.3  14.0  14.9  15.5  16.3  16.7  16.9   0.0   0.0
 1980 218   121  13.4  13.8  14.4  15.1  15.7  16.4  16.8  16.9   0.0   0.0
 1980 219   122  13.4  13.8  14.5  15.1  15.7  16.4  16.8  16.9   0.0   0.0
 1980 220   123  14.3  14.6  15.0  15.6  16.1  16.6  16.9  17.0   0.0   0.0
 1980 221   124  14.4  14.7  15.1  15.6  16.1  16.6  16.9  17.0   0.0   0.0
 1980 222   125  14.5  14.7  15.2  15.7  16.1  16.6  16.9  17.0   0.0   0.0
 1980 223   126  15.5  15.6  15.8  16.1  16.5  16.8  17.1  17.1   0.0   0.0
 1980 224   127  15.4  15.5  15.8  16.1  16.4  16.8  17.1  17.1   0.0   0.0
 1980 225   128  14.9  15.1  15.4  15.8  16.2  16.7  17.0  17.1   0.0   0.0
 1980 226   129  15.1  15.2  15.5  15.9  16.3  16.7  17.0  17.1   0.0   0.0
 1980 227   130  15.7  15.7  15.9  16.2  16.5  16.8  17.1  17.1   0.0   0.0

*DSSAT Cropping System Model Ver. 4.0.2.000               Aug 01, 2016; 15:44:49

*RUN   7        : UYMZ                    
 MODEL          : MZCER040 - Maize           
 EXPERIMENT     : UYMZ0105 MZ    late to create DSS                             
 TREATMENT  1   : UYMZ                    

@YEAR DOY   DAS  TS1D  TS2D  TS3D  TS4D  TS5D  TS6D  TS7D  TS8D  TS9D  TS10
 1981 097     0  24.2  23.6  22.6  21.4  20.4  19.2  18.3  17.8   0.0   0.0
 1981 098     1  24.5  23.8  22.8  21.6  20.6  19.3  18.4  17.9   0.0   0.0
 1981 099     2  24.3  23.6  22.6  21.5  20.5  19.3  18.3  17.8   0.0   0.0
 1981 100     3  23.7  23.1  22.2  21.2  20.3  19.1  18.2  17.8   0.0   0.0
 1981 101     4  23.6  23.0  22.2  21.2  20.3  19.2  18.3  17.8   0.0   0.0
 1981 102     5  23.2  22.7  21.9  21.0  20.2  19.1  18.3  17.8   0.0   0.0
 1981 103     6  22.5  22.1  21.4  20.6  19.9  18.9  18.2  17.7   0.0   0.0
 1981 104     7  22.1  21.8  21.2  20.5  19.8  18.9  18.1  17.7   0.0   0.0
 1981 105     8  22.0  21.7  21.1  20.4  19.7  18.8  18.1  17.7   0.0   0.0
 1981 106     9  21.4  21.2  20.7  20.1  19.5  18.7  18.0  17.6   0.0   0.0
 1981 107    10  20.8  20.6  20.3  19.8  19.3  18.5  17.9  17.6   0.0   0.0
 1981 108    11  20.6  20.5  20.2  19.7  19.2  18.5  17.9  17.6   0.0   0.0
 1981 109    12  21.0  20.8  20.4  19.9  19.4  18.6  18.0  17.6   0.0   0.0
 1981 110    13  21.1  20.9  20.5  20.0  19.4  18.7  18.0  17.6   0.0   0.0
 1981 111    14  21.5  21.2  20.8  20.2  19.6  18.8  18.1  17.7   0.0   0.0
 1981 112    15  21.9  21.6  21.1  20.4  19.8  18.9  18.2  17.8   0.0   0.0
 1981 113    16  22.0  21.7  21.1  20.5  19.8  18.9  18.2  17.8   0.0   0.0
 1981 114    17  20.9  20.7  20.4  19.9  19.4  18.7  18.0  17.7   0.0   0.0
 1981 115    18  20.0  19.9  19.8  19.4  19.0  18.4  17.9  17.6   0.0   0.0
 1981 116    19  19.6  19.6  19.5  19.2  18.9  18.3  17.8  17.5   0.0   0.0
 1981 117    20  18.9  19.0  19.0  18.9  18.6  18.2  17.7  17.5   0.0   0.0
 1981 118    21  18.3  18.5  18.6  18.6  18.4  18.0  17.6  17.4   0.0   0.0
 1981 119    22  18.6  18.7  18.8  18.7  18.5  18.1  17.7  17.4   0.0   0.0
 1981 120    23  18.8  18.9  19.0  18.8  18.6  18.2  17.7  17.5   0.0   0.0
 1981 121    24  18.7  18.8  18.9  18.8  18.6  18.2  17.7  17.5   0.0   0.0
 1981 122    25  19.1  19.2  19.2  19.0  18.7  18.3  17.8  17.5   0.0   0.0
 1981 123    26  19.7  19.6  19.5  19.3  19.0  18.4  17.9  17.6   0.0   0.0
 1981 124    27  20.6  20.5  20.2  19.8  19.3  18.7  18.1  17.7   0.0   0.0
 1981 125    28  21.9  21.6  21.1  20.4  19.8  19.0  18.3  17.9   0.0   0.0
 1981 126    29  21.5  21.2  20.8  20.2  19.7  18.9  18.2  17.8   0.0   0.0
 1981 127    30  22.5  22.1  21.5  20.7  20.1  19.2  18.4  17.9   0.0   0.0
 1981 128    31  23.9  23.3  22.4  21.5  20.6  19.6  18.6  18.1   0.0   0.0
 1981 129    32  23.4  22.9  22.1  21.2  20.5  19.4  18.6  18.1   0.0   0.0
 1981 130    33  22.8  22.4  21.7  20.9  20.2  19.3  18.5  18.0   0.0   0.0
 1981 131    34  23.0  22.5  21.8  21.0  20.3  19.3  18.5  18.1   0.0   0.0
 1981 132    35  22.4  22.0  21.4  20.7  20.1  19.2  18.4  18.0   0.0   0.0
 1981 133    36  20.6  20.4  20.2  19.8  19.4  18.7  18.1  17.8   0.0   0.0
 1981 134    37  20.2  20.1  19.9  19.6  19.2  18.6  18.1  17.7   0.0   0.0
 1981 135    38  20.0  19.9  19.8  19.5  19.1  18.6  18.1  17.7   0.0   0.0
 1981 136    39  20.4  20.2  20.0  19.7  19.3  18.7  18.1  17.8   0.0   0.0
 1981 137    40  19.8  19.8  19.7  19.4  19.1  18.6  18.0  17.7   0.0   0.0
 1981 138    41  19.7  19.6  19.5  19.3  19.0  18.5  18.0  17.7   0.0   0.0
 1981 139    42  19.5  19.5  19.4  19.2  19.0  18.5  18.0  17.7   0.0   0.0
 1981 140    43  18.6  18.7  18.8  18.8  18.6  18.3  17.9  17.6   0.0   0.0
 1981 141    44  18.0  18.2  18.4  18.4  18.4  18.1  17.8  17.5   0.0   0.0
 1981 142    45  18.6  18.7  18.8  18.7  18.6  18.3  17.9  17.6   0.0   0.0
 1981 143    46  20.0  19.9  19.7  19.5  19.1  18.6  18.1  17.8   0.0   0.0
 1981 144    47  21.3  21.1  20.6  20.1  19.7  19.0  18.3  17.9   0.0   0.0
 1981 145    48  22.3  21.9  21.3  20.6  20.0  19.2  18.5  18.0   0.0   0.0
 1981 146    49  21.8  21.4  20.9  20.4  19.8  19.1  18.4  18.0   0.0   0.0
 1981 147    50  20.2  20.1  19.9  19.6  19.2  18.7  18.1  17.8   0.0   0.0
 1981 148    51  18.5  18.6  18.7  18.7  18.5  18.2  17.9  17.6   0.0   0.0
 1981 149    52  17.7  17.9  18.1  18.2  18.2  18.0  17.7  17.5   0.0   0.0
 1981 150    53  18.2  18.3  18.5  18.5  18.4  18.2  17.8  17.6   0.0   0.0
 1981 151    54  19.5  19.5  19.4  19.2  18.9  18.5  18.0  17.7   0.0   0.0
 1981 152    55  20.2  20.0  19.8  19.5  19.2  18.7  18.1  17.8   0.0   0.0
 1981 153    56  19.6  19.5  19.4  19.2  18.9  18.5  18.1  17.8   0.0   0.0
 1981 154    57  18.1  18.2  18.3  18.4  18.4  18.1  17.8  17.6   0.0   0.0
 1981 155    58  15.8  16.2  16.8  17.2  17.5  17.6  17.5  17.3   0.0   0.0
 1981 156    59  13.9  14.6  15.5  16.2  16.7  17.1  17.1  17.1   0.0   0.0
 1981 157    60  12.5  13.4  14.5  15.5  16.2  16.7  16.9  17.0   0.0   0.0
 1981 158    61  12.5  13.3  14.5  15.5  16.2  16.7  16.9  17.0   0.0   0.0
 1981 159    62  12.5  13.3  14.5  15.5  16.1  16.7  16.9  17.0   0.0   0.0
 1981 160    63  13.0  13.8  14.8  15.7  16.3  16.8  17.0  17.0   0.0   0.0
 1981 161    64  13.6  14.3  15.2  16.0  16.6  17.0  17.1  17.1   0.0   0.0
 1981 162    65  13.8  14.5  15.4  16.2  16.7  17.0  17.1  17.1   0.0   0.0
 1981 163    66  13.3  14.1  15.0  15.9  16.5  16.9  17.1  17.1   0.0   0.0
 1981 164    67  12.4  13.3  14.4  15.4  16.1  16.7  16.9  17.0   0.0   0.0
 1981 165    68  11.3  12.3  13.6  14.8  15.7  16.4  16.7  16.8   0.0   0.0
 1981 166    69  10.8  11.9  13.3  14.6  15.5  16.3  16.7  16.8   0.0   0.0
 1981 167    70  10.5  11.6  13.1  14.4  15.3  16.2  16.6  16.7   0.0   0.0
 1981 168    71  10.3  11.4  12.9  14.3  15.3  16.1  16.6  16.7   0.0   0.0
 1981 169    72  10.3  11.4  12.9  14.3  15.2  16.1  16.6  16.7   0.0   0.0
 1981 170    73  10.8  11.8  13.2  14.5  15.4  16.2  16.6  16.8   0.0   0.0
 1981 171    74  10.9  11.9  13.3  14.5  15.4  16.2  16.7  16.8   0.0   0.0
 1981 172    75  11.0  12.0  13.3  14.6  15.5  16.3  16.7  16.8   0.0   0.0
 1981 173    76  11.5  12.5  13.7  14.9  15.7  16.4  16.8  16.9   0.0   0.0
 1981 174    77  12.4  13.2  14.3  15.3  16.0  16.6  16.9  17.0   0.0   0.0
 1981 175    78  13.1  13.8  14.7  15.6  16.3  16.8  17.0  17.0   0.0   0.0
 1981 176    79  13.7  14.3  15.2  16.0  16.5  16.9  17.1  17.1   0.0   0.0
 1981 177    80  14.0  14.6  15.4  16.1  16.6  17.0  17.2  17.2   0.0   0.0
 1981 178    81  14.1  14.6  15.4  16.1  16.6  17.0  17.2  17.2   0.0   0.0
 1981 179    82  14.4  14.9  15.6  16.3  16.7  17.1  17.2  17.2   0.0   0.0
 1981 180    83  14.9  15.4  16.0  16.5  16.9  17.2  17.3  17.3   0.0   0.0
 1981 181    84  15.1  15.5  16.0  16.6  17.0  17.3  17.3  17.3   0.0   0.0
 1981 182    85  14.5  15.0  15.7  16.3  16.8  17.1  17.2  17.2   0.0   0.0
 1981 183    86  14.0  14.6  15.3  16.0  16.5  17.0  17.1  17.2   0.0   0.0
 1981 184    87  13.5  14.1  14.9  15.7  16.3  16.8  17.1  17.1   0.0   0.0
 1981 185    88  12.7  13.4  14.4  15.3  16.0  16.6  16.9  17.0   0.0   0.0
 1981 186    89  12.4  13.1  14.2  15.2  15.9  16.5  16.9  17.0   0.0   0.0
 1981 187    90  13.7  14.2  15.0  15.8  16.4  16.9  17.1  17.1   0.0   0.0
 1981 188    91  15.1  15.5  16.0  16.5  16.9  17.2  17.3  17.3   0.0   0.0
 1981 189    92  16.3  16.5  16.8  17.1  17.4  17.5  17.5  17.4   0.0   0.0
 1981 190    93  17.5  17.5  17.6  17.7  17.8  17.8  17.7  17.5   0.0   0.0
 1981 191    94  17.7  17.7  17.8  17.8  17.9  17.8  17.7  17.6   0.0   0.0
 1981 192    95  17.6  17.6  17.6  17.7  17.8  17.8  17.7  17.5   0.0   0.0
 1981 193    96  17.3  17.4  17.5  17.6  17.7  17.7  17.6  17.5   0.0   0.0
 1981 194    97  16.8  16.9  17.1  17.3  17.5  17.6  17.5  17.5   0.0   0.0
 1981 195    98  17.5  17.5  17.6  17.7  17.7  17.8  17.6  17.5   0.0   0.0
 1981 196    99  17.6  17.6  17.6  17.7  17.8  17.8  17.7  17.5   0.0   0.0
 1981 197   100  16.9  16.9  17.1  17.3  17.4  17.6  17.5  17.5   0.0   0.0
 1981 198   101  15.4  15.7  16.1  16.5  16.9  17.2  17.3  17.3   0.0   0.0
 1981 199   102  14.2  14.6  15.2  15.9  16.4  16.8  17.1  17.1   0.0   0.0
 1981 200   103  12.2  12.8  13.8  14.8  15.6  16.3  16.7  16.9   0.0   0.0
 1981 201   104  11.2  12.0  13.2  14.3  15.2  16.0  16.6  16.8   0.0   0.0
 1981 202   105  11.4  12.1  13.3  14.4  15.2  16.1  16.6  16.8   0.0   0.0
 1981 203   106  11.7  12.5  13.5  14.6  15.4  16.2  16.7  16.8   0.0   0.0
 1981 204   107  12.1  12.7  13.7  14.7  15.5  16.2  16.7  16.9   0.0   0.0
 1981 205   108  11.8  12.5  13.5  14.5  15.3  16.2  16.6  16.8   0.0   0.0
 1981 206   109  12.2  12.8  13.8  14.8  15.5  16.3  16.7  16.9   0.0   0.0
 1981 207   110  12.6  13.2  14.1  15.0  15.6  16.4  16.8  16.9   0.0   0.0
 1981 208   111  13.5  13.9  14.6  15.4  16.0  16.6  16.9  17.0   0.0   0.0
 1981 209   112  14.3  14.6  15.2  15.8  16.3  16.8  17.0  17.1   0.0   0.0
 1981 210   113  14.7  14.9  15.4  16.0  16.4  16.8  17.1  17.1   0.0   0.0
 1981 211   114  14.3  14.6  15.2  15.8  16.2  16.7  17.0  17.1   0.0   0.0
 1981 212   115  14.7  15.0  15.4  15.9  16.4  16.8  17.1  17.1   0.0   0.0
 1981 213   116  14.6  14.8  15.3  15.8  16.3  16.8  17.0  17.1   0.0   0.0
 1981 214   117  16.1  16.2  16.4  16.6  16.9  17.1  17.3  17.3   0.0   0.0
 1981 215   118  18.5  18.3  18.0  17.9  17.8  17.7  17.6  17.5   0.0   0.0
 1981 216   119  21.2  20.5  19.8  19.2  18.8  18.4  18.1  17.8   0.0   0.0
 1981 217   120  23.0  22.1  21.0  20.1  19.5  18.9  18.3  18.0   0.0   0.0
 1981 218   121  24.0  23.0  21.7  20.6  19.9  19.1  18.5  18.1   0.0   0.0
 1981 219   122  23.2  22.3  21.2  20.2  19.6  18.9  18.4  18.1   0.0   0.0
 1981 220   123  21.2  20.5  19.8  19.2  18.8  18.4  18.0  17.8   0.0   0.0
 1981 221   124  19.9  19.4  18.9  18.5  18.2  18.0  17.8  17.7   0.0   0.0
 1981 222   125  17.9  17.7  17.5  17.4  17.4  17.5  17.5  17.4   0.0   0.0
 1981 223   126  17.5  17.3  17.2  17.2  17.2  17.4  17.4  17.4   0.0   0.0
 1981 224   127  16.3  16.2  16.3  16.5  16.8  17.0  17.2  17.2   0.0   0.0
 1981 225   128  16.4  16.4  16.4  16.6  16.8  17.1  17.2  17.2   0.0   0.0
 1981 226   129  15.8  15.8  16.0  16.3  16.5  16.9  17.1  17.1   0.0   0.0
 1981 227   130  16.2  16.2  16.3  16.5  16.7  17.0  17.1  17.2   0.0   0.0
 1981 228   131  16.9  16.8  16.7  16.8  16.9  17.1  17.2  17.3   0.0   0.0
 1981 229   132  18.3  18.0  17.7  17.5  17.5  17.5  17.5  17.4   0.0   0.0
 1981 230   133  19.1  18.6  18.2  17.9  17.8  17.7  17.6  17.5   0.0   0.0
 1981 231   134  18.9  18.5  18.1  17.8  17.7  17.6  17.5  17.5   0.0   0.0
 1981 232   135  18.3  17.9  17.6  17.4  17.4  17.4  17.4  17.4   0.0   0.0
 1981 233   136  17.7  17.4  17.2  17.1  17.2  17.3  17.3  17.3   0.0   0.0
 1981 234   137  17.7  17.5  17.2  17.1  17.2  17.3  17.3  17.3   0.0   0.0
 1981 235   138  18.1  17.8  17.5  17.3  17.3  17.3  17.4  17.3   0.0   0.0
 1981 236   139  18.6  18.2  17.8  17.6  17.5  17.4  17.4  17.4   0.0   0.0
 1981 237   140  17.7  17.4  17.2  17.1  17.1  17.2  17.3  17.3   0.0   0.0
 1981 238   141  16.1  16.0  16.0  16.2  16.5  16.8  17.0  17.1   0.0   0.0
 1981 239   142  14.7  14.8  15.1  15.5  15.9  16.4  16.8  16.9   0.0   0.0
 1981 240   143  13.6  13.9  14.3  14.9  15.5  16.1  16.6  16.8   0.0   0.0
 1981 241   144  13.8  14.0  14.4  15.0  15.5  16.1  16.6  16.8   0.0   0.0
 1981 242   145  14.2  14.3  14.7  15.2  15.6  16.2  16.6  16.8   0.0   0.0
 1981 243   146  14.7  14.8  15.1  15.4  15.8  16.4  16.7  16.9   0.0   0.0
 1981 244   147  14.5  14.6  14.9  15.3  15.7  16.3  16.7  16.8   0.0   0.0
 1981 245   148  14.1  14.2  14.6  15.1  15.6  16.2  16.6  16.8   0.0   0.0
 1981 246   149  12.9  13.2  13.7  14.4  15.1  15.8  16.4  16.6   0.0   0.0
 1981 247   150  13.1  13.4  13.9  14.5  15.1  15.9  16.4  16.6   0.0   0.0
 1981 248   151  13.7  13.9  14.3  14.8  15.3  16.0  16.5  16.7   0.0   0.0
 1981 249   152  15.3  15.3  15.4  15.7  16.0  16.4  16.7  16.9   0.0   0.0
 1981 250   153  17.3  17.0  16.8  16.7  16.7  16.9  17.0  17.1   0.0   0.0
 1981 251   154  19.9  19.3  18.5  18.0  17.7  17.5  17.4  17.4   0.0   0.0
 1981 252   155  20.0  19.3  18.6  18.0  17.7  17.5  17.4  17.4   0.0   0.0
 1981 253   156  20.0  19.4  18.6  18.0  17.7  17.5  17.4  17.4   0.0   0.0
 1981 254   157  19.0  18.5  17.9  17.5  17.3  17.2  17.3  17.3   0.0   0.0
 1981 255   158  16.5  16.3  16.1  16.2  16.3  16.6  16.8  17.0   0.0   0.0
 1981 256   159  13.8  13.9  14.3  14.7  15.2  15.9  16.4  16.6   0.0   0.0
 1981 257   160  13.2  13.5  13.9  14.4  15.0  15.7  16.3  16.5   0.0   0.0
 1981 258   161  12.5  12.8  13.3  14.0  14.7  15.5  16.1  16.4   0.0   0.0
 1981 259   162  12.6  12.9  13.4  14.1  14.7  15.5  16.1  16.4   0.0   0.0
 1981 260   163  14.1  14.2  14.4  14.8  15.3  15.9  16.4  16.6   0.0   0.0
 1981 261   164  15.5  15.4  15.4  15.6  15.8  16.2  16.6  16.8   0.0   0.0
 1981 262   165  16.5  16.3  16.1  16.1  16.2  16.5  16.8  16.9   0.0   0.0
 1981 263   166  17.4  17.0  16.7  16.5  16.5  16.7  16.9  17.0   0.0   0.0
 1981 264   167  17.0  16.7  16.4  16.3  16.4  16.6  16.8  16.9   0.0   0.0
 1981 265   168  16.2  16.0  15.8  15.9  16.0  16.4  16.7  16.8   0.0   0.0
 1981 266   169  15.5  15.4  15.3  15.5  15.8  16.2  16.5  16.7   0.0   0.0
 1981 267   170  15.5  15.4  15.3  15.5  15.7  16.2  16.5  16.7   0.0   0.0
 1981 268   171  15.8  15.6  15.5  15.6  15.8  16.2  16.6  16.7   0.0   0.0
 1981 269   172  17.1  16.8  16.4  16.3  16.3  16.5  16.8  16.9   0.0   0.0
 1981 270   173  18.6  18.1  17.5  17.1  16.9  16.9  17.0  17.1   0.0   0.0
 1981 271   174  20.0  19.3  18.4  17.8  17.5  17.3  17.2  17.2   0.0   0.0
 1981 272   175  19.4  18.7  18.0  17.4  17.2  17.1  17.1  17.1   0.0   0.0
 1981 273   176  18.4  17.9  17.3  16.9  16.8  16.8  16.9  17.0   0.0   0.0
 1981 274   177  18.0  17.5  17.0  16.7  16.6  16.7  16.8  16.9   0.0   0.0
 1981 275   178  18.0  17.5  17.0  16.7  16.6  16.7  16.8  16.9   0.0   0.0
 1981 276   179  18.2  17.7  17.1  16.8  16.7  16.7  16.8  16.9   0.0   0.0
 1981 277   180  17.9  17.4  16.9  16.6  16.5  16.6  16.8  16.9   0.0   0.0
 1981 278   181  17.7  17.3  16.8  16.5  16.5  16.6  16.8  16.9   0.0   0.0
 1981 279   182  16.8  16.5  16.2  16.0  16.1  16.3  16.6  16.8   0.0   0.0
 1981 280   183  15.6  15.4  15.3  15.4  15.6  16.0  16.4  16.6   0.0   0.0
 1981 281   184  13.9  14.0  14.2  14.5  14.9  15.6  16.1  16.4   0.0   0.0
 1981 282   185  14.6  14.5  14.6  14.9  15.2  15.7  16.2  16.5   0.0   0.0
 1981 283   186  15.4  15.3  15.2  15.3  15.5  15.9  16.3  16.5   0.0   0.0
 1981 284   187  16.2  16.0  15.7  15.7  15.8  16.1  16.4  16.6   0.0   0.0
 1981 285   188  16.6  16.3  16.0  15.9  15.9  16.2  16.5  16.7   0.0   0.0
 1981 286   189  17.8  17.3  16.8  16.5  16.4  16.5  16.7  16.8   0.0   0.0
 1981 287   190  19.1  18.4  17.7  17.1  16.9  16.8  16.9  16.9   0.0   0.0
 1981 288   191  20.2  19.4  18.4  17.7  17.3  17.1  17.0  17.1   0.0   0.0
 1981 289   192  20.2  19.4  18.5  17.7  17.3  17.1  17.0  17.0   0.0   0.0
 1981 290   193  19.7  19.0  18.1  17.4  17.1  16.9  16.9  17.0   0.0   0.0
 1981 291   194  19.2  18.6  17.8  17.2  16.9  16.8  16.8  16.9   0.0   0.0
 1981 292   195  18.7  18.1  17.4  16.9  16.7  16.7  16.8  16.8   0.0   0.0
 1981 293   196  18.3  17.8  17.2  16.7  16.5  16.6  16.7  16.8   0.0   0.0
 1981 294   197  19.4  18.7  17.9  17.2  16.9  16.8  16.8  16.9   0.0   0.0
 1981 295   198  21.4  20.4  19.2  18.3  17.7  17.3  17.1  17.1   0.0   0.0
 1981 296   199  22.8  21.7  20.2  19.0  18.3  17.6  17.4  17.3   0.0   0.0
 1981 297   200  24.3  22.9  21.2  19.8  18.8  18.0  17.6  17.4   0.0   0.0
 1981 298   201  26.1  24.5  22.4  20.7  19.5  18.4  17.9  17.6   0.0   0.0
 1981 299   202  25.4  23.9  22.0  20.3  19.2  18.3  17.8  17.6   0.0   0.0
 1981 300   203  24.6  23.2  21.4  19.9  18.9  18.1  17.6  17.5   0.0   0.0
 1981 301   204  24.2  22.9  21.1  19.7  18.8  17.9  17.5  17.4   0.0   0.0
 1981 302   205  24.4  23.1  21.3  19.8  18.8  18.0  17.6  17.4   0.0   0.0
 1981 303   206  24.6  23.2  21.4  19.9  18.9  18.0  17.6  17.4   0.0   0.0
 1981 304   207  26.9  25.2  23.0  21.1  19.8  18.6  18.0  17.7   0.0   0.0
 1981 305   208  27.1  25.4  23.1  21.2  19.8  18.6  18.0  17.7   0.0   0.0
 1981 306   209  26.6  24.9  22.8  20.9  19.6  18.5  17.9  17.6   0.0   0.0
 1981 307   210  26.0  24.4  22.4  20.6  19.4  18.4  17.8  17.6   0.0   0.0
 1981 308   211  23.6  22.4  20.7  19.4  18.5  17.8  17.4  17.3   0.0   0.0
 1981 309   212  21.0  20.1  18.9  18.0  17.5  17.1  17.0  17.0   0.0   0.0
 1981 310   213  20.3  19.5  18.5  17.7  17.2  16.9  16.8  16.9   0.0   0.0
 1981 311   214  20.5  19.7  18.6  17.8  17.3  17.0  16.9  16.9   0.0   0.0
 1981 312   215  20.5  19.7  18.6  17.8  17.3  16.9  16.9  16.9   0.0   0.0
 1981 313   216  22.4  21.3  19.9  18.8  18.0  17.4  17.2  17.1   0.0   0.0
 1981 314   217  24.2  22.9  21.1  19.7  18.7  17.9  17.4  17.3   0.0   0.0
 1981 315   218  25.1  23.6  21.8  20.1  19.0  18.1  17.6  17.4   0.0   0.0
 1981 316   219  26.0  24.4  22.4  20.6  19.4  18.3  17.7  17.5   0.0   0.0
 1981 317   220  26.4  24.8  22.7  20.8  19.5  18.4  17.8  17.5   0.0   0.0
 1981 318   221  25.8  24.3  22.3  20.5  19.3  18.3  17.7  17.5   0.0   0.0
 1981 319   222  25.2  23.8  21.9  20.2  19.1  18.1  17.6  17.4   0.0   0.0
 1981 320   223  25.7  24.2  22.2  20.5  19.3  18.2  17.7  17.4   0.0   0.0
 1981 321   224  25.7  24.2  22.2  20.5  19.3  18.2  17.6  17.4   0.0   0.0
 1981 322   225  25.2  23.8  21.9  20.2  19.1  18.1  17.6  17.4   0.0   0.0
 1981 323   226  23.6  22.3  20.7  19.4  18.5  17.7  17.3  17.2   0.0   0.0
 1981 324   227  23.2  22.1  20.5  19.2  18.3  17.6  17.2  17.1   0.0   0.0
 1981 325   228  23.5  22.3  20.7  19.3  18.4  17.6  17.3  17.2   0.0   0.0
 1981 326   229  22.7  21.6  20.2  19.0  18.1  17.5  17.1  17.1   0.0   0.0
[...]
 1993 166    69  16.8  17.1  17.4  17.7  17.8  17.8  17.6  17.5   0.0   0.0
 1993 167    70  16.4  16.7  17.1  17.5  17.6  17.7  17.6  17.4   0.0   0.0
 1993 168    71  15.4  15.8  16.4  16.9  17.2  17.4  17.4  17.3   0.0   0.0
 1993 169    72  14.5  15.0  15.8  16.4  16.9  17.2  17.3  17.2   0.0   0.0
 1993 170    73  13.0  13.7  14.7  15.6  16.3  16.8  17.0  17.0   0.0   0.0
 1993 171    74  12.4  13.2  14.3  15.3  16.0  16.6  16.9  17.0   0.0   0.0
 1993 172    75  13.2  13.9  14.9  15.8  16.4  16.9  17.0  17.1   0.0   0.0
 1993 173    76  13.8  14.4  15.3  16.0  16.6  17.0  17.1  17.1   0.0   0.0
 1993 174    77  14.1  14.7  15.5  16.2  16.7  17.1  17.2  17.2   0.0   0.0
 1993 175    78  14.0  14.6  15.4  16.1  16.6  17.0  17.2  17.2   0.0   0.0
 1993 176    79  13.6  14.2  15.1  15.9  16.5  16.9  17.1  17.1   0.0   0.0
 1993 177    80  13.6  14.2  15.1  15.9  16.5  16.9  17.1  17.1   0.0   0.0
 1993 178    81  13.9  14.5  15.3  16.0  16.5  17.0  17.1  17.1   0.0   0.0
 1993 179    82  14.0  14.6  15.4  16.1  16.6  17.0  17.2  17.2   0.0   0.0
 1993 180    83  14.4  14.9  15.6  16.2  16.7  17.1  17.2  17.2   0.0   0.0
 1993 181    84  14.8  15.3  15.9  16.5  16.9  17.2  17.3  17.2   0.0   0.0
 1993 182    85  14.8  15.2  15.9  16.4  16.8  17.2  17.3  17.2   0.0   0.0
 1993 183    86  13.9  14.4  15.2  16.0  16.5  16.9  17.1  17.1   0.0   0.0
 1993 184    87  13.3  13.9  14.8  15.6  16.2  16.8  17.0  17.1   0.0   0.0
 1993 185    88  13.0  13.6  14.6  15.5  16.1  16.7  17.0  17.0   0.0   0.0
 1993 186    89  12.4  13.2  14.2  15.2  15.9  16.5  16.9  17.0   0.0   0.0
 1993 187    90  11.0  11.9  13.2  14.4  15.3  16.2  16.6  16.8   0.0   0.0
 1993 188    91  10.6  11.6  12.9  14.2  15.1  16.1  16.6  16.8   0.0   0.0
 1993 189    92  10.9  11.8  13.1  14.4  15.3  16.1  16.6  16.8   0.0   0.0
 1993 190    93  11.0  11.9  13.1  14.3  15.3  16.1  16.6  16.8   0.0   0.0
 1993 191    94  10.6  11.5  12.9  14.1  15.1  16.0  16.5  16.7   0.0   0.0
 1993 192    95  11.0  11.9  13.1  14.3  15.2  16.1  16.6  16.8   0.0   0.0
 1993 193    96  11.2  12.1  13.3  14.4  15.3  16.2  16.6  16.8   0.0   0.0
 1993 194    97  10.3  11.3  12.6  14.0  14.9  15.9  16.5  16.7   0.0   0.0
 1993 195    98   9.6  10.7  12.2  13.6  14.7  15.7  16.4  16.6   0.0   0.0
 1993 196    99   9.3  10.4  11.9  13.4  14.5  15.6  16.3  16.6   0.0   0.0
 1993 197   100   9.4  10.4  12.0  13.4  14.5  15.6  16.3  16.6   0.0   0.0
 1993 198   101   9.6  10.6  12.1  13.5  14.6  15.7  16.3  16.6   0.0   0.0

*DSSAT Cropping System Model Ver. 4.0.2.000               Aug 01, 2016; 15:44:49

*RUN  20        : UYMZ                    
 MODEL          : MZCER040 - Maize           
 EXPERIMENT     : UYMZ0105 MZ    late to create DSS                             
 TREATMENT  1   : UYMZ                    

@YEAR DOY   DAS  TS1D  TS2D  TS3D  TS4D  TS5D  TS6D  TS7D  TS8D  TS9D  TS10
 1994 097     0  19.3  19.3  19.2  18.9  18.6  18.0  17.5  17.3   0.0   0.0
 1994 098     1  19.3  19.3  19.2  18.9  18.6  18.0  17.5  17.3   0.0   0.0
 1994 099     2  19.7  19.7  19.5  19.2  18.7  18.1  17.6  17.3   0.0   0.0
 1994 100     3  19.9  19.9  19.6  19.3  18.8  18.2  17.7  17.4   0.0   0.0
 1994 101     4  20.1  20.0  19.8  19.4  18.9  18.3  17.7  17.4   0.0   0.0
 1994 102     5  20.1  20.1  19.8  19.4  19.0  18.3  17.8  17.4   0.0   0.0
 1994 103     6  20.4  20.3  20.0  19.6  19.1  18.4  17.8  17.5   0.0   0.0
 1994 104     7  20.5  20.4  20.1  19.6  19.1  18.4  17.8  17.5   0.0   0.0
 1994 105     8  21.3  21.1  20.6  20.0  19.4  18.6  18.0  17.6   0.0   0.0
 1994 106     9  22.3  21.9  21.3  20.5  19.8  18.9  18.1  17.7   0.0   0.0
 1994 107    10  22.0  21.6  21.1  20.4  19.7  18.8  18.1  17.7   0.0   0.0
 1994 108    11  21.4  21.2  20.7  20.1  19.5  18.7  18.0  17.6   0.0   0.0
 1994 109    12  20.4  20.3  20.0  19.6  19.1  18.5  17.9  17.5   0.0   0.0
 1994 110    13  19.4  19.4  19.3  19.1  18.7  18.2  17.7  17.4   0.0   0.0
 1994 111    14  18.5  18.6  18.7  18.6  18.4  18.0  17.6  17.3   0.0   0.0
 1994 112    15  18.5  18.7  18.7  18.6  18.4  18.0  17.6  17.3   0.0   0.0
 1994 113    16  18.6  18.7  18.8  18.7  18.5  18.0  17.6  17.4   0.0   0.0
 1994 114    17  19.2  19.2  19.2  19.0  18.7  18.2  17.7  17.4   0.0   0.0
 1994 115    18  19.8  19.8  19.6  19.3  19.0  18.4  17.8  17.5   0.0   0.0
 1994 116    19  20.4  20.3  20.0  19.6  19.2  18.5  17.9  17.6   0.0   0.0
 1994 117    20  22.2  21.8  21.3  20.6  19.9  19.0  18.2  17.8   0.0   0.0
 1994 118    21  22.3  21.9  21.3  20.6  19.9  19.0  18.3  17.8   0.0   0.0
 1994 119    22  21.8  21.5  21.0  20.4  19.7  18.9  18.2  17.8   0.0   0.0
 1994 120    23  22.3  21.9  21.3  20.6  19.9  19.0  18.3  17.8   0.0   0.0
 1994 121    24  23.1  22.7  21.9  21.1  20.3  19.3  18.4  18.0   0.0   0.0
 1994 122    25  22.2  21.9  21.3  20.6  19.9  19.0  18.3  17.9   0.0   0.0
 1994 123    26  23.0  22.6  21.8  21.0  20.3  19.3  18.4  18.0   0.0   0.0
 1994 124    27  23.6  23.1  22.2  21.3  20.5  19.4  18.5  18.1   0.0   0.0
 1994 125    28  23.0  22.5  21.8  21.0  20.3  19.3  18.5  18.0   0.0   0.0
 1994 126    29  22.3  21.9  21.3  20.7  20.0  19.1  18.4  17.9   0.0   0.0
 1994 127    30  22.0  21.7  21.2  20.5  19.9  19.1  18.3  17.9   0.0   0.0
 1994 128    31  21.0  20.8  20.4  20.0  19.5  18.8  18.2  17.8   0.0   0.0
 1994 129    32  20.1  20.0  19.8  19.5  19.1  18.6  18.0  17.7   0.0   0.0
 1994 130    33  18.8  18.9  18.9  18.9  18.7  18.3  17.8  17.6   0.0   0.0
 1994 131    34  16.8  17.2  17.6  17.8  17.9  17.8  17.5  17.3   0.0   0.0
 1994 132    35  15.6  16.1  16.7  17.2  17.4  17.4  17.3  17.2   0.0   0.0
 1994 133    36  15.8  16.3  16.9  17.3  17.5  17.5  17.4  17.2   0.0   0.0
 1994 134    37  16.5  16.9  17.4  17.7  17.8  17.7  17.5  17.3   0.0   0.0
 1994 135    38  17.6  17.9  18.1  18.2  18.2  18.0  17.7  17.4   0.0   0.0
 1994 136    39  18.7  18.8  18.9  18.8  18.6  18.2  17.8  17.6   0.0   0.0
 1994 137    40  19.3  19.3  19.3  19.1  18.9  18.4  17.9  17.6   0.0   0.0
 1994 138    41  19.3  19.3  19.3  19.1  18.9  18.4  17.9  17.7   0.0   0.0
 1994 139    42  19.6  19.6  19.5  19.3  19.0  18.5  18.0  17.7   0.0   0.0
 1994 140    43  19.1  19.1  19.1  19.0  18.8  18.4  17.9  17.6   0.0   0.0
 1994 141    44  19.3  19.3  19.3  19.1  18.9  18.4  18.0  17.7   0.0   0.0
 1994 142    45  19.3  19.3  19.3  19.1  18.9  18.4  18.0  17.7   0.0   0.0
 1994 143    46  20.2  20.1  19.9  19.5  19.2  18.7  18.1  17.8   0.0   0.0
 1994 144    47  20.2  20.1  19.9  19.6  19.2  18.7  18.1  17.8   0.0   0.0
 1994 145    48  20.3  20.1  19.9  19.6  19.2  18.7  18.1  17.8   0.0   0.0
 1994 146    49  19.5  19.4  19.3  19.2  18.9  18.5  18.0  17.7   0.0   0.0
 1994 147    50  18.1  18.3  18.4  18.5  18.4  18.1  17.8  17.6   0.0   0.0
 1994 148    51  16.0  16.4  17.0  17.4  17.6  17.6  17.5  17.3   0.0   0.0
 1994 149    52  14.5  15.1  15.9  16.6  17.0  17.2  17.2  17.2   0.0   0.0
 1994 150    53  13.5  14.3  15.3  16.1  16.6  17.0  17.1  17.0   0.0   0.0
 1994 151    54  13.4  14.1  15.2  16.0  16.5  16.9  17.1  17.0   0.0   0.0
 1994 152    55  14.2  14.8  15.7  16.4  16.9  17.1  17.2  17.1   0.0   0.0
 1994 153    56  15.1  15.7  16.4  16.9  17.2  17.4  17.3  17.2   0.0   0.0
 1994 154    57  15.7  16.2  16.7  17.2  17.4  17.5  17.4  17.3   0.0   0.0
 1994 155    58  16.4  16.7  17.2  17.5  17.7  17.7  17.5  17.4   0.0   0.0
 1994 156    59  16.3  16.6  17.1  17.5  17.6  17.7  17.5  17.4   0.0   0.0
 1994 157    60  15.7  16.1  16.7  17.2  17.4  17.5  17.4  17.3   0.0   0.0
 1994 158    61  14.7  15.3  16.0  16.7  17.0  17.3  17.3  17.2   0.0   0.0
 1994 159    62  13.9  14.6  15.5  16.2  16.7  17.1  17.2  17.1   0.0   0.0
 1994 160    63  13.2  14.0  15.0  15.9  16.4  16.9  17.0  17.0   0.0   0.0
 1994 161    64  13.7  14.4  15.3  16.1  16.6  17.0  17.1  17.1   0.0   0.0
 1994 162    65  14.6  15.2  15.9  16.6  17.0  17.2  17.3  17.2   0.0   0.0
 1994 163    66  16.4  16.7  17.2  17.5  17.7  17.7  17.6  17.4   0.0   0.0
 1994 164    67  17.8  17.9  18.1  18.2  18.2  18.0  17.8  17.6   0.0   0.0
 1994 165    68  19.5  19.4  19.2  19.1  18.8  18.5  18.1  17.8   0.0   0.0
 1994 166    69  19.8  19.7  19.5  19.2  19.0  18.5  18.1  17.8   0.0   0.0
 1994 167    70  19.9  19.7  19.5  19.2  19.0  18.6  18.1  17.8   0.0   0.0
 1994 168    71  19.3  19.2  19.1  18.9  18.7  18.4  18.0  17.8   0.0   0.0
 1994 169    72  19.6  19.5  19.3  19.1  18.9  18.5  18.1  17.8   0.0   0.0
 1994 170    73  18.2  18.3  18.3  18.4  18.3  18.1  17.9  17.7   0.0   0.0
 1994 171    74  17.2  17.3  17.6  17.8  17.9  17.9  17.7  17.5   0.0   0.0
 1994 172    75  15.9  16.2  16.7  17.1  17.4  17.5  17.5  17.4   0.0   0.0
 1994 173    76  14.7  15.2  15.9  16.5  16.9  17.2  17.3  17.2   0.0   0.0
 1994 174    77  13.2  13.9  14.8  15.7  16.3  16.8  17.0  17.1   0.0   0.0
 1994 175    78  12.2  13.0  14.2  15.2  15.9  16.6  16.9  17.0   0.0   0.0
 1994 176    79  11.3  12.2  13.5  14.7  15.5  16.3  16.7  16.8   0.0   0.0
 1994 177    80  11.0  11.9  13.3  14.5  15.4  16.2  16.7  16.8   0.0   0.0
 1994 178    81  10.3  11.3  12.8  14.2  15.1  16.1  16.6  16.7   0.0   0.0
 1994 179    82   9.8  10.9  12.4  13.9  14.9  15.9  16.5  16.7   0.0   0.0
 1994 180    83  10.2  11.3  12.8  14.1  15.1  16.0  16.5  16.7   0.0   0.0
 1994 181    84  11.8  12.6  13.8  14.9  15.7  16.4  16.8  16.9   0.0   0.0
 1994 182    85  12.2  13.0  14.1  15.1  15.9  16.5  16.9  16.9   0.0   0.0
 1994 183    86  13.1  13.8  14.7  15.6  16.2  16.8  17.0  17.1   0.0   0.0
 1994 184    87  13.6  14.2  15.0  15.8  16.4  16.9  17.1  17.1   0.0   0.0
 1994 185    88  13.1  13.8  14.7  15.5  16.2  16.7  17.0  17.0   0.0   0.0
 1994 186    89  12.0  12.8  13.9  15.0  15.7  16.5  16.8  16.9   0.0   0.0
 1994 187    90  11.6  12.4  13.6  14.7  15.5  16.3  16.7  16.9   0.0   0.0
 1994 188    91  10.8  11.7  13.1  14.3  15.2  16.1  16.6  16.8   0.0   0.0
 1994 189    92   9.8  10.9  12.4  13.8  14.8  15.8  16.4  16.6   0.0   0.0
 1994 190    93   9.3  10.4  12.0  13.5  14.6  15.7  16.3  16.6   0.0   0.0
 1994 191    94   8.9  10.1  11.7  13.3  14.4  15.6  16.3  16.5   0.0   0.0
 1994 192    95   8.8   9.9  11.6  13.2  14.4  15.5  16.2  16.5   0.0   0.0
 1994 193    96   9.8  10.8  12.3  13.7  14.8  15.8  16.4  16.6   0.0   0.0
 1994 194    97  11.6  12.4  13.5  14.6  15.4  16.3  16.7  16.8   0.0   0.0

*DSSAT Cropping System Model Ver. 4.0.2.000               Aug 01, 2016; 15:44:49

*RUN  21        : UYMZ                    
 MODEL          : MZCER040 - Maize           
 EXPERIMENT     : UYMZ0105 MZ    late to create DSS                             
 TREATMENT  1   : UYMZ                    

@YEAR DOY   DAS  TS1D  TS2D  TS3D  TS4D  TS5D  TS6D  TS7D  TS8D  TS9D  TS10
 1995 097     0  30.4  28.9  26.7  24.6  22.8  20.8  19.3  18.5   0.0   0.0
 1995 098     1  29.3  28.0  26.0  24.0  22.4  20.5  19.1  18.4   0.0   0.0
 1995 099     2  27.0  26.0  24.4  22.9  21.5  19.9  18.8  18.2   0.0   0.0
 1995 100     3  24.2  23.6  22.6  21.5  20.5  19.3  18.3  17.9   0.0   0.0
 1995 101     4  21.7  21.4  20.9  20.2  19.5  18.7  18.0  17.6   0.0   0.0
 1995 102     5  19.4  19.4  19.3  19.0  18.7  18.1  17.6  17.4   0.0   0.0
 1995 103     6  18.4  18.5  18.6  18.5  18.3  17.9  17.5  17.2   0.0   0.0
 1995 104     7  19.1  19.1  19.1  18.9  18.6  18.1  17.6  17.3   0.0   0.0
 1995 105     8  20.6  20.5  20.1  19.7  19.2  18.5  17.9  17.5   0.0   0.0
 1995 106     9  21.6  21.4  20.9  20.2  19.6  18.7  18.0  17.6   0.0   0.0
 1995 107    10  22.7  22.3  21.6  20.8  20.0  19.0  18.2  17.8   0.0   0.0
 1995 108    11  23.2  22.7  21.9  21.0  20.2  19.1  18.3  17.8   0.0   0.0
 1995 109    12  22.1  21.8  21.2  20.5  19.8  18.9  18.1  17.7   0.0   0.0
 1995 110    13  20.1  20.0  19.8  19.4  19.0  18.4  17.8  17.5   0.0   0.0
 1995 111    14  18.8  18.9  18.9  18.8  18.5  18.1  17.6  17.4   0.0   0.0
 1995 112    15  17.8  18.0  18.3  18.3  18.2  17.8  17.5  17.3   0.0   0.0
 1995 113    16  17.6  17.9  18.1  18.2  18.1  17.8  17.5  17.3   0.0   0.0
 1995 114    17  18.7  18.8  18.8  18.7  18.5  18.1  17.6  17.4   0.0   0.0
 1995 115    18  19.9  19.8  19.7  19.4  19.0  18.4  17.8  17.5   0.0   0.0
 1995 116    19  20.7  20.6  20.2  19.8  19.3  18.6  18.0  17.6   0.0   0.0
 1995 117    20  20.4  20.3  20.1  19.7  19.2  18.5  17.9  17.6   0.0   0.0
 1995 118    21  20.3  20.2  20.0  19.6  19.2  18.5  17.9  17.6   0.0   0.0
 1995 119    22  19.4  19.4  19.4  19.1  18.8  18.3  17.8  17.5   0.0   0.0
 1995 120    23  18.9  19.0  19.0  18.9  18.6  18.2  17.7  17.5   0.0   0.0
 1995 121    24  18.2  18.4  18.6  18.5  18.4  18.0  17.6  17.4   0.0   0.0
 1995 122    25  18.5  18.7  18.8  18.7  18.5  18.1  17.7  17.5   0.0   0.0
 1995 123    26  18.6  18.8  18.8  18.8  18.6  18.2  17.7  17.5   0.0   0.0
 1995 124    27  18.6  18.7  18.8  18.7  18.5  18.1  17.7  17.5   0.0   0.0
 1995 125    28  17.6  17.8  18.1  18.2  18.1  17.9  17.6  17.4   0.0   0.0
 1995 126    29  17.4  17.7  18.0  18.1  18.1  17.9  17.6  17.4   0.0   0.0
 1995 127    30  17.4  17.7  18.0  18.1  18.1  17.9  17.6  17.4   0.0   0.0
 1995 128    31  17.4  17.7  18.0  18.2  18.1  17.9  17.6  17.4   0.0   0.0
 1995 129    32  17.7  18.0  18.2  18.3  18.2  18.0  17.6  17.4   0.0   0.0
 1995 130    33  19.1  19.2  19.2  19.0  18.8  18.3  17.9  17.6   0.0   0.0
 1995 131    34  19.8  19.8  19.6  19.4  19.0  18.5  18.0  17.7   0.0   0.0
 1995 132    35  19.8  19.7  19.6  19.4  19.0  18.5  18.0  17.7   0.0   0.0
 1995 133    36  19.1  19.2  19.2  19.0  18.8  18.3  17.9  17.6   0.0   0.0
 1995 134    37  19.3  19.3  19.3  19.1  18.9  18.4  17.9  17.6   0.0   0.0
 1995 135    38  19.0  19.0  19.1  18.9  18.7  18.3  17.9  17.6   0.0   0.0
 1995 136    39  18.0  18.2  18.4  18.5  18.4  18.1  17.7  17.5   0.0   0.0
 1995 137    40  16.9  17.3  17.6  17.9  17.9  17.8  17.6  17.4   0.0   0.0
 1995 138    41  16.1  16.5  17.1  17.4  17.6  17.6  17.4  17.3   0.0   0.0
 1995 139    42  15.1  15.7  16.4  16.9  17.2  17.4  17.3  17.2   0.0   0.0
 1995 140    43  14.6  15.3  16.1  16.7  17.0  17.2  17.2  17.1   0.0   0.0
 1995 141    44  14.7  15.3  16.1  16.7  17.1  17.2  17.2  17.1   0.0   0.0
 1995 142    45  14.6  15.2  16.0  16.6  17.0  17.2  17.2  17.1   0.0   0.0
 1995 143    46  14.2  14.9  15.7  16.5  16.9  17.1  17.1  17.1   0.0   0.0
 1995 144    47  13.8  14.5  15.5  16.2  16.7  17.0  17.1  17.0   0.0   0.0
 1995 145    48  13.3  14.1  15.2  16.0  16.5  16.9  17.0  17.0   0.0   0.0
 1995 146    49  13.4  14.2  15.2  16.0  16.6  16.9  17.0  17.0   0.0   0.0
 1995 147    50  13.7  14.4  15.4  16.2  16.7  17.0  17.1  17.0   0.0   0.0
 1995 148    51  14.1  14.8  15.7  16.4  16.8  17.1  17.2  17.1   0.0   0.0
 1995 149    52  13.9  14.6  15.5  16.3  16.8  17.1  17.1  17.1   0.0   0.0
 1995 150    53  14.0  14.7  15.6  16.4  16.8  17.1  17.2  17.1   0.0   0.0
 1995 151    54  14.2  14.9  15.7  16.4  16.9  17.1  17.2  17.1   0.0   0.0
 1995 152    55  14.1  14.8  15.6  16.4  16.8  17.1  17.2  17.1   0.0   0.0
 1995 153    56  14.1  14.8  15.7  16.4  16.8  17.1  17.2  17.1   0.0   0.0
 1995 154    57  15.1  15.6  16.3  16.9  17.2  17.4  17.3  17.2   0.0   0.0
 1995 155    58  16.5  16.9  17.3  17.6  17.8  17.7  17.6  17.4   0.0   0.0
 1995 156    59  16.6  16.9  17.3  17.6  17.8  17.7  17.6  17.4   0.0   0.0
 1995 157    60  16.3  16.7  17.1  17.5  17.7  17.7  17.5  17.4   0.0   0.0
 1995 158    61  15.8  16.2  16.8  17.2  17.5  17.6  17.5  17.3   0.0   0.0
 1995 159    62  15.3  15.8  16.5  17.0  17.3  17.4  17.4  17.3   0.0   0.0
 1995 160    63  13.8  14.5  15.4  16.2  16.7  17.0  17.1  17.1   0.0   0.0
 1995 161    64  13.1  13.9  14.9  15.8  16.4  16.9  17.0  17.0   0.0   0.0
 1995 162    65  14.0  14.6  15.5  16.2  16.7  17.1  17.2  17.1   0.0   0.0
 1995 163    66  13.6  14.2  15.2  16.0  16.5  17.0  17.1  17.1   0.0   0.0
 1995 164    67  12.7  13.5  14.6  15.5  16.2  16.7  17.0  17.0   0.0   0.0
 1995 165    68  11.7  12.6  13.9  15.0  15.8  16.5  16.8  16.9   0.0   0.0
 1995 166    69  10.9  11.9  13.3  14.6  15.5  16.3  16.7  16.8   0.0   0.0
 1995 167    70   9.6  10.8  12.4  13.9  15.0  15.9  16.5  16.6   0.0   0.0
 1995 168    71   9.8  11.0  12.6  14.0  15.0  16.0  16.5  16.7   0.0   0.0
 1995 169    72  10.1  11.2  12.7  14.1  15.1  16.0  16.5  16.7   0.0   0.0
 1995 170    73  10.2  11.3  12.8  14.2  15.2  16.1  16.6  16.7   0.0   0.0
 1995 171    74  10.8  11.9  13.3  14.5  15.4  16.2  16.7  16.8   0.0   0.0
 1995 172    75  11.5  12.4  13.7  14.9  15.7  16.4  16.8  16.9   0.0   0.0
 1995 173    76  12.5  13.3  14.4  15.4  16.1  16.7  16.9  17.0   0.0   0.0
 1995 174    77  13.7  14.4  15.2  16.0  16.5  17.0  17.1  17.1   0.0   0.0
 1995 175    78  15.4  15.8  16.3  16.8  17.2  17.4  17.4  17.3   0.0   0.0
 1995 176    79  15.3  15.7  16.3  16.8  17.1  17.4  17.4  17.3   0.0   0.0
 1995 177    80  14.9  15.3  16.0  16.6  16.9  17.2  17.3  17.3   0.0   0.0
 1995 178    81  13.7  14.3  15.1  15.9  16.5  16.9  17.1  17.1   0.0   0.0
 1995 179    82  11.9  12.8  13.9  15.0  15.8  16.5  16.8  16.9   0.0   0.0
 1995 180    83  10.3  11.3  12.8  14.1  15.1  16.0  16.5  16.7   0.0   0.0
 1995 181    84  11.0  11.9  13.2  14.5  15.4  16.2  16.7  16.8   0.0   0.0
 1995 182    85  11.7  12.5  13.7  14.8  15.6  16.4  16.8  16.9   0.0   0.0
 1995 183    86  12.4  13.1  14.2  15.1  15.9  16.5  16.9  17.0   0.0   0.0
 1995 184    87  13.3  13.9  14.8  15.6  16.2  16.8  17.0  17.1   0.0   0.0
 1995 185    88  15.0  15.4  16.0  16.5  16.9  17.2  17.3  17.3   0.0   0.0
 1995 186    89  14.5  15.0  15.6  16.2  16.7  17.1  17.2  17.2   0.0   0.0
 1995 187    90  14.1  14.6  15.3  16.0  16.5  16.9  17.1  17.2   0.0   0.0
 1995 188    91  14.0  14.5  15.3  16.0  16.5  16.9  17.1  17.1   0.0   0.0
 1995 189    92  14.8  15.2  15.8  16.3  16.7  17.1  17.2  17.2   0.0   0.0
 1995 190    93  14.6  15.0  15.6  16.2  16.7  17.0  17.2  17.2   0.0   0.0
 1995 191    94  15.5  15.8  16.2  16.7  17.0  17.3  17.3  17.3   0.0   0.0
 1995 192    95  15.6  15.8  16.3  16.7  17.0  17.3  17.3  17.3   0.0   0.0
 1995 193    96  15.6  15.9  16.3  16.7  17.0  17.3  17.4  17.3   0.0   0.0
 1995 194    97  15.3  15.6  16.0  16.5  16.9  17.2  17.3  17.3   0.0   0.0
 1995 195    98  14.7  15.0  15.6  16.2  16.6  17.0  17.2  17.2   0.0   0.0
 1995 196    99  13.4  13.9  14.7  15.5  16.1  16.7  17.0  17.0   0.0   0.0
 1995 197   100  12.3  12.9  13.9  14.9  15.6  16.4  16.8  16.9   0.0   0.0
 1995 198   101  11.1  11.9  13.1  14.3  15.2  16.1  16.6  16.8   0.0   0.0
 1995 199   102  10.6  11.4  12.7  14.0  15.0  15.9  16.5  16.7   0.0   0.0
 1995 200   103  10.0  11.0  12.3  13.7  14.7  15.8  16.4  16.6   0.0   0.0
 1995 201   104   9.9  10.9  12.3  13.6  14.7  15.7  16.4  16.6   0.0   0.0
 1995 202   105  10.6  11.5  12.8  14.0  14.9  15.9  16.5  16.7   0.0   0.0
 1995 203   106  12.0  12.7  13.7  14.7  15.5  16.2  16.7  16.9   0.0   0.0
 1995 204   107  14.1  14.5  15.1  15.8  16.3  16.8  17.0  17.1   0.0   0.0
 1995 205   108  15.5  15.7  16.1  16.5  16.8  17.1  17.2  17.3   0.0   0.0
 1995 206   109  16.4  16.5  16.6  16.9  17.1  17.3  17.4  17.3   0.0   0.0
 1995 207   110  17.1  17.1  17.2  17.3  17.4  17.5  17.5  17.4   0.0   0.0
 1995 208   111  17.0  17.0  17.0  17.2  17.3  17.4  17.5  17.4   0.0   0.0
 1995 209   112  15.5  15.7  16.0  16.4  16.7  17.1  17.2  17.2   0.0   0.0
 1995 210   113  14.2  14.6  15.1  15.7  16.2  16.7  17.0  17.1   0.0   0.0
 1995 211   114  13.6  14.0  14.7  15.4  16.0  16.5  16.9  17.0   0.0   0.0
 1995 212   115  13.0  13.5  14.3  15.1  15.7  16.4  16.8  16.9   0.0   0.0
 1995 213   116  12.4  13.0  13.9  14.8  15.5  16.2  16.7  16.9   0.0   0.0
 1995 214   117  11.1  11.9  12.9  14.1  14.9  15.9  16.5  16.7   0.0   0.0
 1995 215   118  11.1  11.8  12.9  14.0  14.9  15.9  16.4  16.7   0.0   0.0
 1995 216   119  11.2  11.9  13.0  14.1  15.0  15.9  16.5  16.7   0.0   0.0
 1995 217   120  11.2  11.9  13.0  14.1  14.9  15.9  16.4  16.7   0.0   0.0
 1995 218   121  11.5  12.1  13.1  14.2  15.0  15.9  16.5  16.7   0.0   0.0
