*SOIL NITROGEN DAILY OUTPUT FILE

*DSSAT Cropping System Model Ver. 4.0.2.000               Aug 01, 2016; 15:44:49

*RUN   1        : UYMZ                    
 MODEL          : MZCER040 - Maize           
 EXPERIMENT     : UYMZ0105 MZ    late to create DSS                             
 TREATMENT  1   : UYMZ                    

@YEAR DOY   DAS  NAPC  NI#M    NLCC   NIAD    NOAD   NITD   NHTD  NI1D  NI2D  NI3D  NI4D  NI5D  NI6D  NI7D  NI8D  NI9D  NI10  NH1D  NH2D  NH3D  NH4D  NH5D  NH6D  NH7D  NH8D  NH9D  NH10    NMNC    NITC    NDNC    NIMC    AMLC
 1975 097     0     0     0     0.0   99.5   16645   77.4   22.2  16.7  15.5  15.2   8.6   4.6   0.0   0.1   0.1   0.0   0.0   0.0   1.2   1.4   1.4   1.4  1.50  1.46  1.45  0.00  0.00    0.79    2.57    0.00    0.00    0.00
 1975 098     1     0     0     0.0  100.3   16644   78.9   21.5  16.7  15.9  15.4   8.8   4.7   0.0   0.1   0.1   0.0   0.0   0.2   0.9   1.4   1.3   1.4  1.51  1.43  1.41  0.00  0.00    1.58    4.07    0.00    0.00    0.00
 1975 099     2     0     0     0.0  101.1   16644   80.3   20.8  16.9  16.2  15.6   8.9   4.8   0.1   0.2   0.2   0.0   0.0   0.1   0.8   1.4   1.3   1.3  1.51  1.39  1.36  0.00  0.00    2.35    5.53    0.00    0.00    0.00
 1975 100     3     0     1     0.0  101.9   16643   81.6   20.2   6.0  16.5  19.4   9.0   4.9   0.1   0.2   0.2   0.0   0.0   0.1   0.7   1.3   1.2   1.3  1.51  1.36  1.32  0.00  0.00    3.11    6.83    0.00    0.00    0.00
 1975 101     4     0     1     0.0  102.6   16642   82.7   20.0   6.2  16.0  19.8   9.2   4.9   0.1   0.2   0.3   0.0   0.0   0.1   0.8   1.3   1.1   1.2  1.52  1.33  1.28  0.00  0.00    3.84    7.84    0.00    0.00    0.00
 1975 102     5     0     1     0.0  103.3   16641   83.8   19.5   6.3  16.1  20.0   9.3   5.0   0.1   0.3   0.3   0.0   0.0   0.1   0.7   1.3   1.1   1.2  1.52  1.29  1.24  0.00  0.00    4.56    9.03    0.00    0.00    0.00
 1975 103     6     0     1     0.0  104.0   16641   84.9   19.1   6.4  16.2  20.1   9.5   5.1   0.1   0.3   0.3   0.0   0.0   0.1   0.7   1.3   1.1   1.1  1.52  1.26  1.21  0.00  0.00    5.25   10.11    0.00    0.00    0.00
 1975 104     7     0     1     0.0  104.7   16640   86.0   18.7   6.6  16.4  20.2   9.6   5.1   0.2   0.4   0.4   0.0   0.0   0.1   0.6   1.2   1.0   1.1  1.53  1.24  1.17  0.00  0.00    5.94   11.15    0.00    0.00    0.00
 1975 105     8     0     1     0.0  105.4   16639   87.0   18.4   6.8  16.5  20.2   9.8   5.2   0.2   0.4   0.4   0.0   0.0   0.1   0.6   1.2   1.0   1.0  1.53  1.21  1.14  0.00  0.00    6.61   12.15    0.00    0.00    0.00
 1975 106     9     0     1     0.0  106.0   16639   87.9   18.1   6.9  16.6  20.3   9.9   5.2   0.2   0.4   0.5   0.0   0.0   0.1   0.6   1.2   0.9   1.0  1.53  1.18  1.10  0.00  0.00    7.27   13.10    0.00    0.00    0.00
 1975 107    10     0     1     0.0  106.7   16638   88.8   17.9   7.1  16.7  20.4  10.0   5.3   0.2   0.5   0.5   0.0   0.0   0.1   0.6   1.2   0.9   1.0  1.53  1.16  1.07  0.00  0.00    7.91   14.01    0.00    0.00    0.00
 1975 108    11     0     1     0.0  107.3   16637   89.7   17.6   7.3  16.8  20.5  10.1   5.3   0.2   0.5   0.5   0.0   0.0   0.1   0.5   1.2   0.9   1.0  1.54  1.13  1.04  0.00  0.00    8.56   14.92    0.00    0.00    0.00
 1975 109    12     0     1     0.0  108.0   16637   90.6   17.4   7.6  16.9  20.5  10.3   5.4   0.3   0.6   0.6   0.0   0.0   0.1   0.5   1.2   0.9   0.9  1.54  1.11  1.01  0.00  0.00    9.22   15.82    0.00    0.00    0.00
 1975 110    13    10     2     0.0  118.7   16636   96.6   22.1  16.8  16.9  20.6  10.4   5.4   0.3   0.6   0.6   0.0   0.0   9.0   0.5   1.2   0.8   0.9  1.54  1.08  0.98  0.00  0.00    9.92   16.76    0.00    0.00    0.03
 1975 111    14    10     2     0.0  119.2   16635  102.4   16.8  25.9  17.0  20.8  10.5   5.5   0.3   0.6   0.6   0.0   0.0   0.0   0.5   1.2   0.8   0.9  1.54  1.06  0.95  0.00  0.00   10.66   22.67    0.00    0.00    0.07
 1975 112    15    10     2     0.0  119.9   16635  103.3   16.7  26.0  17.1  20.9  10.6   5.5   0.3   0.7   0.7   0.0   0.0   0.1   0.5   1.2   0.8   0.9  1.55  1.04  0.92  0.00  0.00   11.43   23.60    0.00    0.00    0.07
 1975 113    16    10     2     0.0  120.7   16634  104.3   16.3  26.3  17.2  21.0  10.7   5.6   0.3   0.7   0.7   0.0   0.0   0.0   0.5   1.1   0.8   0.8  1.55  1.01  0.89  0.00  0.00   12.19   24.66    0.00    0.00    0.09
 1975 114    17    10     2     0.0  121.4   16633  105.2   16.1  26.4  17.3  21.1  10.8   5.7   0.4   0.7   0.7   0.0   0.0   0.1   0.4   1.1   0.8   0.8  1.55  0.99  0.87  0.00  0.00   12.93   25.59    0.00    0.00    0.10
 1975 115    18    10     2     0.0  122.0   16632  106.1   15.9  26.6  17.3  21.3  10.9   5.7   0.4   0.8   0.8   0.0   0.0   0.1   0.4   1.1   0.7   0.8  1.56  0.97  0.84  0.00  0.00   13.63   26.52    0.00    0.00    0.12
 1975 116    19    10     2     0.0  122.7   16632  107.0   15.7  26.8  17.4  21.4  11.0   5.7   0.4   0.8   0.8   0.0   0.0   0.1   0.4   1.1   0.7   0.8  1.56  0.95  0.82  0.00  0.00   14.33   27.40    0.00    0.00    0.13
 1975 117    20    10     2     0.0  123.3   16631  107.8   15.5  27.0  17.5  21.5  11.1   5.8   0.4   0.8   0.8   0.0   0.0   0.1   0.4   1.1   0.7   0.8  1.56  0.93  0.79  0.00  0.00   15.02   28.27    0.00    0.00    0.15
 1975 118    21    10     2     0.0  123.7   16630  108.4   15.3  27.0  17.4  21.6  11.1   5.8   0.4   0.9   0.8   0.0   0.0   0.1   0.4   1.1   0.7   0.7  1.56  0.91  0.77  0.00  0.00   15.66   29.06    0.00    0.00    0.17
 1975 119    22    10     2     0.0  124.0   16630  108.8   15.2  13.4  19.8  24.5  11.2   5.9   0.5   0.9   0.9   0.0   0.0   0.1   0.4   1.0   0.7   0.7  1.57  0.89  0.75  0.00  0.00   16.33   29.87    0.00    0.00    0.18
 1975 120    23    10     2     0.0  124.3   16629  109.1   15.2  13.1  19.2  24.8  11.4   5.9   0.5   0.9   0.9   0.0   0.0   0.1   0.5   1.1   0.7   0.7  1.57  0.88  0.73  0.00  0.00   17.03   30.55    0.00    0.00    0.18
 1975 121    24    10     2     0.0  124.4   16628  109.2   15.2  13.0  18.9  24.7  11.6   5.9   0.5   0.9   0.9   0.0   0.0   0.1   0.6   1.1   0.7   0.7  1.57  0.86  0.71  0.00  0.00   17.69   31.20    0.00    0.00    0.21
 1975 122    25    10     2     0.0  124.8   16628  109.7   15.1   9.5  18.5  25.4  12.4   6.0   0.5   1.0   0.9   0.0   0.0   0.1   0.6   1.1   0.7   0.7  1.57  0.84  0.69  0.00  0.00   18.30   31.90    0.00    0.00    0.21
 1975 123    26    10     2     0.0  125.2   16627  110.0   15.2   9.4  18.2  24.8  13.0   6.0   0.5   1.0   1.0   0.0   0.0   0.2   0.6   1.1   0.7   0.7  1.57  0.83  0.67  0.00  0.00   18.88   32.31    0.00    0.00    0.22
 1975 124    27    10     2     0.0  125.4   16627  110.1   15.3   9.6  18.0  24.5  13.4   6.1   0.6   1.0   1.0   0.0   0.0   0.1   0.7   1.2   0.6   0.7  1.58  0.82  0.65  0.00  0.00   19.43   32.77    0.00    0.00    0.22
 1975 125    28    10     2     0.0  125.4   16626  110.3   15.1  10.0  17.7  24.4  13.5   6.1   0.6   1.0   1.0   0.0   0.0   0.1   0.7   1.2   0.6   0.7  1.58  0.80  0.64  0.00  0.00   19.96   33.45    0.00    0.00    0.22
 1975 126    29    10     2     0.0  125.6   16626  110.6   15.0  10.4  17.6  24.3  13.5   6.2   0.6   1.1   1.0   0.0   0.0   0.1   0.6   1.2   0.6   0.7  1.58  0.79  0.62  0.00  0.00   20.49   34.10    0.00    0.00    0.23
 1975 127    30    10     2     0.0  125.8   16625  111.0   14.9  10.8  17.4  24.2  13.6   6.2   0.6   1.1   1.0   0.0   0.0   0.1   0.6   1.2   0.6   0.7  1.58  0.78  0.60  0.00  0.00   21.03   34.76    0.00    0.00    0.23
 1975 128    31    10     2     0.0  126.1   16624  111.3   14.8  11.2  17.3  24.2  13.7   6.3   0.6   1.1   1.1   0.0   0.0   0.1   0.6   1.2   0.6   0.7  1.59  0.76  0.59  0.00  0.00   21.61   35.45    0.00    0.00    0.23
 1975 129    32    10     2     0.0  126.4   16624  111.7   14.7  11.5  17.2  24.2  13.7   6.3   0.6   1.1   1.1   0.0   0.0   0.1   0.6   1.2   0.6   0.6  1.59  0.75  0.57  0.00  0.00   22.20   36.15    0.00    0.00    0.23
 1975 130    33    10     2     0.0  126.5   16623  112.0   14.5  11.8  17.0  24.1  13.7   6.4   0.7   1.2   1.1   0.0   0.0   0.1   0.6   1.2   0.6   0.6  1.59  0.74  0.56  0.00  0.00   22.85   36.89    0.00    0.00    0.24
 1975 131    34    10     2     0.0  126.3   16623  111.9   14.4   3.9  11.1  21.1  15.6  10.1   1.9   1.3   1.1   0.0   0.0   0.1   0.5   1.1   0.6   0.6  1.59  0.73  0.54  0.00  0.00   23.52   37.67    0.00    0.00    0.24
 1975 132    35    10     2     0.5  125.7   16622  110.8   15.0   3.8  10.7  20.2  15.2  10.1   2.2   1.3   1.2   0.0   0.0   0.2   0.6   1.2   0.7   0.7  1.61  0.73  0.54  0.00  0.00   24.21   37.79    0.00    0.00    0.24
 1975 133    36    10     2     0.5  125.8   16621  110.5   15.3   3.1   9.9  19.8  15.5  10.4   2.3   1.4   1.2   0.0   0.0   0.0   0.7   1.3   0.7   0.7  1.63  0.74  0.54  0.00  0.00   24.89   38.08    0.00    0.00    0.28
 1975 134    37    10     2     2.0  124.3   16620  108.5   15.8   1.2   6.1  15.1  14.0  11.6   4.4   2.4   1.6   0.0   0.0   0.2   0.8   1.4   0.7   0.7  1.65  0.74  0.54  0.00  0.00   25.55   38.22    0.00    0.00    0.29
 1975 135    38    10     2     2.2  124.0   16620  107.8   16.2   1.1   5.8  14.6  13.8  11.6   4.5   2.5   1.6   0.0   0.0   0.2   0.9   1.5   0.7   0.7  1.66  0.75  0.54  0.00  0.00   26.14   38.34    0.00    0.00    0.29
 1975 136    39    10     2     2.9  122.4   16619  105.9   16.5   1.2   5.6  13.8  13.3  11.4   4.6   2.6   1.7   0.0   0.0   0.1   1.0   1.5   0.8   0.8  1.68  0.76  0.54  0.00  0.00   26.72   38.56    0.54    0.00    0.34
 1975 137    40    10     2     3.4  120.8   16619  104.0   16.8   1.2   5.3  13.1  13.0  11.2   4.7   2.7   1.7   0.0   0.0   0.1   1.0   1.6   0.8   0.8  1.70  0.76  0.54  0.00  0.00   27.29   38.74    0.83    0.00    0.34
 1975 138    41    10     2     3.6  120.4   16618  103.5   16.9   1.4   5.3  12.9  12.8  11.1   4.7   2.7   1.8   0.0   0.0   0.1   0.9   1.6   0.8   0.8  1.71  0.77  0.54  0.00  0.00   27.83   39.12    0.96    0.00    0.34
 1975 139    42    10     2     3.7  120.3   16618  103.4   16.9   1.5   5.3  12.8  12.7  11.1   4.7   2.7   1.8   0.0   0.0   0.1   0.8   1.6   0.8   0.8  1.73  0.77  0.54  0.00  0.00   28.35   39.64    1.01    0.00    0.34
 1975 140    43    10     2     3.7  120.2   16617  103.4   16.9   1.7   5.4  12.7  12.6  11.1   4.7   2.7   1.8   0.0   0.0   0.1   0.8   1.5   0.9   0.9  1.74  0.77  0.54  0.00  0.00   28.88   40.14    1.05    0.00    0.35
 1975 141    44    10     2     3.8  120.0   16617  103.2   16.9   1.9   5.4  12.6  12.6  11.1   4.7   2.8   1.8   0.0   0.0   0.1   0.7   1.5   0.9   0.9  1.75  0.78  0.53  0.00  0.00   29.40   40.63    1.08    0.00    0.35
 1975 142    45    10     2     3.8  119.5   16616  102.6   16.8   2.0   5.4  12.3  12.5  11.1   4.7   2.7   1.8   0.0   0.0   0.1   0.7   1.4   0.9   0.9  1.77  0.78  0.53  0.00  0.00   29.94   41.12    1.10    0.00    0.35
 1975 143    46    10     2     3.8  118.4   16616  101.6   16.7   2.1   5.3  11.9  12.3  11.1   4.7   2.7   1.8   0.0   0.0   0.1   0.6   1.3   0.9   0.9  1.78  0.79  0.53  0.00  0.00   30.52   41.71    1.11    0.00    0.35
 1975 144    47    10     2     3.8  118.5   16615  101.8   16.7   2.2   5.3  11.9  12.3  11.1   4.8   2.7   1.8   0.0   0.0   0.1   0.6   1.3   0.8   0.9  1.80  0.79  0.53  0.00  0.00   31.11   42.32    1.13    0.00    0.36
 1975 145    48    10     2     3.8  118.0   16614  101.3   16.7   2.4   5.3  11.6  12.3  11.1   4.8   2.8   1.8   0.0   0.0   0.1   0.6   1.3   0.8   0.9  1.81  0.79  0.53  0.00  0.00   31.74   42.94    1.14    0.00    0.36
 1975 146    49    10     2     3.8  115.2   16614   98.6   16.5   2.3   5.0  10.6  11.9  11.1   4.8   2.8   1.8   0.0   0.0   0.1   0.6   1.2   0.8   1.0  1.83  0.79  0.52  0.00  0.00   32.38   43.56    1.15    0.00    0.36
 1975 147    50    10     2     3.8  114.5   16613   98.0   16.5   2.4   4.9  10.3  11.8  11.1   4.8   2.8   1.8   0.0   0.0   0.1   0.5   1.2   0.8   1.0  1.84  0.80  0.52  0.00  0.00   33.03   44.17    1.16    0.00    0.37
 1975 148    51    10     2     3.8  113.4   16612   96.9   16.5   2.5   4.8   9.9  11.6  11.1   4.8   2.8   1.8   0.0   0.0   0.1   0.5   1.1   0.7   1.0  1.86  0.80  0.52  0.00  0.00   33.67   44.77    1.17    0.00    0.37
 1975 149    52    10     2     3.8  111.9   16612   95.5   16.4   2.5   4.6   9.4  11.4  11.1   4.8   2.8   1.8   0.0   0.0   0.1   0.5   1.1   0.7   1.0  1.87  0.80  0.52  0.00  0.00   34.33   45.46    1.17    0.00    0.37
 1975 150    53    10     2     3.8  110.2   16611   93.9   16.2   2.5   4.5   8.9  11.1  11.0   4.8   2.8   1.8   0.0   0.0   0.1   0.5   1.0   0.7   0.9  1.89  0.81  0.52  0.00  0.00   34.98   46.14    1.18    0.00    0.37
 1975 151    54    10     2     3.8  109.0   16610   92.8   16.2   2.5   4.4   8.5  10.9  11.0   4.8   2.8   1.8   0.0   0.0   0.1   0.5   1.0   0.7   0.9  1.90  0.81  0.51  0.00  0.00   35.63   46.80    1.19    0.00    0.38
 1975 152    55    10     2     3.8  108.5   16610   92.4   16.1   1.6   4.7   8.5  10.8  11.0   4.8   2.8   1.9   0.0   0.0   0.1   0.5   1.0   0.7   0.9  1.92  0.81  0.51  0.00  0.00   36.27   47.44    1.20    0.00    0.38
 1975 153    56    10     2     3.8  107.8   16609   91.5   16.3   1.4   4.4   8.4  10.7  10.9   4.8   2.8   1.9   0.0   0.0   0.2   0.6   1.0   0.7   0.8  1.93  0.82  0.51  0.00  0.00   36.90   47.88    1.20    0.00    0.38
 1975 154    57    10     2     3.8  107.0   16609   90.6   16.4   1.4   4.2   8.2  10.6  10.8   4.8   2.8   1.9   0.0   0.0   0.3   0.6   1.0   0.7   0.8  1.95  0.82  0.51  0.00  0.00   37.47   48.30    1.21    0.00    0.38
 1975 155    58    10     2     3.8  106.4   16608   90.1   16.4   1.5   4.1   8.1  10.5  10.8   4.8   2.8   1.9   0.0   0.0   0.2   0.7   1.0   0.7   0.8  1.96  0.82  0.51  0.00  0.00   38.00   48.77    1.22    0.00    0.39
 1975 156    59    10     2     3.8  105.7   16608   89.4   16.3   1.6   4.0   7.9  10.4  10.7   4.8   2.8   1.9   0.0   0.0   0.1   0.7   1.0   0.6   0.8  1.97  0.83  0.50  0.00  0.00   38.48   49.26    1.22    0.00    0.39
 1975 157    60    10     2     3.8  105.3   16607   89.1   16.3   1.5   4.0   7.8  10.3  10.7   4.8   2.9   1.9   0.0   0.0   0.1   0.6   1.0   0.6   0.8  1.99  0.83  0.50  0.00  0.00   38.93   49.71    1.23    0.00    0.40
 1975 158    61    10     2     3.8  104.8   16607   88.5   16.3   1.4   4.0   7.6  10.2  10.6   4.8   2.9   1.9   0.0   0.0   0.2   0.6   1.0   0.6   0.8  2.00  0.83  0.50  0.00  0.00   39.39   50.13    1.24    0.00    0.40
 1975 159    62    10     2     3.8  103.8   16606   87.5   16.2   1.5   3.9   7.4  10.1  10.5   4.8   2.9   1.9   0.0   0.0   0.1   0.6   1.0   0.6   0.7  2.01  0.83  0.50  0.00  0.00   39.85   50.58    1.24    0.00    0.40
 1975 160    63    10     2     3.8  103.3   16606   87.1   16.2   1.5   3.8   7.2  10.0  10.4   4.8   2.9   1.9   0.0   0.0   0.1   0.6   1.0   0.6   0.7  2.02  0.84  0.50  0.00  0.00   40.32   51.02    1.25    0.00    0.40
 1975 161    64    10     2     3.8  102.6   16605   86.4   16.2   1.5   3.8   7.1   9.9  10.3   4.8   2.9   1.9   0.0   0.0   0.1   0.5   1.0   0.6   0.7  2.04  0.84  0.49  0.00  0.00   40.80   51.46    1.25    0.00    0.41
 1975 162    65    10     2     3.8  102.2   16605   86.0   16.2   1.5   3.8   6.9   9.8  10.3   4.8   2.9   1.9   0.0   0.0   0.1   0.5   1.0   0.6   0.7  2.05  0.84  0.49  0.00  0.00   41.28   51.90    1.26    0.00    0.41
 1975 163    66    10     2     3.8  102.1   16604   85.8   16.3   1.6   3.8   6.9   9.8  10.2   4.9   2.9   1.9   0.0   0.0   0.1   0.5   1.0   0.6   0.7  2.06  0.84  0.49  0.00  0.00   41.76   52.33    1.26    0.00    0.41
 1975 164    67    10     2     3.8  102.3   16604   86.0   16.3   1.5   3.8   6.9   9.8  10.2   4.9   2.9   1.9   0.0   0.0   0.1   0.5   1.0   0.6   0.7  2.08  0.85  0.49  0.00  0.00   42.24   52.77    1.27    0.00    0.42
 1975 165    68    10     2     3.8  101.5   16603   85.2   16.3   1.5   3.8   6.7   9.6  10.1   4.9   2.9   1.9   0.0   0.0   0.1   0.5   1.0   0.6   0.7  2.09  0.85  0.49  0.00  0.00   42.73   53.20    1.27    0.00    0.42
 1975 166    69    10     2     3.8  101.5   16603   85.1   16.3   1.6   3.8   6.7   9.6  10.1   4.9   2.9   1.9   0.0   0.0   0.1   0.5   1.0   0.6   0.7  2.10  0.85  0.49  0.00  0.00   43.21   53.63    1.28    0.00    0.42
 1975 167    70    10     2     3.8  101.1   16602   84.7   16.4   1.6   3.7   6.6   9.5  10.0   4.9   2.9   1.9   0.0   0.0   0.1   0.5   1.0   0.6   0.7  2.11  0.85  0.48  0.00  0.00   43.71   54.07    1.28    0.00    0.42
 1975 168    71    10     2     3.8   99.9   16602   83.6   16.4   1.6   3.6   6.3   9.4   9.9   4.9   2.9   1.9   0.0   0.0   0.1   0.5   1.0   0.6   0.7  2.13  0.86  0.48  0.00  0.00   44.24   54.54    1.28    0.00    0.43
 1975 169    72    10     2     3.8   99.1   16601   82.7   16.4   1.7   3.5   6.1   9.2   9.7   4.9   2.9   1.9   0.0   0.0   0.1   0.5   0.9   0.6   0.6  2.14  0.86  0.48  0.00  0.00   44.77   55.01    1.29    0.00    0.43
 1975 170    73    10     2     3.8   97.9   16601   81.5   16.4   1.7   3.4   5.8   9.1   9.6   4.9   2.9   2.0   0.0   0.0   0.1   0.5   0.9   0.6   0.6  2.15  0.86  0.48  0.00  0.00   45.34   55.50    1.29    0.00    0.43
 1975 171    74    10     2     3.8   96.3   16600   79.9   16.4   1.7   3.2   5.4   8.8   9.4   4.9   3.0   2.0   0.0   0.0   0.1   0.5   0.9   0.6   0.6  2.16  0.86  0.48  0.00  0.00   45.92   56.02    1.29    0.00    0.43
 1975 172    75    10     2     3.8   94.7   16600   78.3   16.4   1.7   3.1   5.1   8.6   9.1   4.9   3.0   2.0   0.0   0.0   0.1   0.5   0.9   0.6   0.6  2.18  0.87  0.48  0.00  0.00   46.51   56.54    1.29    0.00    0.44
 1975 173    76    10     2     3.8   94.4   16599   78.1   16.4   1.7   3.1   5.0   8.5   9.1   4.9   3.0   2.0   0.0   0.0   0.1   0.5   0.9   0.6   0.6  2.17  0.87  0.48  0.00  0.00   47.10   57.12    1.29    0.00    0.44
 1975 174    77    10     2     3.8   93.0   16599   76.7   16.3   1.7   2.9   4.7   8.3   8.9   5.0   3.0   2.0   0.0   0.0   0.1   0.5   0.9   0.6   0.6  2.17  0.87  0.47  0.00  0.00   47.68   57.70    1.30    0.00    0.44
 1975 175    78    10     2     3.8   91.9   16598   75.6   16.2   1.7   2.8   4.5   8.1   8.7   5.0   3.0   2.0   0.0   0.0   0.1   0.5   0.9   0.6   0.6  2.16  0.87  0.47  0.00  0.00   48.24   58.25    1.30    0.00    0.44
 1975 176    79    10     2     3.8   90.9   16597   74.7   16.2   1.7   2.7   4.2   8.0   8.5   5.0   3.0   2.0   0.0   0.0   0.1   0.5   0.9   0.6   0.6  2.15  0.88  0.47  0.00  0.00   48.76   58.78    1.30    0.00    0.45
 1975 177    80    10     2     3.8   90.4   16597   74.3   16.1   1.7   2.7   4.2   7.9   8.4   5.0   3.0   2.0   0.0   0.0   0.1   0.5   0.9   0.6   0.6  2.15  0.88  0.47  0.00  0.00   49.26   59.29    1.30    0.00    0.45
 1975 178    81    10     2     3.8   88.5   16596   72.5   16.0   1.6   2.5   3.8   7.6   8.2   5.0   3.0   2.0   0.0   0.0   0.1   0.4   0.9   0.6   0.6  2.13  0.88  0.47  0.00  0.00   49.77   59.80    1.30    0.00    0.45
 1975 179    82    10     2     3.8   87.0   16596   71.1   15.9   1.6   2.4   3.6   7.4   8.0   5.0   3.0   2.0   0.0   0.0   0.1   0.4   0.8   0.6   0.6  2.12  0.88  0.47  0.00  0.00   50.29   60.32    1.31    0.00    0.46
 1975 180    83    10     2     3.8   86.3   16595   70.4   15.9   1.6   2.3   3.4   7.3   7.8   5.0   3.0   2.0   0.0   0.0   0.1   0.4   0.8   0.6   0.6  2.11  0.88  0.47  0.00  0.00   50.81   60.83    1.31    0.00    0.46
 1975 181    84    10     2     3.8   86.2   16595   70.4   15.9   1.6   2.3   3.4   7.2   7.8   5.0   3.0   2.0   0.0   0.0   0.1   0.4   0.8   0.6   0.6  2.11  0.89  0.46  0.00  0.00   51.32   61.33    1.31    0.00    0.46
 1975 182    85    10     2     3.8   86.1   16594   70.3   15.8   1.3   2.5   3.4   7.2   7.8   5.1   3.0   2.0   0.0   0.0   0.1   0.4   0.8   0.6   0.6  2.10  0.89  0.46  0.00  0.00   51.83   61.84    1.31    0.00    0.46
 1975 183    86    10     2     3.8   86.0   16594   70.2   15.9   1.1   2.6   3.4   7.1   7.7   5.1   3.1   2.0   0.0   0.0   0.2   0.4   0.8   0.6   0.6  2.09  0.89  0.46  0.00  0.00   52.35   62.30    1.31    0.00    0.46
 1975 184    87    10     2     3.8   85.6   16593   69.8   15.8   1.1   2.5   3.4   7.1   7.6   5.1   3.1   2.0   0.0   0.0   0.1   0.4   0.8   0.6   0.6  2.09  0.89  0.46  0.00  0.00   52.85   62.80    1.31    0.00    0.47
 1975 185    88    10     2     3.8   83.9   16593   68.1   15.8   1.0   2.3   3.1   6.8   7.4   5.1   3.1   2.0   0.0   0.0   0.2   0.5   0.8   0.6   0.6  2.07  0.89  0.46  0.00  0.00   53.36   63.18    1.32    0.00    0.47
 1975 186    89    10     2     3.8   82.8   16592   67.1   15.7   0.8   2.0   3.1   6.6   7.2   5.1   3.1   2.0   0.0   0.0   0.1   0.5   0.8   0.6   0.6  2.06  0.90  0.46  0.00  0.00   53.88   63.71    1.32    0.00    0.47
 1975 187    90    10     2     3.8   81.0   16592   65.3   15.7   0.7   1.8   2.8   6.4   6.9   5.0   3.1   2.0   0.0   0.0   0.2   0.6   0.8   0.6   0.6  2.04  0.90  0.46  0.00  0.00   54.40   64.09    1.32    0.00    0.48
 1975 188    91    10     2     3.8   79.9   16591   64.2   15.7   0.8   1.7   2.7   6.2   6.8   5.0   3.1   2.1   0.0   0.0   0.1   0.6   0.8   0.6   0.6  2.02  0.90  0.45  0.00  0.00   54.89   64.51    1.32    0.00    0.48
 1975 189    92    10     2     3.8   79.1   16591   63.5   15.6   0.8   1.7   2.6   6.1   6.6   5.0   3.1   2.1   0.0   0.0   0.1   0.6   0.8   0.6   0.6  2.01  0.90  0.45  0.00  0.00   55.39   65.01    1.32    0.00    0.49
 1975 190    93    10     2     3.8   77.3   16591   61.9   15.4   0.8   1.6   2.3   5.9   6.4   4.9   3.1   2.1   0.0   0.0   0.1   0.6   0.8   0.6   0.6  1.97  0.90  0.45  0.00  0.00   55.90   65.50    1.32    0.00    0.49
 1975 191    94    10     2     3.8   75.4   16590   60.3   15.2   0.8   1.5   2.1   5.7   6.2   4.8   3.1   2.1   0.0   0.0   0.1   0.6   0.8   0.6   0.6  1.94  0.91  0.45  0.00  0.00   56.43   66.00    1.33    0.00    0.49
 1975 192    95    10     2     3.8   74.3   16589   59.2   15.1   0.6   1.5   2.1   5.5   6.0   4.8   3.1   2.1   0.0   0.0   0.1   0.5   0.8   0.6   0.6  1.91  0.91  0.45  0.00  0.00   57.00   66.52    1.33    0.00    0.50
 1975 193    96    10     2     3.8   74.1   16589   58.9   15.2   0.4   1.2   2.0   5.5   6.2   4.7   3.1   2.1   0.0   0.0   0.2   0.6   0.8   0.6   0.6  1.90  0.91  0.45  0.00  0.00   57.56   66.91    1.33    0.00    0.50
 1975 194    97    10     2     3.9   72.0   16588   56.8   15.2   0.3   1.1   1.8   5.0   5.9   4.7   3.2   2.1   0.0   0.0   0.3   0.7   0.9   0.6   0.5  1.85  0.91  0.45  0.00  0.00   58.12   67.15    1.33    0.00    0.50
 1975 195    98    10     2     3.9   72.5   16588   57.1   15.5   0.5   1.1   1.8   5.0   6.0   4.7   3.2   2.1   0.0   0.0   0.2   0.8   1.0   0.6   0.6  1.84  0.91  0.45  0.00  0.00   58.66   67.44    1.33    0.00    0.50
 1975 196    99    10     2     4.7   71.8   16587   56.0   15.8   0.2   0.8   1.5   3.7   5.3   5.0   3.8   2.6   0.0   0.0   0.2   0.8   1.0   0.6   0.6  1.85  0.92  0.44  0.00  0.00   59.18   67.60    1.33    0.00    0.51
 1975 197   100    10     2     5.9   69.0   16587   53.1   15.8   0.2   0.7   1.3   3.3   4.9   4.7   3.8   2.6   0.0   0.0   0.3   0.8   1.0   0.7   0.6  1.83  0.92  0.45  0.00  0.00   59.64   67.70    1.38    0.00    0.51
 1975 198   101    10     2     6.1   67.1   16586   51.4   15.8   0.4   0.6   1.2   3.1   4.6   4.5   3.8   2.7   0.0   0.0   0.2   0.8   1.0   0.7   0.6  1.80  0.93  0.45  0.00  0.00   60.07   67.87    1.43    0.00    0.51
 1975 199   102    10     2     6.7   66.9   16586   50.9   16.0   0.5   0.6   1.2   3.1   4.5   4.5   3.7   2.7   0.0   0.0   0.1   0.9   1.1   0.7   0.6  1.81  0.93  0.45  0.00  0.00   60.48   68.04    1.48    0.00    0.52
 1975 200   103    20     3     7.0   76.9   16586   55.8   21.1   9.5   0.7   1.2   3.0   4.5   4.5   3.7   2.7   0.0   0.0   9.0   0.8   1.1   0.7   0.7  1.82  0.93  0.45  0.00  0.00   60.86   68.28    1.52    0.00    0.56
 1975 201   104    20     3     7.1   77.0   16585   57.8   19.2  13.0   0.8   1.2   3.1   4.5   4.4   3.7   2.7   0.0   0.0   5.5   0.8   1.1   0.7   0.7  1.83  0.93  0.45  0.00  0.00   61.20   70.49    1.55    0.00    0.62
 1975 202   105    20     3     7.2   77.2   16585   59.2   18.0  15.1   0.9   1.3   3.1   4.5   4.4   3.7   2.7   0.0   0.0   3.3   0.7   1.1   0.7   0.7  1.85  0.94  0.45  0.00  0.00   61.55   71.93    1.56    0.00    0.68
 1975 203   106    20     3     7.2   77.4   16585   60.2   17.3  16.5   1.0   1.4   3.1   4.5   4.4   3.7   2.7   0.0   0.0   1.9   0.7   1.1   0.7   0.7  1.86  0.94  0.44  0.00  0.00   61.91   72.96    1.57    0.00    0.75
 1975 204   107    20     3     7.2   77.8   16584   60.9   16.9  17.3   1.0   1.4   3.1   4.5   4.5   3.7   2.7   0.0   0.0   1.0   0.7   1.1   0.8   0.7  1.87  0.94  0.44  0.00  0.00   62.29   73.69    1.59    0.00    0.79
 1975 205   108    20     3     7.2   78.1   16584   61.5   16.6  17.8   1.1   1.5   3.1   4.5   4.5   3.7   2.7   0.0   0.0   0.5   0.6   1.1   0.8   0.7  1.88  0.94  0.44  0.00  0.00   62.70   74.31    1.60    0.00    0.84
 1975 206   109    20     3     7.2   78.5   16584   62.0   16.5  18.1   1.2   1.6   3.2   4.5   4.5   3.7   2.7   0.0   0.0   0.2   0.6   1.1   0.7   0.8  1.89  0.94  0.44  0.00  0.00   63.12   74.80    1.61    0.00    0.89
 1975 207   110    20     3     7.2   78.8   16583   62.4   16.4  18.2   1.3   1.6   3.2   4.5   4.5   3.7   2.7   0.0   0.0   0.1   0.6   1.1   0.7   0.8  1.91  0.94  0.44  0.00  0.00   63.53   75.21    1.62    0.00    0.95
 1975 208   111    20     3     7.2   79.2   16583   62.7   16.5  18.3   1.3   1.7   3.2   4.5   4.5   3.7   2.7   0.0   0.0   0.0   0.6   1.1   0.7   0.8  1.92  0.95  0.44  0.00  0.00   63.93   75.55    1.63    0.00    0.98
 1975 209   112    20     3     7.2   79.5   16582   63.0   16.5  18.3   1.4   1.7   3.3   4.5   4.5   3.8   2.7   0.0   0.0   0.0   0.6   1.1   0.7   0.8  1.93  0.95  0.44  0.00  0.00   64.31   75.88    1.64    0.00    0.99
 1975 210   113    20     3     7.2   79.9   16582   63.4   16.6  17.6   1.8   1.8   3.3   4.5   4.5   3.8   2.7   0.0   0.0   0.1   0.5   1.1   0.7   0.8  1.94  0.95  0.44  0.00  0.00   64.69   76.21    1.65    0.00    0.99
 1975 211   114    20     3     7.2   80.3   16582   63.7   16.6  17.6   1.9   1.9   3.3   4.6   4.5   3.8   2.7   0.0   0.0   0.1   0.5   1.1   0.7   0.8  1.95  0.95  0.44  0.00  0.00   65.08   76.54    1.66    0.00    0.99
 1975 212   115    20     3     7.2   80.7   16581   64.0   16.7  17.7   2.0   1.9   3.4   4.6   4.5   3.8   2.7   0.0   0.0   0.1   0.5   1.1   0.7   0.8  1.96  0.95  0.44  0.00  0.00   65.47   76.88    1.66    0.00    0.99
 1975 213   116    20     3     7.2   81.1   16581   64.4   16.7  17.8   2.0   2.0   3.4   4.6   4.5   3.8   2.7   0.0   0.0   0.1   0.5   1.1   0.7   0.9  1.98  0.95  0.43  0.00  0.00   65.90   77.24    1.67    0.00    0.99
 1975 214   117    20     3     7.2   81.6   16580   64.8   16.7  17.8   2.1   2.1   3.4   4.6   4.5   3.8   2.7   0.0   0.0   0.1   0.5   1.1   0.7   0.8  1.99  0.95  0.43  0.00  0.00   66.37   77.70    1.68    0.00    1.00
 1975 215   118    20     3     7.2   82.0   16580   65.3   16.8  17.9   2.2   2.2   3.5   4.7   4.5   3.8   2.7   0.0   0.0   0.1   0.5   1.1   0.7   0.8  2.00  0.96  0.43  0.00  0.00   66.87   78.17    1.69    0.00    1.00
 1975 216   119    20     3     7.2   82.5   16579   65.7   16.8  18.0   2.2   2.2   3.5   4.7   4.5   3.8   2.7   0.0   0.0   0.1   0.5   1.1   0.7   0.8  2.01  0.96  0.43  0.00  0.00   67.37   78.65    1.70    0.00    1.00
 1975 217   120    20     3     7.2   83.0   16579   66.2   16.8  18.1   2.3   2.3   3.5   4.7   4.5   3.8   2.7   0.0   0.0   0.1   0.5   1.1   0.7   0.8  2.03  0.96  0.43  0.00  0.00   67.87   79.12    1.71    0.00    1.00
 1975 218   121    20     3     7.2   83.5   16579   66.7   16.8  18.2   2.4   2.4   3.6   4.8   4.5   3.8   2.7   0.0   0.0   0.1   0.5   1.1   0.7   0.8  2.04  0.96  0.43  0.00  0.00   68.35   79.58    1.72    0.00    1.01
 1975 219   122    20     3     7.2   83.9   16578   67.1   16.8  18.3   2.4   2.5   3.6   4.8   4.5   3.8   2.7   0.0   0.0   0.1   0.5   1.1   0.7   0.8  2.05  0.96  0.43  0.00  0.00   68.79   80.00    1.72    0.00    1.01
 1975 220   123    20     3     7.2   84.3   16578   67.5   16.8  18.4   2.5   2.5   3.6   4.9   4.5   3.8   2.7   0.0   0.0   0.1   0.5   1.1   0.7   0.8  2.06  0.96  0.43  0.00  0.00   69.20   80.40    1.73    0.00    1.01
 1975 221   124    20     3     7.2   84.7   16577   67.9   16.9  15.2   4.2   2.6   3.7   4.9   4.5   3.8   2.7   0.0   0.0   0.1   0.5   1.1   0.7   0.8  2.07  0.96  0.43  0.00  0.00   69.61   80.80    1.74    0.00    1.01
 1975 222   125    20     3     7.2   85.1   16577   68.2   16.9   8.6   5.7   3.5   3.9   5.0   4.5   3.9   2.8   0.0   0.0   0.1   0.5   1.1   0.6   0.7  2.09  0.97  0.43  0.00  0.00   70.02   81.18    1.75    0.00    1.02
 1975 223   126    20     3     7.3   85.4   16576   68.2   17.2   5.7   5.7   3.8   3.7   4.9   4.8   4.0   2.8   0.0   0.0   0.2   0.5   1.2   0.7   0.8  2.10  0.97  0.42  0.00  0.00   70.44   81.29    1.76    0.00    1.02
 1975 224   127    20     3     7.5   85.5   16576   68.0   17.5   5.0   5.7   3.9   3.7   4.9   4.7   4.1   2.9   0.0   0.0   0.2   0.6   1.2   0.7   0.8  2.11  0.97  0.42  0.00  0.00   70.85   81.39    1.83    0.00    1.02
 1975 225   128    20     3     8.7   84.7   16576   66.9   17.8   5.1   5.6   3.9   3.6   4.7   4.6   4.1   3.0   0.0   0.0   0.2   0.7   1.3   0.7   0.8  2.12  0.98  0.42  0.00  0.00   71.29   81.55    1.91    0.00    1.03
 1975 226   129    20     3     9.4   84.5   16575   66.4   18.1   5.3   5.6   3.9   3.5   4.6   4.5   4.0   3.0   0.0   0.0   0.1   0.7   1.3   0.7   0.8  2.14  0.98  0.42  0.00  0.00   71.76   81.73    1.95    0.00    1.03
 1975 227   130    20     3     9.4   84.8   16575   66.5   18.2   5.3   5.7   3.9   3.5   4.6   4.5   4.1   3.1   0.0   0.0   0.1   0.7   1.4   0.8   0.8  2.15  0.98  0.42  0.00  0.00   72.21   82.00    2.01    0.00    1.04
 1975 228   131    20     3     9.5   85.1   16574   66.7   18.3   5.2   5.9   3.9   3.5   4.5   4.5   4.1   3.1   0.0   0.0   0.2   0.6   1.4   0.8   0.9  2.16  0.98  0.42  0.00  0.00   72.67   82.36    2.06    0.00    1.04
 1975 229   132    20     3     9.8   85.2   16574   66.8   18.5   5.3   5.9   4.0   3.5   4.5   4.5   4.0   3.1   0.0   0.0   0.1   0.7   1.4   0.8   0.9  2.17  0.99  0.42  0.00  0.00   73.14   82.69    2.10    0.00    1.04
 1975 230   133    20     3     9.9   85.6   16573   67.1   18.5   5.5   6.0   4.1   3.5   4.5   4.5   4.0   3.1   0.0   0.0   0.1   0.7   1.4   0.8   0.9  2.19  0.99  0.42  0.00  0.00   73.61   83.11    2.12    0.00    1.05
 1975 231   134    20     3    10.0   86.0   16573   67.4   18.6   5.7   6.0   4.2   3.5   4.5   4.5   4.0   3.1   0.0   0.0   0.1   0.6   1.3   0.8   0.9  2.20  0.99  0.42  0.00  0.00   74.09   83.53    2.13    0.00    1.05
 1975 232   135    20     3    10.0   86.5   16572   67.8   18.6   5.9   6.0   4.3   3.5   4.5   4.5   4.0   3.1   0.0   0.0   0.1   0.6   1.3   0.9   0.9  2.21  0.99  0.42  0.00  0.00   74.60   83.97    2.15    0.00    1.05
 1975 233   136    20     3    10.0   87.0   16572   68.2   18.7   6.0   6.1   4.4   3.5   4.5   4.5   4.0   3.1   0.0   0.0   0.1   0.6   1.3   0.9   0.9  2.22  0.99  0.42  0.00  0.00   75.13   84.42    2.16    0.00    1.05
 1975 234   137    20     3    10.0   87.5   16571   68.7   18.7   4.0   6.2   5.0   3.7   4.6   4.5   4.1   3.1   0.0   0.0   0.1   0.6   1.3   0.9   0.9  2.23  0.99  0.42  0.00  0.00   75.69   84.96    2.17    0.00    1.06
 1975 235   138    20     3    11.0   87.0   16571   67.9   19.1   1.8   4.7   4.9   3.7   4.4   4.7   4.4   3.6   0.0   0.0   0.2   0.7   1.4   0.9   1.0  2.25  0.99  0.42  0.00  0.00   76.23   85.12    2.19    0.00    1.06
 1975 236   139    20     3    12.7   85.7   16570   66.2   19.5   1.9   4.6   4.8   3.6   4.2   4.5   4.3   3.5   0.0   0.0   0.2   0.7   1.5   0.9   1.0  2.26  1.00  0.42  0.00  0.00   76.76   85.25    2.34    0.00    1.06
 1975 237   140    20     3    13.0   85.9   16570   66.1   19.8   1.8   4.5   4.9   3.6   4.2   4.5   4.3   3.6   0.0   0.0   0.2   0.8   1.5   0.9   1.0  2.27  1.00  0.42  0.00  0.00   77.31   85.50    2.43    0.00    1.07
 1975 238   141    20     3    13.3   86.0   16569   65.8   20.2   1.2   3.9   4.8   3.7   4.2   4.6   4.4   3.6   0.0   0.0   0.2   0.9   1.6   1.0   1.0  2.29  1.01  0.42  0.00  0.00   77.82   85.64    2.51    0.00    1.07
 1975 239   142    20     3    14.9   84.6   16569   64.2   20.4   1.3   3.8   4.7   3.6   4.1   4.4   4.3   3.6   0.0   0.0   0.2   0.9   1.7   1.0   1.0  2.30  1.01  0.42  0.00  0.00   78.28   85.82    2.77    0.00    1.08
 1975 240   143    20     3    15.1   84.7   16568   64.0   20.7   1.5   3.8   4.6   3.6   4.0   4.4   4.3   3.6   0.0   0.0   0.1   1.0   1.7   1.0   1.1  2.31  1.02  0.42  0.00  0.00   78.72   86.02    2.90    0.00    1.08
 1975 241   144    20     3    15.9   84.2   16568   63.4   20.8   1.6   3.9   4.6   3.5   4.0   4.3   4.2   3.6   0.0   0.0   0.1   0.9   1.8   1.0   1.1  2.33  1.02  0.42  0.00  0.00   79.17   86.34    3.00    0.00    1.09
 1975 242   145    20     3    16.1   84.5   16568   63.7   20.8   1.8   4.0   4.7   3.5   4.0   4.3   4.2   3.6   0.0   0.0   0.1   0.8   1.7   1.0   1.1  2.34  1.02  0.42  0.00  0.00   79.60   86.80    3.05    0.00    1.09
 1975 243   146    20     3    16.2   84.7   16567   64.0   20.8   2.0   4.1   4.9   3.5   3.9   4.3   4.2   3.6   0.0   0.0   0.1   0.8   1.7   1.0   1.1  2.35  1.02  0.42  0.00  0.00   80.05   87.26    3.09    0.00    1.09
 1975 244   147    20     3    16.4   85.0   16567   64.3   20.7   2.1   4.1   5.0   3.5   3.9   4.3   4.2   3.6   0.0   0.0   0.1   0.7   1.6   1.1   1.1  2.36  1.03  0.42  0.00  0.00   80.53   87.75    3.12    0.00    1.09
 1975 245   148    20     3    16.6   85.3   16566   64.5   20.7   2.3   4.2   5.1   3.5   3.9   4.3   4.2   3.6   0.0   0.0   0.1   0.7   1.6   1.1   1.1  2.37  1.03  0.42  0.00  0.00   81.05   88.26    3.15    0.00    1.10
 1975 246   149    20     3    16.7   85.7   16566   64.9   20.8   2.5   4.3   5.2   3.6   4.0   4.3   4.1   3.6   0.0   0.0   0.1   0.7   1.6   1.1   1.1  2.38  1.03  0.42  0.00  0.00   81.59   88.79    3.16    0.00    1.10
 1975 247   150    20     3    16.7   86.2   16565   65.5   20.7   2.7   4.4   5.3   3.6   4.0   4.3   4.1   3.6   0.0   0.0   0.1   0.6   1.5   1.1   1.1  2.39  1.03  0.42  0.00  0.00   82.15   89.43    3.18    0.00    1.10
 1975 248   151    20     3    16.7   86.8   16565   66.2   20.6   2.8   4.5   5.4   3.7   4.0   4.3   4.2   3.6   0.0   0.0   0.1   0.6   1.5   1.0   1.2  2.41  1.03  0.42  0.00  0.00   82.74   90.08    3.19    0.00    1.10
 1975 249   152    20     3    16.8   87.3   16564   66.8   20.6   1.8   4.4   5.9   3.9   4.0   4.3   4.2   3.6   0.0   0.0   0.1   0.6   1.5   1.0   1.2  2.42  1.03  0.42  0.00  0.00   83.33   90.73    3.20    0.00    1.11
 1975 250   153    20     3    17.2   87.4   16563   66.5   20.9   1.9   4.3   5.8   3.9   4.0   4.3   4.2   3.6   0.0   0.0   0.2   0.7   1.6   1.0   1.2  2.43  1.03  0.42  0.00  0.00   83.88   90.92    3.21    0.00    1.11
 1975 251   154    20     3    17.4   87.7   16563   66.6   21.2   2.0   4.3   5.8   3.9   4.0   4.3   4.2   3.6   0.0   0.0   0.1   0.7   1.6   1.0   1.2  2.44  1.03  0.42  0.00  0.00   84.40   91.18    3.22    0.00    1.11
 1975 252   155    20     3    17.4   88.2   16562   66.9   21.3   2.2   4.4   5.7   3.9   4.0   4.3   4.2   3.6   0.0   0.0   0.1   0.7   1.7   1.0   1.2  2.45  1.03  0.42  0.00  0.00   84.90   91.53    3.23    0.00    1.12
 1975 253   156    20     3    17.5   88.6   16562   67.1   21.4   2.4   4.4   5.8   3.9   4.0   4.3   4.2   3.6   0.0   0.0   0.1   0.7   1.7   1.1   1.2  2.46  1.03  0.42  0.00  0.00   85.38   91.87    3.24    0.00    1.12
 1975 254   157    20     3    17.5   89.0   16562   67.6   21.4   2.6   4.5   5.9   3.9   4.1   4.3   4.2   3.6   0.0   0.0   0.1   0.6   1.7   1.1   1.2  2.47  1.03  0.42  0.00  0.00   85.84   92.35    3.26    0.00    1.12
 1975 255   158    20     3    17.5   89.5   16561   68.1   21.4   2.8   4.5   6.0   3.9   4.1   4.3   4.2   3.6   0.0   0.0   0.1   0.6   1.7   1.1   1.2  2.48  1.04  0.41  0.00  0.00   86.33   92.83    3.27    0.00    1.13
 1975 256   159    20     3    17.5   90.0   16561   68.6   21.4   2.9   4.6   6.1   4.0   4.1   4.3   4.2   3.7   0.0   0.0   0.1   0.6   1.6   1.1   1.2  2.49  1.04  0.41  0.00  0.00   86.83   93.33    3.28    0.00    1.13
 1975 257   160    20     3    17.5   90.5   16560   69.1   21.4   3.1   4.7   6.2   4.0   4.1   4.3   4.2   3.7   0.0   0.0   0.1   0.6   1.6   1.1   1.2  2.50  1.04  0.41  0.00  0.00   87.35   93.92    3.29    0.00    1.13
 1975 258   161    20     3    17.5   91.0   16560   69.7   21.3   3.3   4.8   6.3   4.1   4.1   4.3   4.2   3.7   0.0   0.0   0.1   0.6   1.6   1.0   1.3  2.52  1.04  0.41  0.00  0.00   87.87   94.50    3.30    0.00    1.13
 1975 259   162    20     3    17.5   91.5   16559   70.3   21.2   3.4   4.9   6.4   4.2   4.1   4.3   4.3   3.7   0.0   0.0   0.1   0.6   1.5   1.0   1.3  2.53  1.04  0.41  0.00  0.00   88.40   95.08    3.31    0.00    1.14
 1975 260   163    20     3    17.5   92.0   16558   70.8   21.2   3.6   4.9   6.5   4.2   4.2   4.3   4.3   3.7   0.0   0.0   0.1   0.6   1.5   1.0   1.3  2.54  1.04  0.41  0.00  0.00   88.94   95.66    3.32    0.00    1.14
 1975 261   164    20     3    17.5   92.6   16558   71.4   21.2   3.8   5.0   6.6   4.3   4.2   4.3   4.3   3.7   0.0   0.0   0.1   0.5   1.5   1.0   1.3  2.55  1.04  0.41  0.00  0.00   89.49   96.25    3.33    0.00    1.14
 1975 262   165    20     3    17.5   93.1   16557   72.0   21.1   3.9   5.1   6.8   4.3   4.2   4.3   4.3   3.7   0.0   0.0   0.1   0.5   1.4   0.9   1.3  2.56  1.04  0.41  0.00  0.00   90.04   96.82    3.34    0.00    1.15
 1975 263   166    20     3    17.5   93.7   16557   72.6   21.1   2.8   5.4   7.1   4.4   4.2   4.4   4.3   3.7   0.0   0.0   0.1   0.5   1.4   0.9   1.3  2.57  1.04  0.41  0.00  0.00   90.59   97.40    3.35    0.00    1.15
 1975 264   167    20     3    17.5   94.2   16556   72.8   21.3   2.9   5.3   7.1   4.5   4.2   4.4   4.3   3.7   0.0   0.0   0.1   0.6   1.5   0.9   1.3  2.58  1.04  0.41  0.00  0.00   91.15   97.73    3.36    0.00    1.15
 1975 265   168    20     3    17.5   94.7   16556   73.2   21.5   3.1   5.3   7.2   4.5   4.3   4.4   4.3   3.7   0.0   0.0   0.1   0.6   1.6   0.9   1.3  2.59  1.04  0.41  0.00  0.00   91.73   98.11    3.36    0.00    1.15
 1975 266   169    20     3    17.5   95.3   16555   73.7   21.5   3.4   5.4   7.3   4.6   4.3   4.4   4.3   3.7   0.0   0.0   0.1   0.6   1.5   0.9   1.3  2.60  1.04  0.41  0.00  0.00   92.29   98.65    3.37    0.00    1.16
 1975 267   170    20     3    17.5   95.8   16555   74.4   21.5   3.6   5.5   7.4   4.6   4.3   4.4   4.3   3.7   0.0   0.0   0.1   0.6   1.5   0.9   1.3  2.61  1.04  0.41  0.00  0.00   92.87   99.27    3.38    0.00    1.18
 1975 268   171    20     3    17.5   96.4   16554   74.9   21.4   3.8   5.5   7.5   4.7   4.3   4.4   4.3   3.7   0.0   0.0   0.1   0.6   1.5   0.9   1.3  2.62  1.05  0.41  0.00  0.00   93.43   99.85    3.39    0.00    1.20
 1975 269   172    20     3    17.5   96.9   16554   75.4   21.4   4.0   5.6   7.6   4.7   4.4   4.4   4.3   3.7   0.0   0.0   0.1   0.6   1.4   0.9   1.3  2.63  1.05  0.41  0.00  0.00   93.95  100.39    3.40    0.00    1.22
 1975 270   173    20     3    17.5   97.4   16553   76.0   21.3   4.2   5.6   7.7   4.8   4.4   4.4   4.3   3.7   0.0   0.0   0.1   0.5   1.4   0.9   1.3  2.64  1.05  0.40  0.00  0.00   94.46  100.99    3.41    0.00    1.22
 1975 271   174    20     3    17.5   97.8   16553   76.6   21.2   4.3   5.7   7.8   4.8   4.5   4.4   4.4   3.7   0.0   0.0   0.1   0.5   1.4   0.8   1.3  2.65  1.05  0.40  0.00  0.00   94.96  101.59    3.42    0.00    1.22
 1975 272   175    20     3    17.5   98.3   16552   77.2   21.1   2.8   5.6   8.3   5.0   4.6   4.4   4.4   3.7   0.0   0.0   0.1   0.5   1.4   0.8   1.2  2.66  1.05  0.40  0.00  0.00   95.47  102.18    3.42    0.00    1.23
 1975 273   176    20     3    19.0   97.4   16552   75.9   21.5   1.2   3.9   7.0   5.2   4.9   4.7   4.7   4.1   0.0   0.0   0.2   0.6   1.5   0.8   1.2  2.67  1.05  0.40  0.00  0.00   95.98  102.36    3.43    0.00    1.23
 1975 274   177    20     3    20.8   95.9   16551   74.1   21.8   1.3   3.8   6.9   5.0   4.8   4.6   4.5   4.0   0.0   0.0   0.1   0.7   1.5   0.9   1.3  2.69  1.05  0.40  0.00  0.00   96.51  102.55    3.55    0.00    1.23
 1975 275   178    20     3    21.9   95.4   16551   73.4   22.0   1.6   3.9   6.8   5.0   4.7   4.5   4.4   4.0   0.0   0.0   0.1   0.7   1.6   0.9   1.3  2.70  1.06  0.41  0.00  0.00   97.08  102.90    3.62    0.00    1.24
 1975 276   179    20     3    22.5   95.3   16550   73.1   22.2   1.8   4.0   6.8   4.9   4.7   4.4   4.4   3.9   0.0   0.0   0.1   0.6   1.7   0.9   1.3  2.71  1.06  0.41  0.00  0.00   97.64  103.26    3.66    0.00    1.24
 1975 277   180    20     3    22.9   95.4   16549   73.2   22.2   2.0   4.1   6.9   4.9   4.7   4.4   4.4   3.9   0.0   0.0   0.1   0.6   1.6   0.9   1.3  2.72  1.06  0.41  0.00  0.00   98.18  103.78    3.70    0.00    1.24
 1975 278   181    20     3    23.1   95.8   16549   73.5   22.2   2.2   4.1   7.1   4.9   4.7   4.4   4.3   3.9   0.0   0.0   0.1   0.6   1.6   1.0   1.3  2.73  1.06  0.41  0.00  0.00   98.72  104.31    3.73    0.00    1.25
 1975 279   182    20     3    23.1   96.3   16548   74.0   22.2   2.4   4.2   7.2   4.9   4.7   4.4   4.3   3.9   0.0   0.0   0.1   0.6   1.6   1.0   1.3  2.74  1.06  0.40  0.00  0.00   99.26  104.83    3.74    0.00    1.25
 1975 280   183    20     3    23.1   96.8   16548   74.5   22.3   2.6   4.3   7.3   5.0   4.7   4.4   4.4   3.9   0.0   0.0   0.1   0.6   1.5   1.0   1.3  2.75  1.06  0.40  0.00  0.00   99.78  105.33    3.75    0.00    1.25
 1975 281   184    20     3    23.1   97.3   16547   75.1   22.2   2.8   4.4   7.4   5.0   4.8   4.4   4.4   3.9   0.0   0.0   0.1   0.6   1.5   1.0   1.3  2.76  1.06  0.40  0.00  0.00  100.36  105.96    3.76    0.00    1.25
 1975 282   185    20     3    23.1   97.9   16547   75.8   22.2   2.9   4.5   7.5   5.1   4.8   4.4   4.4   3.9   0.0   0.0   0.1   0.5   1.5   0.9   1.3  2.77  1.06  0.40  0.00  0.00  100.94  106.59    3.78    0.00    1.26
 1975 283   186    20     3    23.1   98.5   16546   76.4   22.1   3.1   4.6   7.6   5.1   4.8   4.5   4.4   3.9   0.0   0.0   0.1   0.5   1.4   0.9   1.3  2.78  1.06  0.40  0.00  0.00  101.52  107.20    3.79    0.00    1.26
 1975 284   187    20     3    23.1   99.0   16546   76.9   22.1   3.3   4.7   7.7   5.2   4.8   4.5   4.4   3.9   0.0   0.0   0.1   0.5   1.4   0.9   1.4  2.79  1.06  0.40  0.00  0.00  102.09  107.80    3.80    0.00    1.26
 1975 285   188    20     3    23.1   99.6   16545   77.5   22.0   3.5   4.8   7.8   5.2   4.8   4.5   4.4   3.9   0.0   0.0   0.1   0.5   1.4   0.9   1.4  2.80  1.06  0.40  0.00  0.00  102.66  108.39    3.81    0.00    1.29
 1975 286   189    20     3    23.1  100.1   16544   78.1   22.0   3.6   4.9   7.9   5.3   4.9   4.5   4.4   3.9   0.0   0.0   0.1   0.5   1.4   0.9   1.4  2.81  1.06  0.40  0.00  0.00  103.20  108.93    3.82    0.00    1.30
 1975 287   190    20     3    23.1  100.6   16544   78.6   22.0   3.8   5.0   8.0   5.3   4.9   4.5   4.4   4.0   0.0   0.0   0.1   0.5   1.4   0.8   1.4  2.82  1.07  0.40  0.00  0.00  103.75  109.47    3.83    0.00    1.32
 1975 288   191    20     3    23.1  101.2   16543   79.1   22.0   3.9   5.1   8.1   5.4   4.9   4.5   4.4   4.0   0.0   0.0   0.1   0.5   1.3   0.8   1.4  2.83  1.07  0.40  0.00  0.00  104.33  110.04    3.84    0.00    1.34
 1975 289   192    20     3    23.1  101.7   16543   79.7   22.0   4.0   5.2   8.2   5.4   4.9   4.5   4.4   4.0   0.0   0.0   0.1   0.5   1.3   0.8   1.4  2.84  1.07  0.40  0.00  0.00  104.95  110.64    3.85    0.00    1.36
 1975 290   193    20     3    23.1  102.4   16542   80.5   21.9   4.2   5.3   8.4   5.5   5.0   4.5   4.4   4.0   0.0   0.0   0.1   0.5   1.3   0.8   1.3  2.85  1.07  0.40  0.00  0.00  105.60  111.39    3.86    0.00    1.38
 1975 291   194    20     3    23.1  103.0   16541   81.3   21.8   4.4   5.4   8.5   5.5   5.1   4.5   4.5   4.0   0.0   0.0   0.1   0.5   1.3   0.8   1.3  2.86  1.07  0.40  0.00  0.00  106.29  112.18    3.86    0.00    1.40
 1975 292   195    20     3    23.1  103.7   16541   82.1   21.7   3.8   5.9   8.6   5.6   5.2   4.5   4.5   4.0   0.0   0.0   0.1   0.5   1.3   0.8   1.2  2.88  1.07  0.40  0.00  0.00  107.00  112.98    3.87    0.00    1.42
 1975 293   196    20     3    23.1  104.4   16540   82.8   21.6   3.9   6.1   8.8   5.6   5.2   4.5   4.5   4.0   0.0   0.0   0.1   0.5   1.2   0.7   1.2  2.89  1.07  0.40  0.00  0.00  107.71  113.77    3.88    0.00    1.44
 1975 294   197    20     3    23.1  105.0   16539   83.6   21.5   4.0   6.2   8.9   5.7   5.3   4.5   4.5   4.0   0.0   0.0   0.1   0.5   1.2   0.7   1.2  2.90  1.07  0.40  0.00  0.00  108.40  114.52    3.89    0.00    1.46

*DSSAT Cropping System Model Ver. 4.0.2.000               Aug 01, 2016; 15:44:49

*RUN   2        : UYMZ                    
 MODEL          : MZCER040 - Maize           
 EXPERIMENT     : UYMZ0105 MZ    late to create DSS                             
 TREATMENT  1   : UYMZ                    

@YEAR DOY   DAS  NAPC  NI#M    NLCC   NIAD    NOAD   NITD   NHTD  NI1D  NI2D  NI3D  NI4D  NI5D  NI6D  NI7D  NI8D  NI9D  NI10  NH1D  NH2D  NH3D  NH4D  NH5D  NH6D  NH7D  NH8D  NH9D  NH10    NMNC    NITC    NDNC    NIMC    AMLC
 1976 097     0     0     0     0.0   99.3   16645   76.5   22.8  16.0  15.3  15.1   8.6   4.6   0.0   0.1   0.1   0.0   0.0   0.5   1.3   1.5   1.4   1.4  1.50  1.47  1.46  0.00  0.00    0.55    1.72    0.00    0.00    0.00
 1976 098     1     0     0     0.0   99.9   16645   77.8   22.0  16.3  15.6  15.3   8.7   4.6   0.0   0.1   0.1   0.0   0.0   0.2   1.2   1.4   1.4   1.4  1.51  1.43  1.41  0.00  0.00    1.11    3.03    0.00    0.00    0.00
 1976 099     2     0     0     0.0  100.4   16644   79.0   21.4  16.3  15.9  15.4   8.8   4.7   0.1   0.1   0.1   0.0   0.0   0.2   1.0   1.4   1.3   1.3  1.51  1.40  1.37  0.00  0.00    1.67    4.18    0.00    0.00    0.00
 1976 100     3     0     1     0.0  101.0   16644   80.1   20.9   6.3  15.9  19.1   8.9   4.8   0.1   0.2   0.2   0.0   0.0   0.1   0.9   1.4   1.3   1.3  1.51  1.37  1.33  0.00  0.00    2.27    5.30    0.00    0.00    0.00
 1976 101     4     0     1     0.0  101.7   16643   81.0   20.6   5.3  14.9  20.2   9.0   4.8   0.1   0.2   0.2   0.0   0.0   0.1   1.0   1.4   1.2   1.3  1.51  1.34  1.29  0.00  0.00    2.89    6.22    0.00    0.00    0.00
 1976 102     5     0     1     0.0  102.3   16643   82.0   20.3   5.5  14.7  20.3   9.2   4.9   0.1   0.3   0.3   0.0   0.0   0.1   1.1   1.3   1.2   1.2  1.52  1.31  1.26  0.00  0.00    3.53    7.15    0.00    0.00    0.00
 1976 103     6     0     1     0.0  102.9   16642   83.1   19.8   5.6  15.0  20.4   9.4   5.0   0.1   0.3   0.3   0.0   0.0   0.1   0.9   1.3   1.1   1.2  1.52  1.28  1.22  0.00  0.00    4.18    8.31    0.00    0.00    0.00
 1976 104     7     0     1     0.0  103.6   16641   84.3   19.4   5.9  15.1  20.4   9.6   5.0   0.2   0.3   0.4   0.0   0.0   0.1   0.8   1.3   1.1   1.1  1.52  1.25  1.18  0.00  0.00    4.87    9.46    0.00    0.00    0.00
 1976 105     8     0     1     0.0  104.3   16640   85.4   18.9   6.2  15.3  20.4   9.8   5.1   0.2   0.4   0.4   0.0   0.0   0.1   0.7   1.3   1.0   1.1  1.53  1.22  1.15  0.00  0.00    5.56   10.58    0.00    0.00    0.00
 1976 106     9     0     1     0.0  105.0   16640   86.5   18.5   6.5  15.4  20.5  10.0   5.2   0.2   0.4   0.4   0.0   0.0   0.1   0.7   1.3   1.0   1.1  1.53  1.19  1.11  0.00  0.00    6.26   11.68    0.00    0.00    0.00
 1976 107    10     0     1     0.0  105.8   16639   87.6   18.2   6.8  15.5  20.6  10.1   5.2   0.2   0.5   0.5   0.0   0.0   0.1   0.6   1.2   1.0   1.0  1.53  1.17  1.08  0.00  0.00    6.99   12.76    0.00    0.00    0.00
 1976 108    11     0     1     0.0  106.5   16638   88.6   17.8   7.1  15.6  20.7  10.3   5.3   0.2   0.5   0.5   0.0   0.0   0.1   0.6   1.2   0.9   1.0  1.54  1.14  1.05  0.00  0.00    7.73   13.83    0.00    0.00    0.00
 1976 109    12     0     1     0.0  107.0   16638   89.5   17.5   7.3  15.6  20.7  10.4   5.3   0.2   0.5   0.6   0.0   0.0   0.1   0.6   1.2   0.9   1.0  1.54  1.12  1.02  0.00  0.00    8.46   14.87    0.00    0.00    0.00
 1976 110    13    10     2     0.0  117.7   16637   95.5   22.2  13.0  13.8  22.6  11.1   5.4   0.3   0.6   0.6   0.0   0.0   9.1   0.5   1.2   0.9   0.9  1.54  1.09  0.99  0.00  0.00    9.18   15.85    0.00    0.00    0.03
 1976 111    14    10     2     0.0  118.4   16636   97.0   21.4   8.7  11.9  20.3  14.1   7.4   0.3   0.6   0.6   0.0   0.0   7.4   0.6   1.3   0.8   0.9  1.54  1.07  0.96  0.00  0.00    9.86   17.34    0.00    0.00    0.08
 1976 112    15    10     2     0.1  118.8   16636  101.1   17.8  15.6  11.7  19.9  13.7   7.7   0.6   0.6   0.6   0.0   0.0   0.4   0.7   1.4   0.9   0.9  1.55  1.05  0.93  0.00  0.00   10.52   21.50    0.00    0.00    0.18
 1976 113    16    10     2     0.1  119.3   16635  101.5   17.8  16.1  11.7  19.8  13.5   7.9   0.7   0.7   0.7   0.0   0.0   0.1   0.8   1.5   0.9   0.9  1.56  1.02  0.90  0.00  0.00   11.13   22.00    0.00    0.00    0.24
 1976 114    17    10     2     0.1  119.9   16634  101.9   18.0  16.4  11.7  19.7  13.4   8.0   0.7   0.7   0.7   0.0   0.0   0.0   0.7   1.5   0.9   1.0  1.58  1.02  0.88  0.00  0.00   11.71   22.42    0.00    0.00    0.27
 1976 115    18    10     2     0.1  120.4   16634  102.4   17.9  16.7  11.7  19.8  13.3   8.0   0.8   0.7   0.7   0.0   0.0   0.1   0.7   1.5   1.0   1.0  1.59  1.03  0.85  0.00  0.00   12.28   22.99    0.00    0.00    0.29
 1976 116    19    10     2     0.1  120.9   16633  102.9   18.0  17.1  11.7  19.9  13.2   8.0   0.8   0.7   0.7   0.0   0.0   0.1   0.7   1.5   1.0   1.0  1.61  1.03  0.85  0.00  0.00   12.85   23.52    0.03    0.00    0.30
 1976 117    20    10     2     0.1  121.4   16633  103.4   18.0  17.4  11.7  20.0  13.2   8.0   0.8   0.7   0.8   0.0   0.0   0.1   0.6   1.4   1.0   1.0  1.62  1.03  0.84  0.00  0.00   13.43   24.06    0.04    0.00    0.32
 1976 118    21    10     2     0.1  121.9   16632  103.9   18.0  17.7  11.8  20.1  13.3   8.1   0.8   0.7   0.8   0.0   0.0   0.1   0.6   1.4   1.0   1.0  1.64  1.03  0.83  0.00  0.00   14.04   24.61    0.05    0.00    0.34
 1976 119    22    10     2     0.1  122.4   16631  104.4   18.1  18.0  11.8  20.2  13.3   8.1   0.8   0.7   0.8   0.0   0.0   0.1   0.6   1.4   1.0   1.0  1.65  1.03  0.83  0.00  0.00   14.68   25.19    0.06    0.00    0.36
 1976 120    23    10     2     0.1  122.8   16631  104.8   18.0  18.2  11.8  20.2  13.4   8.1   0.8   0.7   0.8   0.0   0.0   0.1   0.6   1.4   1.0   1.1  1.67  1.03  0.82  0.00  0.00   15.33   25.88    0.07    0.00    0.38
 1976 121    24    10     2     0.1  123.1   16630  105.2   18.0  18.3  11.8  20.2  13.4   8.1   0.8   0.8   0.8   0.0   0.0   0.1   0.5   1.3   1.0   1.1  1.68  1.03  0.82  0.00  0.00   16.00   26.56    0.07    0.00    0.40
 1976 122    25    10     2     0.1  123.3   16629  105.4   17.9  18.5  11.8  20.2  13.5   8.1   0.9   0.8   0.8   0.0   0.0   0.1   0.5   1.3   0.9   1.1  1.70  1.03  0.81  0.00  0.00   16.65   27.22    0.08    0.00    0.42
 1976 123    26    10     2     0.1  123.7   16629  105.8   17.9  18.7  11.8  20.2  13.6   8.1   0.9   0.8   0.8   0.0   0.0   0.1   0.5   1.3   0.9   1.1  1.71  1.03  0.80  0.00  0.00   17.27   27.84    0.08    0.00    0.44
 1976 124    27    10     2     0.1  124.1   16628  106.2   17.9  18.9  11.9  20.2  13.6   8.2   0.9   0.8   0.8   0.0   0.0   0.1   0.5   1.3   0.9   1.1  1.73  1.03  0.80  0.00  0.00   17.88   28.43    0.08    0.00    0.46
 1976 125    28    10     2     0.1  124.5   16628  106.6   17.9  19.1  11.9  20.2  13.7   8.2   0.9   0.8   0.8   0.0   0.0   0.1   0.5   1.3   0.9   1.1  1.75  1.03  0.79  0.00  0.00   18.49   29.01    0.09    0.00    0.48
 1976 126    29    10     2     0.1  124.6   16627  106.7   17.9  19.2  11.9  20.2  13.7   8.2   0.9   0.8   0.9   0.0   0.0   0.1   0.5   1.2   0.8   1.1  1.76  1.03  0.79  0.00  0.00   19.09   29.58    0.09    0.00    0.49
 1976 127    30    10     2     0.1  124.9   16626  107.1   17.8  19.3  11.9  20.1  13.8   8.3   0.9   0.8   0.9   0.0   0.0   0.1   0.5   1.2   0.8   1.1  1.78  1.03  0.78  0.00  0.00   19.72   30.27    0.09    0.00    0.51
 1976 128    31    10     2     0.1  125.0   16626  107.3   17.7  16.6  13.3  20.0  13.8   8.3   0.9   0.8   0.9   0.0   0.0   0.1   0.5   1.2   0.8   1.1  1.79  1.03  0.78  0.00  0.00   20.37   30.98    0.09    0.00    0.53
 1976 129    32    10     2     0.1  125.1   16625  107.4   17.7  10.7  13.9  21.2  14.2   8.4   0.9   0.8   0.9   0.0   0.0   0.1   0.5   1.2   0.8   1.0  1.81  1.03  0.77  0.00  0.00   21.01   31.63    0.09    0.00    0.55
 1976 130    33    10     2     0.1  125.1   16624  107.2   17.8  10.7  13.6  20.8  14.4   8.6   0.9   0.9   0.9   0.0   0.0   0.1   0.6   1.3   0.8   1.0  1.82  1.03  0.76  0.00  0.00   21.63   32.05    0.09    0.00    0.58
 1976 131    34    10     2     0.2  125.1   16624  106.9   18.2  10.8  13.3  20.4  14.4   8.7   1.0   0.9   0.9   0.0   0.0   0.1   0.7   1.3   0.8   1.0  1.84  1.03  0.76  0.00  0.00   22.23   32.28    0.09    0.00    0.60
 1976 132    35    10     2     0.2  125.1   16623  106.7   18.4  11.0  13.1  20.2  14.4   8.7   1.0   0.9   0.9   0.0   0.0   0.1   0.6   1.4   0.8   1.0  1.85  1.03  0.75  0.00  0.00   22.81   32.64    0.10    0.00    0.62
 1976 133    36    10     2     0.2  125.0   16623  106.6   18.4  11.3  13.0  20.1  14.4   8.7   1.0   0.9   0.9   0.0   0.0   0.1   0.6   1.4   0.8   1.0  1.86  1.03  0.75  0.00  0.00   23.36   33.13    0.10    0.00    0.64
 1976 134    37    10     2     0.2  124.9   16622  106.4   18.4  11.6  12.8  20.0  14.4   8.7   1.0   0.9   0.9   0.0   0.0   0.1   0.6   1.4   0.9   1.1  1.88  1.03  0.74  0.00  0.00   23.93   33.62    0.10    0.00    0.65
 1976 135    38    10     2     0.2  125.0   16622  106.5   18.5  11.8  12.7  19.9  14.4   8.8   1.0   0.9   0.9   0.0   0.0   0.1   0.6   1.3   0.9   1.1  1.89  1.03  0.74  0.00  0.00   24.50   34.11    0.11    0.00    0.67
 1976 136    39    10     2     0.2  124.8   16621  106.3   18.5  12.0  12.6  19.7  14.5   8.8   1.0   0.9   0.9   0.0   0.0   0.1   0.6   1.3   0.9   1.1  1.91  1.03  0.73  0.00  0.00   25.09   34.69    0.11    0.00    0.69
 1976 137    40    10     2     0.2  124.5   16620  106.1   18.4  12.2  12.5  19.4  14.5   8.8   1.0   0.9   1.0   0.0   0.0   0.1   0.5   1.3   0.8   1.1  1.92  1.04  0.73  0.00  0.00   25.71   35.29    0.12    0.00    0.71
 1976 138    41    10     2     0.2  124.0   16620  105.6   18.4  12.3  12.3  19.1  14.5   8.8   1.0   0.9   1.0   0.0   0.0   0.1   0.5   1.2   0.8   1.1  1.94  1.04  0.72  0.00  0.00   26.33   35.90    0.13    0.00    0.73
 1976 139    42    10     2     0.2  123.7   16619  105.3   18.4   9.0  13.6  19.1  14.6   8.8   1.0   1.0   1.0   0.0   0.0   0.1   0.5   1.2   0.8   1.1  1.95  1.04  0.72  0.00  0.00   26.96   36.49    0.13    0.00    0.74
 1976 140    43    10     2     0.2  122.8   16618  104.3   18.5   8.8  13.1  18.9  14.5   8.8   1.0   1.0   1.0   0.0   0.0   0.1   0.6   1.2   0.8   1.1  1.96  1.04  0.71  0.00  0.00   27.57   36.93    0.13    0.00    0.76
 1976 141    44    10     2     0.2  123.1   16618  104.5   18.6   8.9  13.1  18.9  14.6   8.9   1.0   1.0   1.0   0.0   0.0   0.1   0.7   1.2   0.8   1.2  1.98  1.04  0.71  0.00  0.00   28.16   37.41    0.14    0.00    0.79
 1976 142    45    10     2     0.2  122.9   16617  104.3   18.6   8.9  13.1  18.8  14.6   8.9   1.1   1.0   1.0   0.0   0.0   0.1   0.6   1.2   0.7   1.2  1.99  1.04  0.70  0.00  0.00   28.70   37.93    0.14    0.00    0.79
 1976 143    46    10     2     0.2  122.9   16617  104.3   18.6   8.9  13.0  18.7  14.6   8.9   1.1   1.0   1.0   0.0   0.0   0.1   0.6   1.2   0.7   1.2  2.01  1.04  0.70  0.00  0.00   29.21   38.42    0.14    0.00    0.79
 1976 144    47    10     2     0.2  123.2   16616  104.7   18.5   6.3  13.1  19.4  14.8   9.0   1.1   1.0   1.0   0.0   0.0   0.1   0.6   1.2   0.7   1.1  2.02  1.04  0.70  0.00  0.00   29.69   38.96    0.14    0.00    0.80
 1976 145    48    10     2     0.2  122.9   16616  104.2   18.6   6.2  12.7  18.9  14.8   9.2   1.1   1.0   1.0   0.0   0.0   0.1   0.7   1.2   0.7   1.1  2.03  1.04  0.69  0.00  0.00   30.17   39.31    0.14    0.00    0.80
 1976 146    49    10     2     0.2  122.0   16615  103.2   18.8   6.2  12.4  18.5  14.7   9.2   1.2   1.0   1.0   0.0   0.0   0.1   0.7   1.3   0.7   1.1  2.04  1.04  0.69  0.00  0.00   30.68   39.60    0.15    0.00    0.80
 1976 147    50    10     2     0.2  122.5   16615  103.7   18.8   6.5  12.4  18.6  14.7   9.2   1.2   1.0   1.0   0.0   0.0   0.1   0.7   1.3   0.7   1.1  2.06  1.04  0.68  0.00  0.00   31.20   40.12    0.15    0.00    0.81
 1976 148    51    10     2     0.2  122.7   16614  104.0   18.7   6.7  12.4  18.6  14.7   9.3   1.2   1.0   1.1   0.0   0.0   0.1   0.6   1.2   0.7   1.1  2.07  1.04  0.68  0.00  0.00   31.71   40.70    0.15    0.00    0.81
 1976 149    52    10     2     0.2  122.0   16614  103.4   18.6   6.8  12.2  18.3  14.7   9.3   1.2   1.1   1.1   0.0   0.0   0.1   0.6   1.2   0.7   1.1  2.08  1.04  0.67  0.00  0.00   32.24   41.30    0.15    0.00    0.81
 1976 150    53    10     2     1.8  120.5   16613  101.9   18.6   2.0   6.5  13.5  12.9  11.2   4.2   2.0   1.5   0.0   0.0   0.1   0.6   1.2   0.7   1.0  2.10  1.04  0.67  0.00  0.00   32.76   41.88    0.15    0.00    0.81
 1976 151    54    10     2     2.1  120.0   16613  101.1   18.9   1.7   6.2  13.1  12.7  11.3   4.2   2.1   1.5   0.0   0.0   0.2   0.7   1.3   0.7   1.1  2.11  1.05  0.67  0.00  0.00   33.25   41.98    0.23    0.00    0.82
 1976 152    55    10     2     2.7  118.5   16612   99.3   19.3   1.7   5.9  12.5  12.1  11.0   4.4   2.2   1.6   0.0   0.0   0.2   0.7   1.3   0.7   1.1  2.13  1.05  0.67  0.00  0.00   33.75   42.10    0.30    0.00    0.82
 1976 153    56    10     2     3.2  117.6   16612   98.0   19.5   1.8   5.7  12.0  11.7  10.9   4.5   2.3   1.6   0.0   0.0   0.2   0.8   1.4   0.7   1.1  2.14  1.05  0.67  0.00  0.00   34.27   42.33    0.35    0.00    0.82
 1976 154    57    10     2     3.2  117.0   16611   97.4   19.6   1.9   5.7  11.7  11.5  10.9   4.5   2.4   1.6   0.0   0.0   0.1   0.7   1.4   0.8   1.1  2.16  1.06  0.67  0.00  0.00   34.80   42.68    0.38    0.00    0.83
 1976 155    58    10     2     3.4  115.8   16611   96.2   19.6   2.0   5.5  11.4  11.2  10.8   4.5   2.4   1.6   0.0   0.0   0.1   0.7   1.4   0.8   1.1  2.17  1.06  0.66  0.00  0.00   35.32   43.15    0.45    0.00    0.83
 1976 156    59    10     2     3.5  115.6   16610   95.9   19.6   2.1   5.5  11.3  11.2  10.7   4.5   2.4   1.6   0.0   0.0   0.1   0.6   1.3   0.8   1.1  2.18  1.06  0.66  0.00  0.00   35.82   43.59    0.49    0.00    0.83
 1976 157    60    10     2     3.6  115.9   16610   96.3   19.7   1.0   4.1  10.0  10.7  11.2   5.4   2.8   1.7   0.0   0.0   0.1   0.6   1.3   0.8   1.2  2.19  1.06  0.66  0.00  0.00   36.29   44.02    0.51    0.00    0.84
 1976 158    61    10     2     7.0  112.7   16609   92.7   20.0   0.4   2.4   7.4   8.6  10.0   6.4   4.0   2.6   0.0   0.0   0.2   0.7   1.4   0.8   1.2  2.21  1.07  0.65  0.00  0.00   36.73   44.13    0.77    0.00    0.84
 1976 159    62    10     2     7.7  112.1   16609   91.8   20.3   0.3   2.2   7.0   8.3   9.8   6.5   4.2   2.7   0.0   0.0   0.2   0.7   1.4   0.9   1.2  2.22  1.07  0.65  0.00  0.00   37.13   44.23    1.04    0.00    0.84
 1976 160    63    10     2     9.0  110.2   16609   89.7   20.5   0.4   2.1   6.6   7.8   9.4   6.5   4.3   2.8   0.0   0.0   0.1   0.8   1.4   0.9   1.2  2.24  1.08  0.66  0.00  0.00   37.54   44.38    1.31    0.00    0.85
 1976 161    64    10     2     9.7  109.1   16608   88.4   20.7   0.5   2.1   6.4   7.5   9.1   6.4   4.4   2.9   0.0   0.0   0.1   0.8   1.5   0.9   1.2  2.25  1.08  0.65  0.00  0.00   37.96   44.56    1.47    0.00    0.85
 1976 162    65    10     2    10.2  108.5   16608   87.7   20.8   0.5   2.1   6.3   7.4   9.0   6.4   4.4   2.9   0.0   0.0   0.1   0.7   1.5   0.9   1.2  2.27  1.08  0.65  0.00  0.00   38.39   44.85    1.57    0.00    0.85
 1976 163    66    10     2    10.4  108.4   16607   87.7   20.7   0.6   2.2   6.3   7.3   8.9   6.3   4.4   3.0   0.0   0.0   0.1   0.7   1.5   0.9   1.2  2.28  1.08  0.65  0.00  0.00   38.81   45.26    1.63    0.00    0.86
 1976 164    67    10     2    10.6  108.7   16607   87.9   20.8   0.7   2.2   6.4   7.4   8.9   6.3   4.4   3.0   0.0   0.0   0.1   0.7   1.5   0.9   1.2  2.29  1.08  0.65  0.00  0.00   39.22   45.66    1.66    0.00    0.86
 1976 165    68    10     2    10.6  108.7   16606   88.0   20.7   0.8   2.3   6.4   7.3   8.9   6.3   4.4   3.0   0.0   0.0   0.1   0.6   1.4   0.9   1.3  2.30  1.08  0.64  0.00  0.00   39.62   46.05    1.68    0.00    0.86
 1976 166    69    10     2    10.6  109.0   16606   88.3   20.7   0.9   2.4   6.5   7.3   8.9   6.3   4.4   3.0   0.0   0.0   0.1   0.6   1.4   1.0   1.3  2.31  1.08  0.64  0.00  0.00   40.01   46.43    1.69    0.00    0.86
 1976 167    70    10     2    10.6  109.2   16606   88.6   20.7   1.0   2.4   6.5   7.4   8.9   6.3   4.4   3.0   0.0   0.0   0.1   0.6   1.4   0.9   1.3  2.32  1.08  0.64  0.00  0.00   40.41   46.87    1.71    0.00    0.87
 1976 168    71    10     2    10.6  109.2   16605   88.6   20.6   1.0   2.4   6.5   7.4   8.9   6.3   4.4   3.0   0.0   0.0   0.1   0.6   1.3   0.9   1.3  2.33  1.08  0.63  0.00  0.00   40.83   47.32    1.72    0.00    0.87
 1976 169    72    10     2    10.6  109.5   16605   88.9   20.6   1.1   2.5   6.5   7.4   8.9   6.4   4.5   3.0   0.0   0.0   0.1   0.6   1.3   0.9   1.3  2.34  1.08  0.63  0.00  0.00   41.26   47.77    1.74    0.00    0.87
 1976 170    73    10     2    10.6  109.3   16604   88.8   20.5   1.2   2.5   6.4   7.4   8.9   6.4   4.5   3.0   0.0   0.0   0.1   0.5   1.3   0.9   1.3  2.36  1.08  0.63  0.00  0.00   41.70   48.22    1.75    0.00    0.87
 1976 171    74    10     2    10.6  109.6   16604   89.1   20.5   1.3   2.6   6.4   7.4   8.9   6.4   4.5   3.0   0.0   0.0   0.1   0.5   1.3   0.9   1.3  2.37  1.08  0.62  0.00  0.00   42.17   48.68    1.77    0.00    0.88
 1976 172    75    10     2    10.6  109.5   16603   89.1   20.5   1.4   2.6   6.4   7.4   8.9   6.4   4.5   3.0   0.0   0.0   0.1   0.5   1.2   0.8   1.3  2.38  1.08  0.62  0.00  0.00   42.66   49.17    1.78    0.00    0.88
 1976 173    76    10     2    10.6  109.7   16603   89.3   20.4   1.4   2.7   6.4   7.4   8.9   6.4   4.5   3.0   0.0   0.0   0.1   0.5   1.2   0.8   1.3  2.39  1.08  0.62  0.00  0.00   43.17   49.66    1.79    0.00    0.88
 1976 174    77    10     2    10.6  109.6   16602   89.2   20.4   1.5   2.7   6.3   7.4   8.9   6.4   4.5   3.0   0.0   0.0   0.1   0.5   1.2   0.8   1.3  2.40  1.09  0.61  0.00  0.00   43.73   50.21    1.80    0.00    0.88
 1976 175    78    10     2    10.6  109.5   16602   89.2   20.3   1.6   2.7   6.2   7.3   8.9   6.4   4.5   3.0   0.0   0.0   0.1   0.5   1.2   0.8   1.3  2.42  1.09  0.61  0.00  0.00   44.36   50.92    1.81    0.00    0.89
 1976 176    79    10     2    10.6  109.1   16601   89.0   20.1   1.7   2.7   6.1   7.2   8.9   6.4   4.5   3.0   0.0   0.0   0.1   0.5   1.1   0.8   1.2  2.43  1.09  0.61  0.00  0.00   45.02   51.67    1.82    0.00    0.89
 1976 177    80    10     2    10.6  109.3   16600   89.2   20.0   0.9   2.3   5.9   7.5   9.2   6.5   4.6   3.1   0.0   0.0   0.1   0.5   1.1   0.7   1.2  2.44  1.09  0.60  0.00  0.00   45.70   52.41    1.84    0.00    0.89
 1976 178    81    10     2    10.7  109.4   16600   88.9   20.5   0.7   2.2   5.6   7.3   9.3   6.6   4.7   3.1   0.0   0.0   0.2   0.6   1.2   0.8   1.2  2.46  1.09  0.60  0.00  0.00   46.33   52.58    1.86    0.00    0.89
 1976 179    82    10     2    11.5  108.2   16599   87.5   20.7   0.8   2.1   5.3   6.9   8.8   6.6   4.8   3.2   0.0   0.0   0.1   0.7   1.3   0.8   1.2  2.47  1.09  0.60  0.00  0.00   46.89   52.81    1.89    0.00    0.90
 1976 180    83    10     2    12.0  108.0   16599   87.0   21.0   0.9   2.1   5.2   6.7   8.6   6.6   4.8   3.3   0.0   0.0   0.1   0.7   1.3   0.8   1.2  2.48  1.09  0.59  0.00  0.00   47.39   53.03    1.92    0.00    0.90
 1976 181    84    10     2    12.2  107.9   16598   86.8   21.1   1.0   2.1   5.2   6.6   8.5   6.6   4.9   3.3   0.0   0.0   0.1   0.7   1.4   0.8   1.2  2.49  1.09  0.59  0.00  0.00   47.84   53.33    1.93    0.00    0.91
 1976 182    85    10     2    12.3  107.9   16598   86.8   21.1   1.1   2.2   5.2   6.5   8.5   6.6   4.9   3.4   0.0   0.0   0.1   0.7   1.3   0.8   1.2  2.50  1.09  0.59  0.00  0.00   48.23   53.70    1.96    0.00    0.91
 1976 183    86    10     2    12.4  108.1   16598   87.0   21.1   1.2   2.2   5.2   6.5   8.4   6.6   4.9   3.4   0.0   0.0   0.1   0.6   1.3   0.9   1.2  2.51  1.09  0.59  0.00  0.00   48.61   54.06    1.99    0.00    0.91
 1976 184    87    10     2    12.4  108.5   16597   87.4   21.1   1.3   2.3   5.3   6.5   8.4   6.6   4.9   3.4   0.0   0.0   0.1   0.6   1.3   0.9   1.2  2.52  1.09  0.58  0.00  0.00   49.00   54.43    2.01    0.00    0.91
 1976 185    88    10     2    12.4  108.9   16597   87.7   21.2   1.4   2.3   5.4   6.5   8.5   6.6   4.9   3.4   0.0   0.0   0.1   0.6   1.3   0.9   1.2  2.53  1.09  0.58  0.00  0.00   49.40   54.79    2.02    0.00    0.92
 1976 186    89    10     2    12.4  109.3   16596   88.1   21.1   1.5   2.4   5.4   6.6   8.5   6.6   4.9   3.4   0.0   0.0   0.1   0.6   1.3   0.9   1.3  2.54  1.09  0.58  0.00  0.00   49.82   55.22    2.04    0.00    0.92
 1976 187    90    10     2    12.4  109.5   16596   88.4   21.1   1.5   2.5   5.5   6.6   8.5   6.7   4.9   3.4   0.0   0.0   0.1   0.6   1.3   0.9   1.3  2.55  1.09  0.58  0.00  0.00   50.26   55.67    2.06    0.00    0.92
 1976 188    91    10     2    12.4  109.9   16596   88.8   21.1   1.6   2.5   5.5   6.6   8.5   6.7   5.0   3.4   0.0   0.0   0.1   0.5   1.3   0.8   1.3  2.56  1.09  0.57  0.00  0.00   50.70   56.11    2.07    0.00    0.92
 1976 189    92    10     2    12.4  110.3   16595   89.2   21.1   1.7   2.6   5.6   6.7   8.5   6.7   5.0   3.4   0.0   0.0   0.1   0.5   1.2   0.8   1.3  2.58  1.09  0.57  0.00  0.00   51.13   56.54    2.09    0.00    0.92
 1976 190    93    10     2    12.4  110.7   16595   89.6   21.1   1.8   2.7   5.7   6.7   8.5   6.7   5.0   3.4   0.0   0.0   0.1   0.5   1.2   0.8   1.3  2.59  1.09  0.57  0.00  0.00   51.56   56.96    2.10    0.00    0.93
 1976 191    94    10     2    12.4  111.1   16594   90.0   21.1   1.9   2.7   5.7   6.7   8.5   6.7   5.0   3.4   0.0   0.0   0.1   0.5   1.2   0.8   1.3  2.60  1.09  0.56  0.00  0.00   51.94   57.36    2.12    0.00    0.93
 1976 192    95    10     2    12.4  111.5   16594   90.4   21.1   2.0   2.8   5.8   6.8   8.6   6.7   5.0   3.4   0.0   0.0   0.1   0.5   1.2   0.8   1.3  2.61  1.09  0.56  0.00  0.00   52.31   57.73    2.13    0.00    0.93

*DSSAT Cropping System Model Ver. 4.0.2.000               Aug 01, 2016; 15:44:49

*RUN   3        : UYMZ                    
 MODEL          : MZCER040 - Maize           
 EXPERIMENT     : UYMZ0105 MZ    late to create DSS                             
 TREATMENT  1   : UYMZ                    

@YEAR DOY   DAS  NAPC  NI#M    NLCC   NIAD    NOAD   NITD   NHTD  NI1D  NI2D  NI3D  NI4D  NI5D  NI6D  NI7D  NI8D  NI9D  NI10  NH1D  NH2D  NH3D  NH4D  NH5D  NH6D  NH7D  NH8D  NH9D  NH10    NMNC    NITC    NDNC    NIMC    AMLC
 1977 097     0     0     0     0.0   99.4   16645   76.8   22.6  16.3  15.3  15.2   8.6   4.6   0.0   0.1   0.1   0.0   0.0   0.3   1.3   1.5   1.4   1.4  1.50  1.47  1.46  0.00  0.00    0.62    2.00    0.00    0.00    0.00
 1977 098     1     0     0     0.0  100.0   16645   78.1   21.9  16.6  15.6  15.3   8.7   4.7   0.0   0.1   0.1   0.0   0.0   0.2   1.1   1.4   1.4   1.4  1.51  1.43  1.41  0.00  0.00    1.23    3.30    0.00    0.00    0.00
 1977 099     2     0     0     0.0  100.6   16644   79.3   21.3   7.6  16.5  18.0   8.8   4.7   0.1   0.1   0.2   0.0   0.0   0.1   1.0   1.4   1.3   1.3  1.51  1.40  1.37  0.00  0.00    1.82    4.46    0.00    0.00    0.00
 1977 100     3     0     1     0.0  101.2   16644   80.2   21.0   7.7  15.9  18.5   8.9   4.8   0.1   0.2   0.2   0.0   0.0   0.1   1.1   1.4   1.3   1.3  1.51  1.37  1.33  0.00  0.00    2.41    5.35    0.00    0.00    0.00
 1977 101     4     0     1     0.0  101.7   16643   81.2   20.5   7.8  15.9  18.7   9.1   4.9   0.1   0.2   0.2   0.0   0.0   0.1   1.0   1.4   1.2   1.3  1.51  1.34  1.29  0.00  0.00    2.98    6.40    0.00    0.00    0.00
 1977 102     5     0     1     0.0  102.3   16642   82.2   20.1   7.9  16.0  18.9   9.2   4.9   0.1   0.3   0.3   0.0   0.0   0.1   0.9   1.3   1.2   1.2  1.52  1.31  1.26  0.00  0.00    3.56    7.41    0.00    0.00    0.00
 1977 103     6     0     1     0.0  102.9   16642   83.3   19.7   8.0  16.2  19.0   9.3   5.0   0.1   0.3   0.3   0.0   0.0   0.1   0.8   1.3   1.1   1.2  1.52  1.28  1.22  0.00  0.00    4.17    8.44    0.00    0.00    0.00
 1977 104     7     0     1     0.0  103.6   16641   84.3   19.3   8.1  16.3  19.1   9.4   5.0   0.1   0.3   0.4   0.0   0.0   0.1   0.7   1.3   1.1   1.1  1.52  1.25  1.18  0.00  0.00    4.79    9.46    0.00    0.00    0.00
 1977 105     8     0     1     0.0  104.2   16641   85.3   18.9   8.1  16.5  19.2   9.6   5.1   0.2   0.4   0.4   0.0   0.0   0.1   0.7   1.3   1.1   1.1  1.53  1.22  1.15  0.00  0.00    5.42   10.46    0.00    0.00    0.00
 1977 106     9     0     1     0.0  104.9   16640   86.3   18.6   8.2  16.6  19.3   9.7   5.2   0.2   0.4   0.4   0.0   0.0   0.1   0.6   1.3   1.0   1.1  1.53  1.20  1.11  0.00  0.00    6.09   11.48    0.00    0.00    0.00
 1977 107    10     0     1     0.0  105.5   16639   87.3   18.2   8.3  16.8  19.4   9.8   5.2   0.2   0.5   0.5   0.0   0.0   0.1   0.6   1.3   1.0   1.0  1.53  1.17  1.08  0.00  0.00    6.76   12.47    0.00    0.00    0.00
 1977 108    11     0     1     0.0  106.2   16639   88.3   17.9   8.5  16.9  19.5   9.9   5.3   0.2   0.5   0.5   0.0   0.0   0.1   0.6   1.2   0.9   1.0  1.53  1.14  1.05  0.00  0.00    7.43   13.44    0.00    0.00    0.00
 1977 109    12     0     1     0.0  106.7   16638   89.0   17.7   8.5  16.9  19.7  10.0   5.3   0.2   0.5   0.5   0.0   0.0   0.1   0.6   1.2   0.9   1.0  1.54  1.12  1.02  0.00  0.00    8.11   14.40    0.00    0.00    0.00
 1977 110    13    10     2     0.0  117.3   16637   95.0   22.4  17.7  17.0  19.8  10.1   5.4   0.3   0.6   0.6   0.0   0.0   9.0   0.5   1.2   0.9   0.9  1.54  1.10  0.99  0.00  0.00    8.79   15.35    0.00    0.00    0.04
 1977 111    14    10     2     0.0  117.9   16637  100.9   17.1  26.8  17.1  19.9  10.2   5.4   0.3   0.6   0.6   0.0   0.0   0.0   0.5   1.2   0.9   0.9  1.54  1.07  0.96  0.00  0.00    9.45   21.24    0.00    0.00    0.08
 1977 112    15    10     2     0.0  118.6   16636  101.7   16.9  26.9  17.2  20.0  10.3   5.5   0.3   0.6   0.6   0.0   0.0   0.1   0.5   1.2   0.8   0.9  1.55  1.05  0.93  0.00  0.00   10.10   22.08    0.00    0.00    0.08
 1977 113    16    10     2     0.0  119.2   16635  102.6   16.6  27.0  17.3  20.1  10.4   5.5   0.3   0.7   0.7   0.0   0.0   0.1   0.5   1.2   0.8   0.9  1.55  1.03  0.91  0.00  0.00   10.76   22.97    0.00    0.00    0.10
 1977 114    17    10     2     0.0  119.8   16635  103.4   16.4  27.2  17.4  20.2  10.5   5.6   0.3   0.7   0.7   0.0   0.0   0.1   0.5   1.2   0.8   0.8  1.55  1.01  0.88  0.00  0.00   11.42   23.83    0.00    0.00    0.11
 1977 115    18    10     2     0.0  120.4   16634  104.2   16.2  27.3  17.5  20.3  10.6   5.6   0.4   0.7   0.7   0.0   0.0   0.1   0.4   1.2   0.8   0.8  1.55  0.98  0.85  0.00  0.00   12.06   24.68    0.00    0.00    0.13
 1977 116    19    10     2     0.0  121.0   16633  105.1   16.0  27.4  17.5  20.4  10.7   5.7   0.4   0.8   0.8   0.0   0.0   0.1   0.4   1.1   0.8   0.8  1.56  0.96  0.83  0.00  0.00   12.70   25.53    0.00    0.00    0.14
 1977 117    20    10     2     0.0  121.6   16633  105.8   15.7  27.6  17.6  20.6  10.8   5.7   0.4   0.8   0.8   0.0   0.0   0.1   0.4   1.1   0.7   0.8  1.56  0.94  0.81  0.00  0.00   13.34   26.37    0.00    0.00    0.16
 1977 118    21    10     2     0.0  121.9   16632  106.3   15.5  27.5  17.5  20.6  10.8   5.7   0.4   0.8   0.8   0.0   0.0   0.1   0.4   1.1   0.7   0.8  1.56  0.93  0.78  0.00  0.00   13.98   27.19    0.00    0.00    0.17
 1977 119    22    10     2     0.0  122.1   16631  106.8   15.4  27.5  17.4  20.7  10.9   5.8   0.4   0.9   0.8   0.0   0.0   0.1   0.4   1.1   0.7   0.8  1.56  0.91  0.76  0.00  0.00   14.61   28.00    0.00    0.00    0.19
 1977 120    23    10     2     0.0  122.3   16631  107.2   15.2  13.2  21.1  23.0  11.0   5.8   0.5   0.9   0.9   0.0   0.0   0.1   0.4   1.0   0.7   0.7  1.57  0.89  0.74  0.00  0.00   15.26   28.81    0.00    0.00    0.19
 1977 121    24    10     2     0.0  122.4   16630  107.2   15.2  10.3  19.8  24.5  11.1   5.9   0.5   0.9   0.9   0.0   0.0   0.1   0.5   1.0   0.7   0.7  1.57  0.87  0.72  0.00  0.00   16.01   29.54    0.00    0.00    0.19
 1977 122    25    10     2     0.0  122.7   16629  107.3   15.4   8.9  19.4  24.5  11.7   5.9   0.5   0.9   0.9   0.0   0.0   0.2   0.6   1.1   0.7   0.7  1.57  0.86  0.70  0.00  0.00   16.74   30.04    0.00    0.00    0.19
 1977 123    26    10     2     0.0  122.5   16629  107.1   15.5   8.9  18.9  23.8  12.3   6.0   0.5   1.0   0.9   0.0   0.0   0.1   0.7   1.2   0.7   0.7  1.57  0.84  0.68  0.00  0.00   17.44   30.64    0.00    0.00    0.20
 1977 124    27    10     2     0.0  122.8   16628  107.3   15.4   9.3  18.6  23.7  12.5   6.0   0.5   1.0   1.0   0.0   0.0   0.1   0.8   1.2   0.7   0.7  1.58  0.82  0.66  0.00  0.00   18.11   31.34    0.00    0.00    0.20
 1977 125    28    10     2     0.0  123.2   16627  108.0   15.2   8.2  18.9  23.9  12.6   6.0   0.6   1.0   1.0   0.0   0.0   0.1   0.7   1.2   0.7   0.7  1.58  0.81  0.64  0.00  0.00   18.77   32.19    0.00    0.00    0.23
 1977 126    29    10     2     0.0  123.3   16627  108.0   15.2   4.4  14.6  22.6  15.4   7.9   0.6   1.1   1.0   0.0   0.0   0.1   0.8   1.2   0.6   0.7  1.58  0.79  0.63  0.00  0.00   19.39   32.77    0.00    0.00    0.25
 1977 127    30    10     2     0.0  123.2   16626  107.7   15.5   2.4  11.1  20.2  15.3   9.8   1.8   1.2   1.1   0.0   0.0   0.2   0.9   1.3   0.7   0.7  1.58  0.78  0.61  0.00  0.00   19.99   33.05    0.00    0.00    0.28
 1977 128    31    10     2     0.1  123.1   16625  107.2   15.9   2.0  10.0  19.2  15.2  10.2   2.2   1.3   1.1   0.0   0.0   0.1   0.9   1.3   0.7   0.7  1.60  0.79  0.61  0.00  0.00   20.60   33.25    0.00    0.00    0.31
 1977 129    32    10     2     0.6  122.5   16625  106.2   16.3   1.9   9.7  18.5  14.7  10.2   2.5   1.4   1.1   0.0   0.0   0.1   1.0   1.4   0.7   0.8  1.62  0.79  0.61  0.00  0.00   21.22   33.40    0.00    0.00    0.33
 1977 130    33    10     2     0.9  122.4   16624  105.8   16.6   2.0   9.6  18.2  14.5  10.2   2.6   1.4   1.1   0.0   0.0   0.1   1.1   1.5   0.8   0.8  1.64  0.80  0.60  0.00  0.00   21.81   33.61    0.03    0.00    0.35
 1977 131    34    10     2     1.1  121.9   16624  105.1   16.8   2.2   9.5  17.8  14.3  10.2   2.7   1.5   1.2   0.0   0.0   0.1   1.0   1.6   0.8   0.8  1.65  0.80  0.60  0.00  0.00   22.39   34.01    0.18    0.00    0.37
 1977 132    35    10     2     1.2  121.8   16623  105.1   16.7   2.5   9.4  17.7  14.2  10.1   2.7   1.5   1.2   0.0   0.0   0.1   0.9   1.5   0.8   0.8  1.67  0.81  0.60  0.00  0.00   22.97   34.58    0.24    0.00    0.38
 1977 133    36    10     2     1.2  121.5   16622  104.8   16.7   2.7   9.4  17.5  14.1  10.1   2.7   1.5   1.2   0.0   0.0   0.1   0.8   1.5   0.8   0.8  1.68  0.81  0.60  0.00  0.00   23.54   35.13    0.27    0.00    0.40
 1977 134    37    10     2     1.2  121.2   16622  104.5   16.7   3.0   9.3  17.3  14.1  10.1   2.7   1.5   1.2   0.0   0.0   0.1   0.7   1.4   0.9   0.9  1.70  0.81  0.59  0.00  0.00   24.13   35.67    0.28    0.00    0.42
 1977 135    38    10     2     1.2  120.5   16621  103.8   16.6   3.0   9.3  17.0  14.0  10.1   2.7   1.5   1.2   0.0   0.0   0.1   0.7   1.4   0.8   0.9  1.71  0.82  0.59  0.00  0.00   24.71   36.26    0.29    0.00    0.44
 1977 136    39    10     2     1.2  120.7   16621  104.1   16.6   3.2   9.3  16.9  14.1  10.1   2.7   1.5   1.2   0.0   0.0   0.1   0.6   1.3   0.8   0.9  1.73  0.82  0.59  0.00  0.00   25.27   36.82    0.30    0.00    0.46
 1977 137    40    10     2     1.2  120.7   16620  104.1   16.6   3.3   9.3  16.8  14.1  10.2   2.7   1.5   1.2   0.0   0.0   0.1   0.6   1.3   0.8   0.9  1.74  0.82  0.58  0.00  0.00   25.81   37.33    0.31    0.00    0.46
 1977 138    41    10     2     1.2  120.8   16620  104.2   16.6   3.5   9.4  16.8  14.1  10.2   2.7   1.5   1.2   0.0   0.0   0.1   0.6   1.3   0.8   0.9  1.75  0.83  0.58  0.00  0.00   26.30   37.81    0.32    0.00    0.46
 1977 139    42    10     2     1.2  120.8   16619  104.2   16.6   3.6   9.4  16.7  14.1  10.2   2.8   1.6   1.2   0.0   0.0   0.1   0.6   1.3   0.8   0.9  1.77  0.83  0.58  0.00  0.00   26.76   38.25    0.33    0.00    0.46
 1977 140    43    10     2     1.2  121.0   16619  104.4   16.6   3.8   9.4  16.7  14.1  10.2   2.8   1.6   1.2   0.0   0.0   0.1   0.6   1.3   0.8   0.9  1.78  0.83  0.58  0.00  0.00   27.22   38.68    0.34    0.00    0.47
 1977 141    44    10     2     1.2  121.1   16618  104.5   16.6   3.9   9.4  16.6  14.1  10.2   2.8   1.6   1.2   0.0   0.0   0.1   0.6   1.2   0.8   1.0  1.79  0.83  0.57  0.00  0.00   27.69   39.12    0.35    0.00    0.47
 1977 142    45    10     2     1.2  121.3   16618  104.6   16.7   4.1   9.5  16.6  14.1  10.2   2.8   1.6   1.2   0.0   0.0   0.1   0.5   1.2   0.7   1.0  1.81  0.84  0.57  0.00  0.00   28.18   39.58    0.35    0.00    0.47
 1977 143    46    10     2     1.2  121.1   16617  104.4   16.7   4.2   9.4  16.4  14.0  10.2   2.8   1.6   1.2   0.0   0.0   0.1   0.5   1.2   0.7   1.0  1.82  0.84  0.57  0.00  0.00   28.67   40.02    0.36    0.00    0.47
 1977 144    47    10     2     1.2  121.1   16617  104.4   16.6   4.4   9.4  16.3  14.0  10.3   2.8   1.6   1.2   0.0   0.0   0.1   0.5   1.2   0.7   1.0  1.84  0.84  0.57  0.00  0.00   29.14   40.53    0.36    0.00    0.48
 1977 145    48    10     2     1.2  121.4   16616  104.8   16.6   4.6   9.4  16.3  14.0  10.3   2.8   1.6   1.3   0.0   0.0   0.1   0.5   1.2   0.7   0.9  1.85  0.84  0.56  0.00  0.00   29.62   41.03    0.37    0.00    0.48
 1977 146    49    10     2     1.3  121.7   16616  105.1   16.6   2.2   7.8  16.5  15.0  10.8   2.8   1.6   1.3   0.0   0.0   0.1   0.5   1.2   0.7   0.9  1.86  0.85  0.56  0.00  0.00   30.09   41.51    0.37    0.00    0.48
 1977 147    50    10     2     1.3  122.1   16616  105.2   16.9   2.3   7.6  16.3  14.9  11.1   2.9   1.7   1.3   0.0   0.0   0.1   0.6   1.2   0.7   0.9  1.88  0.85  0.56  0.00  0.00   30.54   41.67    0.38    0.00    0.48
 1977 148    51    10     2     1.5  122.3   16615  105.1   17.2   2.3   7.5  16.0  14.5  11.1   3.2   1.7   1.3   0.0   0.0   0.1   0.6   1.3   0.8   1.0  1.89  0.85  0.56  0.00  0.00   31.03   41.83    0.39    0.00    0.49
 1977 149    52    10     2     1.5  121.9   16615  104.5   17.5   1.9   7.0  15.7  14.5  11.2   3.2   1.8   1.3   0.0   0.0   0.1   0.7   1.4   0.8   1.0  1.90  0.85  0.55  0.00  0.00   31.53   42.03    0.39    0.00    0.49
 1977 150    53    10     2     1.8  122.0   16614  104.2   17.8   1.9   6.9  15.3  14.1  11.2   3.4   1.8   1.3   0.0   0.0   0.2   0.7   1.4   0.8   1.0  1.92  0.86  0.55  0.00  0.00   32.03   42.18    0.40    0.00    0.49
[...]
 1995 131    34    10     2     0.0  127.1   16623  112.3   14.8  14.0  14.8  22.8  14.8   7.2   0.7   1.2   1.1   0.0   0.0   0.1   0.5   1.3   0.7   0.6  1.59  0.73  0.55  0.00  0.00   23.11   36.73    0.00    0.00    0.49
 1995 132    35    10     2     0.0  127.2   16622  112.6   14.6  14.3  14.8  22.7  14.9   7.2   0.7   1.2   1.1   0.0   0.0   0.1   0.5   1.3   0.7   0.6  1.59  0.72  0.53  0.00  0.00   23.75   37.46    0.00    0.00    0.50
 1995 133    36    10     2     0.0  127.3   16622  112.7   14.5   8.9  15.5  23.7  15.1   7.3   0.7   1.2   1.2   0.0   0.0   0.1   0.5   1.2   0.7   0.6  1.60  0.71  0.52  0.00  0.00   24.39   38.18    0.00    0.00    0.52
 1995 134    37    10     2     0.0  127.1   16621  112.4   14.7   6.8  14.3  23.3  16.0   7.7   0.7   1.2   1.2   0.0   0.0   0.1   0.6   1.3   0.7   0.6  1.60  0.70  0.51  0.00  0.00   25.01   38.59    0.00    0.00    0.54
 1995 135    38    10     2     0.0  127.1   16620  112.2   14.9   6.8  14.0  22.6  15.8   8.1   0.9   1.3   1.2   0.0   0.0   0.1   0.7   1.4   0.7   0.6  1.60  0.69  0.49  0.00  0.00   25.63   38.97    0.00    0.00    0.57
 1995 136    39    10     2     0.1  126.3   16620  111.2   15.1   6.6  13.6  21.9  15.7   8.3   1.0   1.3   1.2   0.0   0.0   0.1   0.8   1.5   0.7   0.6  1.61  0.67  0.48  0.00  0.00   26.25   39.29    0.00    0.00    0.59
 1995 137    40    10     2     0.1  126.3   16619  111.0   15.4   5.8  13.5  21.7  15.8   8.5   1.1   1.3   1.2   0.0   0.0   0.1   0.7   1.5   0.7   0.6  1.63  0.68  0.48  0.00  0.00   26.85   39.64    0.00    0.00    0.61
 1995 138    41    10     2     0.1  125.7   16619  110.0   15.7   5.7  13.2  21.1  15.7   8.6   1.2   1.3   1.2   0.0   0.0   0.1   0.8   1.6   0.8   0.7  1.64  0.68  0.48  0.00  0.00   27.41   39.81    0.11    0.00    0.63
 1995 139    42    10     2     0.2  125.7   16618  109.7   16.0   5.8  13.0  20.9  15.6   8.7   1.2   1.3   1.2   0.0   0.0   0.1   0.8   1.6   0.8   0.7  1.66  0.69  0.48  0.00  0.00   27.95   40.04    0.17    0.00    0.66
 1995 140    43    10     2     0.2  125.7   16618  109.7   16.0   6.0  12.9  20.8  15.6   8.8   1.2   1.3   1.2   0.0   0.0   0.1   0.8   1.6   0.8   0.7  1.67  0.69  0.48  0.00  0.00   28.47   40.53    0.18    0.00    0.66
 1995 141    44    10     2     0.2  125.9   16617  109.9   16.0   6.3  12.9  20.8  15.6   8.8   1.2   1.3   1.2   0.0   0.0   0.1   0.7   1.5   0.8   0.7  1.69  0.69  0.47  0.00  0.00   28.97   40.99    0.20    0.00    0.66
 1995 142    45    10     2     0.2  125.8   16617  109.8   16.0   6.6  12.8  20.7  15.6   8.8   1.2   1.3   1.2   0.0   0.0   0.1   0.7   1.5   0.8   0.7  1.70  0.70  0.47  0.00  0.00   29.48   41.46    0.21    0.00    0.66
 1995 143    46    10     2     0.2  125.8   16616  109.7   16.0   6.9  12.7  20.6  15.5   8.8   1.2   1.3   1.2   0.0   0.0   0.1   0.7   1.5   0.9   0.8  1.71  0.70  0.47  0.00  0.00   29.98   41.91    0.22    0.00    0.66
 1995 144    47    10     2     0.2  126.1   16616  110.1   16.0   7.2  12.7  20.6  15.6   8.8   1.2   1.3   1.3   0.0   0.0   0.1   0.6   1.4   0.8   0.8  1.73  0.71  0.47  0.00  0.00   30.47   42.40    0.22    0.00    0.67
 1995 145    48    10     2     0.2  126.2   16615  110.1   16.0   7.5  12.7  20.5  15.6   8.8   1.2   1.3   1.3   0.0   0.0   0.1   0.6   1.4   0.8   0.8  1.74  0.71  0.47  0.00  0.00   30.95   42.88    0.23    0.00    0.67
 1995 146    49    10     2     0.2  126.5   16615  110.5   16.0   7.8  12.7  20.5  15.6   8.8   1.3   1.3   1.3   0.0   0.0   0.1   0.6   1.4   0.8   0.8  1.76  0.71  0.47  0.00  0.00   31.41   43.34    0.23    0.00    0.67
 1995 147    50    10     2     0.2  126.9   16614  110.9   16.0   8.1  12.8  20.6  15.7   8.8   1.3   1.4   1.3   0.0   0.0   0.1   0.6   1.4   0.8   0.8  1.77  0.72  0.46  0.00  0.00   31.88   43.79    0.23    0.00    0.68
 1995 148    51    10     2     0.2  126.8   16614  110.8   16.0   8.3  12.7  20.4  15.7   8.8   1.3   1.4   1.3   0.0   0.0   0.1   0.6   1.3   0.8   0.8  1.78  0.72  0.46  0.00  0.00   32.36   44.25    0.24    0.00    0.68
 1995 149    52    10     2     0.2  126.7   16613  110.7   16.0   8.5  12.6  20.3  15.6   8.8   1.3   1.4   1.3   0.0   0.0   0.1   0.5   1.3   0.8   0.9  1.80  0.72  0.46  0.00  0.00   32.84   44.70    0.24    0.00    0.68
 1995 150    53    10     2     0.2  126.8   16613  110.7   16.1   8.7  12.6  20.2  15.6   8.9   1.3   1.4   1.3   0.0   0.0   0.1   0.5   1.3   0.8   0.9  1.81  0.73  0.46  0.00  0.00   33.32   45.15    0.24    0.00    0.68
 1995 151    54    10     2     0.2  127.2   16612  111.1   16.0   8.9  12.7  20.3  15.7   8.9   1.3   1.4   1.3   0.0   0.0   0.1   0.5   1.3   0.7   0.9  1.82  0.73  0.46  0.00  0.00   33.80   45.66    0.24    0.00    0.69
 1995 152    55    10     2     0.2  127.4   16612  111.4   16.0   9.2  12.7  20.2  15.7   8.9   1.3   1.4   1.3   0.0   0.0   0.1   0.5   1.3   0.7   0.8  1.84  0.73  0.46  0.00  0.00   34.29   46.16    0.24    0.00    0.69
 1995 153    56    10     2     0.2  126.9   16611  110.9   16.0   9.0  12.6  20.0  15.6   9.0   1.3   1.4   1.3   0.0   0.0   0.1   0.5   1.2   0.7   0.8  1.85  0.74  0.46  0.00  0.00   34.77   46.66    0.24    0.00    0.69
 1995 154    57    10     2     0.2  126.6   16611  110.7   15.9   9.1  12.6  19.8  15.6   9.0   1.3   1.4   1.3   0.0   0.0   0.1   0.5   1.2   0.7   0.8  1.86  0.74  0.45  0.00  0.00   35.26   47.15    0.24    0.00    0.69
 1995 155    58    10     2     0.2  126.9   16610  111.0   15.9   9.3  12.6  19.8  15.6   9.1   1.3   1.4   1.3   0.0   0.0   0.1   0.5   1.2   0.7   0.8  1.88  0.74  0.45  0.00  0.00   35.77   47.66    0.25    0.00    0.70
 1995 156    59    10     2     0.2  126.2   16610  110.3   15.9   9.3  12.5  19.5  15.5   9.1   1.3   1.4   1.3   0.0   0.0   0.1   0.5   1.2   0.7   0.8  1.89  0.75  0.45  0.00  0.00   36.32   48.20    0.25    0.00    0.70
 1995 157    60    10     2     0.2  126.6   16609  110.7   15.9   9.3  12.7  19.5  15.5   9.2   1.3   1.4   1.3   0.0   0.0   0.1   0.5   1.2   0.7   0.8  1.90  0.75  0.45  0.00  0.00   36.87   48.74    0.25    0.00    0.70
 1995 158    61    10     2     0.2  126.6   16609  110.7   15.9   9.0  12.9  19.4  15.5   9.2   1.3   1.4   1.3   0.0   0.0   0.1   0.5   1.2   0.7   0.8  1.92  0.75  0.45  0.00  0.00   37.41   49.26    0.25    0.00    0.70
 1995 159    62    10     2     0.2  126.9   16608  110.9   15.9   9.0  12.9  19.4  15.5   9.2   1.3   1.4   1.3   0.0   0.0   0.1   0.5   1.2   0.7   0.7  1.93  0.76  0.45  0.00  0.00   37.94   49.77    0.25    0.00    0.71
 1995 160    63    10     2     0.2  127.3   16608  111.3   16.0   9.1  13.0  19.4  15.5   9.3   1.3   1.4   1.3   0.0   0.0   0.1   0.5   1.2   0.7   0.7  1.94  0.76  0.45  0.00  0.00   38.47   50.27    0.25    0.00    0.71
 1995 161    64    10     2     0.2  127.8   16607  111.8   16.0   9.2  13.1  19.5  15.6   9.3   1.3   1.5   1.4   0.0   0.0   0.1   0.5   1.2   0.7   0.7  1.96  0.76  0.44  0.00  0.00   38.95   50.73    0.25    0.00    0.71
 1995 162    65    10     2     1.2  126.9   16607  110.9   16.0   2.4   7.4  15.3  14.7  12.0   3.9   2.2   1.7   0.0   0.0   0.1   0.5   1.2   0.7   0.7  1.97  0.77  0.44  0.00  0.00   39.41   51.17    0.25    0.00    0.71
 1995 163    66    10     2     1.5  127.0   16606  110.7   16.4   2.2   7.2  15.0  14.5  12.1   4.0   2.3   1.7   0.0   0.0   0.2   0.6   1.2   0.7   0.7  1.99  0.77  0.44  0.00  0.00   39.87   51.25    0.33    0.00    0.72
 1995 164    67    10     2     2.2  126.4   16606  109.7   16.7   2.2   7.0  14.6  14.0  11.9   4.2   2.4   1.7   0.0   0.0   0.2   0.6   1.3   0.7   0.8  2.00  0.78  0.45  0.00  0.00   40.33   51.35    0.40    0.00    0.72
 1995 165    68    10     2     2.7  123.9   16605  107.0   16.9   2.1   6.6  13.7  13.3  11.8   4.3   2.5   1.8   0.0   0.0   0.2   0.7   1.3   0.7   0.8  2.01  0.78  0.45  0.00  0.00   40.78   51.52    0.44    0.00    0.72
 1995 166    69    10     2     2.8  124.2   16605  107.1   17.1   1.5   5.9  13.2  13.5  12.3   4.5   2.6   1.8   0.0   0.0   0.1   0.6   1.4   0.7   0.8  2.03  0.79  0.45  0.00  0.00   41.20   51.76    0.47    0.00    0.73
 1995 167    70    10     2     2.9  124.1   16605  106.7   17.4   1.1   5.2  12.3  12.9  12.3   5.1   2.8   1.8   0.0   0.0   0.2   0.7   1.4   0.8   0.8  2.04  0.79  0.45  0.00  0.00   41.59   51.87    0.83    0.00    0.73
 1995 168    71    10     2     3.7  123.2   16604  105.6   17.6   1.2   5.1  11.9  12.4  12.0   5.2   3.0   1.9   0.0   0.0   0.1   0.7   1.5   0.8   0.8  2.05  0.80  0.45  0.00  0.00   41.95   51.98    1.23    0.00    0.73
 1995 169    72    10     2     4.2  122.9   16604  105.0   17.8   1.2   5.0  11.7  12.1  11.8   5.3   3.1   2.0   0.0   0.0   0.1   0.7   1.5   0.8   0.8  2.07  0.80  0.45  0.00  0.00   42.32   52.12    1.47    0.00    0.74
 1995 170    73    10     2     4.5  122.8   16603  104.9   18.0   1.4   5.1  11.6  11.9  11.7   5.4   3.1   2.0   0.0   0.0   0.1   0.7   1.5   0.8   0.9  2.08  0.81  0.45  0.00  0.00   42.69   52.35    1.61    0.00    0.74
 1995 171    74    10     2     4.6  123.0   16603  104.9   18.1   1.5   5.1  11.6  11.9  11.6   5.4   3.1   2.1   0.0   0.0   0.1   0.7   1.6   0.8   0.9  2.09  0.81  0.44  0.00  0.00   43.07   52.59    1.68    0.00    0.74
 1995 172    75    10     2     4.7  123.3   16603  105.1   18.1   1.7   5.1  11.7  11.8  11.5   5.4   3.2   2.1   0.0   0.0   0.1   0.6   1.5   0.8   0.9  2.10  0.81  0.44  0.00  0.00   43.47   52.96    1.71    0.00    0.75
 1995 173    76    10     2     4.7  123.7   16602  105.5   18.2   1.9   5.2  11.8  11.9  11.6   5.4   3.2   2.1   0.0   0.0   0.1   0.6   1.5   0.9   0.9  2.11  0.82  0.44  0.00  0.00   43.88   53.34    1.73    0.00    0.75
 1995 174    77    10     2     4.7  124.1   16602  105.9   18.2   2.0   5.2  11.9  11.9  11.6   5.4   3.2   2.1   0.0   0.0   0.1   0.6   1.5   0.9   0.9  2.13  0.82  0.44  0.00  0.00   44.33   53.73    1.75    0.00    0.75
 1995 175    78    10     2     4.7  124.5   16601  106.3   18.3   1.3   4.6  11.7  12.3  11.9   5.5   3.2   2.1   0.0   0.0   0.1   0.6   1.5   0.9   0.9  2.14  0.82  0.44  0.00  0.00   44.80   54.15    1.76    0.00    0.75
 1995 176    79    10     2     5.1  124.5   16601  105.9   18.6   1.4   4.5  11.5  11.8  11.7   5.6   3.4   2.2   0.0   0.0   0.1   0.6   1.5   0.9   1.0  2.15  0.82  0.44  0.00  0.00   45.31   54.33    1.90    0.00    0.75
 1995 177    80    10     2     5.4  124.7   16600  105.8   18.9   1.5   4.5  11.3  11.6  11.6   5.7   3.4   2.2   0.0   0.0   0.1   0.7   1.6   0.9   1.0  2.16  0.83  0.44  0.00  0.00   45.83   54.54    1.99    0.00    0.76
 1995 178    81    10     2     5.5  125.1   16600  106.0   19.1   1.6   4.6  11.3  11.5  11.5   5.8   3.5   2.3   0.0   0.0   0.1   0.7   1.7   1.0   1.0  2.18  0.83  0.44  0.00  0.00   46.33   54.86    2.04    0.00    0.76
 1995 179    82    10     2     5.5  125.5   16599  106.2   19.3   1.8   4.7  11.3  11.4  11.5   5.8   3.5   2.3   0.0   0.0   0.1   0.6   1.7   1.0   1.0  2.19  0.83  0.44  0.00  0.00   46.81   55.16    2.07    0.00    0.76
 1995 180    83    10     2     5.5  125.8   16599  106.6   19.3   1.9   4.7  11.4  11.4  11.5   5.8   3.5   2.3   0.0   0.0   0.1   0.6   1.7   1.0   1.0  2.20  0.83  0.44  0.00  0.00   47.23   55.58    2.10    0.00    0.77
 1995 181    84    10     2     5.5  126.2   16599  106.9   19.3   1.9   4.8  11.5  11.4  11.6   5.8   3.5   2.3   0.0   0.0   0.1   0.6   1.6   1.0   1.0  2.21  0.84  0.43  0.00  0.00   47.61   55.96    2.12    0.00    0.77
 1995 182    85    10     2     6.0  126.1   16598  106.8   19.3   0.8   3.2   9.3  10.3  11.6   7.0   4.4   2.8   0.0   0.0   0.1   0.6   1.6   1.0   1.0  2.22  0.84  0.43  0.00  0.00   48.01   56.32    2.14    0.00    0.77
 1995 183    86    10     2     8.9  123.3   16598  103.6   19.6   0.4   2.3   7.6   9.0  10.7   7.5   5.1   3.3   0.0   0.0   0.2   0.6   1.7   1.0   1.1  2.24  0.85  0.43  0.00  0.00   48.41   56.41    2.44    0.00    0.77
 1995 184    87    10     2    10.5  121.8   16597  101.9   19.9   0.5   2.3   7.4   8.6  10.3   7.4   5.2   3.5   0.0   0.0   0.1   0.7   1.7   1.1   1.1  2.25  0.85  0.44  0.00  0.00   48.83   56.55    2.75    0.00    0.78
 1995 185    88    10     2    11.5  121.1   16597  100.9   20.2   0.6   2.3   7.4   8.4  10.0   7.3   5.2   3.5   0.0   0.0   0.1   0.7   1.8   1.1   1.1  2.27  0.86  0.44  0.00  0.00   49.29   56.74    2.93    0.00    0.78
 1995 186    89    10     2    12.9  120.0   16596   99.7   20.3   0.4   1.6   5.9   7.4   9.5   7.8   5.9   4.1   0.0   0.0   0.1   0.7   1.8   1.1   1.1  2.28  0.86  0.44  0.00  0.00   49.80   57.06    3.04    0.00    0.78
 1995 187    90    10     2    14.8  118.2   16596   97.6   20.7   0.4   1.6   5.8   7.1   9.1   7.7   5.9   4.2   0.0   0.0   0.1   0.7   1.9   1.1   1.1  2.29  0.87  0.44  0.00  0.00   50.28   57.21    3.42    0.00    0.79
 1995 188    91    10     2    16.0  117.3   16595   96.4   20.9   0.5   1.6   5.7   6.9   8.8   7.5   5.9   4.2   0.0   0.0   0.1   0.8   1.9   1.1   1.1  2.31  0.87  0.44  0.00  0.00   50.76   57.41    3.64    0.00    0.79
 1995 189    92    10     2    16.7  117.0   16595   95.9   21.1   0.6   1.7   5.7   6.8   8.7   7.5   5.9   4.3   0.0   0.0   0.1   0.8   2.0   1.1   1.1  2.32  0.88  0.44  0.00  0.00   51.23   57.73    3.77    0.00    0.79
 1995 190    93    10     2    17.0  117.1   16594   95.8   21.2   0.7   1.8   5.7   6.8   8.7   7.4   5.9   4.3   0.0   0.0   0.1   0.7   2.0   1.2   1.2  2.33  0.88  0.44  0.00  0.00   51.73   58.08    3.83    0.00    0.79
 1995 191    94    10     2    17.3  117.3   16594   96.1   21.2   0.8   1.9   5.8   6.8   8.7   7.4   5.9   4.3   0.0   0.0   0.1   0.7   2.0   1.2   1.2  2.35  0.88  0.44  0.00  0.00   52.22   58.62    3.87    0.00    0.80
 1995 192    95    10     2    17.3  117.8   16593   96.6   21.1   0.9   2.0   6.0   6.8   8.7   7.4   5.9   4.3   0.0   0.0   0.1   0.7   1.9   1.2   1.2  2.36  0.88  0.44  0.00  0.00   52.73   59.17    3.89    0.00    0.80
 1995 193    96    10     2    17.4  118.1   16593   97.0   21.2   0.5   1.7   5.5   6.6   8.8   7.7   6.1   4.4   0.0   0.0   0.2   0.6   1.8   1.2   1.2  2.37  0.88  0.44  0.00  0.00   53.25   59.68    3.91    0.00    0.80
 1995 194    97    10     2    23.2  112.6   16592   91.1   21.4   0.3   1.1   4.0   5.2   7.3   7.6   6.7   5.3   0.0   0.0   0.1   0.7   1.9   1.2   1.2  2.38  0.89  0.43  0.00  0.00   53.74   59.87    4.12    0.00    0.81
 1995 195    98    10     2    24.0  112.0   16592   90.2   21.8   0.3   1.1   3.9   5.0   7.1   7.5   6.7   5.4   0.0   0.0   0.2   0.8   2.0   1.2   1.2  2.40  0.90  0.44  0.00  0.00   54.24   60.00    4.40    0.00    0.81
 1995 196    99    10     2    24.7  111.5   16591   89.4   22.2   0.3   1.1   3.9   4.9   7.0   7.4   6.7   5.4   0.0   0.0   0.2   0.8   2.0   1.3   1.3  2.41  0.90  0.44  0.00  0.00   54.73   60.14    4.65    0.00    0.81
 1995 197   100    10     2    25.4  111.1   16591   88.7   22.4   0.4   1.0   3.8   4.8   6.9   7.3   6.7   5.4   0.0   0.0   0.2   0.9   2.1   1.3   1.3  2.43  0.91  0.44  0.00  0.00   55.18   60.35    4.87    0.00    0.82
 1995 198   101    10     2    27.3  109.3   16591   86.6   22.7   0.4   1.0   3.7   4.7   6.6   7.1   6.6   5.4   0.0   0.0   0.2   0.9   2.1   1.3   1.3  2.44  0.91  0.44  0.00  0.00   55.60   60.49    5.12    0.00    0.82
 1995 199   102    10     2    27.7  109.2   16590   86.3   22.8   0.4   1.0   3.7   4.7   6.6   7.1   6.5   5.4   0.0   0.0   0.1   0.9   2.2   1.3   1.3  2.45  0.92  0.44  0.00  0.00   55.99   60.71    5.25    0.00    0.83
 1995 200   103    20     3    29.2  117.8   16590   89.8   28.0   9.4   1.0   3.6   4.5   6.4   7.0   6.5   5.4   0.0   0.0   9.1   1.0   2.2   1.3   1.3  2.46  0.92  0.44  0.00  0.00   56.36   60.86    5.42    0.00    0.86
 1995 201   104    20     3    30.1  117.1   16589   91.1   26.0  13.2   1.0   3.5   4.5   6.3   7.0   6.4   5.3   0.0   0.0   5.2   1.0   2.3   1.3   1.3  2.47  0.92  0.44  0.00  0.00   56.73   63.12    5.52    0.00    0.94
 1995 202   105    20     3    30.6  116.9   16589   92.0   24.9  15.4   1.1   3.5   4.4   6.2   6.9   6.4   5.3   0.0   0.0   3.0   0.9   2.3   1.3   1.3  2.48  0.93  0.44  0.00  0.00   57.09   64.59    5.57    0.00    1.02
 1995 203   106    20     3    30.8  117.0   16589   92.8   24.2  16.7   1.2   3.5   4.4   6.2   6.9   6.4   5.3   0.0   0.0   1.6   0.9   2.3   1.3   1.3  2.49  0.93  0.44  0.00  0.00   57.46   65.61    5.60    0.00    1.07
 1995 204   107    20     3    30.8  117.3   16588   93.7   23.5  17.5   1.3   3.7   4.4   6.2   6.9   6.4   5.3   0.0   0.0   0.7   0.8   2.2   1.3   1.3  2.50  0.93  0.44  0.00  0.00   57.88   66.55    5.61    0.00    1.16
 1995 205   108    20     3    30.8  117.7   16588   94.5   23.2  18.0   1.4   3.8   4.5   6.2   6.9   6.4   5.3   0.0   0.0   0.3   0.8   2.2   1.3   1.3  2.51  0.93  0.44  0.00  0.00   58.35   67.33    5.63    0.00    1.21
 1995 206   109    20     3    30.9  118.1   16587   95.1   23.0  10.7   4.4   4.3   4.6   6.3   7.0   6.4   5.3   0.0   0.0   0.1   0.7   2.1   1.4   1.4  2.53  0.93  0.44  0.00  0.00   58.86   68.00    5.65    0.00    1.26
 1995 207   110    20     3    37.0  112.4   16587   89.1   23.3   3.7   4.1   4.3   4.0   5.3   6.7   6.7   6.0   0.0   0.0   0.1   0.8   2.1   1.4   1.4  2.54  0.93  0.44  0.00  0.00   59.38   68.19    5.71    0.00    1.30
 1995 208   111    20     3    39.0  110.6   16586   87.0   23.6   2.7   3.9   4.2   3.9   5.1   6.5   6.7   6.1   0.0   0.0   0.1   0.9   2.2   1.4   1.4  2.55  0.94  0.44  0.00  0.00   59.92   68.34    5.97    0.00    1.32
 1995 209   112    20     3    41.8  108.1   16586   84.1   24.0   2.7   3.9   4.2   3.7   4.9   6.3   6.4   5.9   0.0   0.0   0.2   0.9   2.3   1.4   1.4  2.57  0.95  0.44  0.00  0.00   60.45   68.49    6.21    0.00    1.35
 1995 210   113    20     3    43.4  106.8   16585   82.6   24.2   2.9   3.8   4.2   3.7   4.8   6.1   6.3   5.8   0.0   0.0   0.1   1.0   2.3   1.4   1.4  2.58  0.95  0.44  0.00  0.00   60.95   68.73    6.35    0.00    1.35
 1995 211   114    20     3    44.4  106.2   16585   81.9   24.3   3.0   3.9   4.2   3.6   4.7   6.0   6.2   5.8   0.0   0.0   0.1   0.9   2.4   1.4   1.4  2.59  0.95  0.44  0.00  0.00   61.43   69.12    6.45    0.00    1.36
 1995 212   115    20     3    44.5  106.5   16584   82.1   24.4   3.2   4.0   4.2   3.6   4.7   6.0   6.2   5.8   0.0   0.0   0.1   0.9   2.4   1.4   1.4  2.60  0.96  0.44  0.00  0.00   61.88   69.51    6.50    0.00    1.36
 1995 213   116    20     3    45.0  106.4   16584   82.2   24.3   3.3   4.1   4.3   3.6   4.7   6.0   6.2   5.7   0.0   0.0   0.1   0.8   2.3   1.5   1.4  2.61  0.96  0.44  0.00  0.00   62.32   70.07    6.54    0.00    1.36
 1995 214   117    20     3    45.1  106.7   16583   82.5   24.1   3.5   4.2   4.5   3.7   4.7   6.0   6.1   5.7   0.0   0.0   0.1   0.8   2.3   1.5   1.4  2.62  0.96  0.44  0.00  0.00   62.74   70.61    6.56    0.00    1.37
 1995 215   118    20     3    45.1  107.0   16583   83.0   24.0   3.6   4.2   4.6   3.7   4.7   6.0   6.1   5.7   0.0   0.0   0.1   0.7   2.2   1.5   1.5  2.63  0.96  0.44  0.00  0.00   63.13   71.09    6.58    0.00    1.37
 1995 216   119    20     3    45.1  107.4   16583   83.5   23.9   3.8   4.3   4.7   3.7   4.7   6.0   6.2   5.7   0.0   0.0   0.1   0.7   2.1   1.5   1.5  2.64  0.96  0.44  0.00  0.00   63.51   71.57    6.60    0.00    1.37
 1995 217   120    20     3    45.1  107.8   16582   84.0   23.8   3.9   4.3   4.8   3.8   4.8   6.0   6.2   5.7   0.0   0.0   0.1   0.7   2.1   1.4   1.5  2.65  0.96  0.43  0.00  0.00   63.90   72.13    6.61    0.00    1.37
 1995 218   121    20     3    45.1  108.1   16582   84.5   23.6   4.0   4.4   4.9   3.8   4.8   6.0   6.2   5.7   0.0   0.0   0.1   0.6   2.0   1.4   1.5  2.66  0.97  0.43  0.00  0.00   64.28   72.67    6.63    0.00    1.38
