*SOIL WATER DAILY OUTPUT FILE

*DSSAT Cropping System Model Ver. 4.0.2.000               Aug 01, 2016; 15:44:49

*RUN   1        : UYMZ                    
 MODEL          : MZCER040 - Maize           
 EXPERIMENT     : UYMZ0105 MZ    late to create DSS                             
 TREATMENT  1   : UYMZ                    

@YEAR DOY   DAS  SWXD   ROFC   DRNC   PREC  IR#C  IRRC  DTWT   SW1D   SW2D   SW3D   SW4D   SW5D   SW6D   SW7D   SW8D   SW9D   SW10
 1975 097     0   116      0      0      0     0     0   125  0.347  0.394  0.394  0.335  0.375  0.419  0.408  0.395  0.000  0.000
 1975 098     1   116      0      0      2     0     0   125  0.358  0.393  0.394  0.335  0.376  0.418  0.408  0.395  0.000  0.000
 1975 099     2   115      0      0      2     0     0   125  0.330  0.392  0.394  0.336  0.376  0.418  0.408  0.395  0.000  0.000
 1975 100     3   154      0      0      2     1    42   125  0.512  0.566  0.480  0.336  0.377  0.417  0.408  0.395  0.000  0.000
 1975 101     4   151      0      0      2     1    42   125  0.472  0.535  0.491  0.338  0.377  0.417  0.408  0.395  0.000  0.000
 1975 102     5   147      0      0      2     1    42   125  0.443  0.513  0.492  0.341  0.378  0.416  0.408  0.395  0.000  0.000
 1975 103     6   146      0      0      2     1    42   125  0.441  0.498  0.490  0.343  0.378  0.416  0.408  0.395  0.000  0.000
 1975 104     7   145      0      0      2     1    42   125  0.437  0.489  0.489  0.346  0.378  0.415  0.408  0.395  0.000  0.000
 1975 105     8   144      0      0      2     1    42   125  0.433  0.482  0.486  0.348  0.379  0.415  0.408  0.395  0.000  0.000
 1975 106     9   143      0      0      2     1    42   125  0.429  0.477  0.484  0.350  0.379  0.415  0.408  0.395  0.000  0.000
 1975 107    10   142      0      0      2     1    42   125  0.426  0.473  0.482  0.352  0.379  0.414  0.408  0.395  0.000  0.000
 1975 108    11   142      0      0      2     1    42   125  0.422  0.469  0.480  0.353  0.380  0.414  0.407  0.395  0.000  0.000
 1975 109    12   141      0      0      2     1    42   125  0.419  0.465  0.477  0.355  0.380  0.414  0.407  0.395  0.000  0.000
 1975 110    13   140      0      0      3     1    42   125  0.416  0.462  0.475  0.357  0.381  0.413  0.407  0.395  0.000  0.000
 1975 111    14   140      0      0      3     1    42   125  0.413  0.459  0.473  0.358  0.381  0.413  0.407  0.395  0.000  0.000
 1975 112    15   139      0      0      3     1    42   125  0.410  0.457  0.472  0.359  0.381  0.413  0.407  0.395  0.000  0.000
 1975 113    16   139      0      0      3     1    42   125  0.407  0.454  0.470  0.361  0.382  0.412  0.407  0.395  0.000  0.000
 1975 114    17   138      0      0      3     1    42   125  0.404  0.451  0.468  0.362  0.382  0.412  0.407  0.395  0.000  0.000
 1975 115    18   138      0      0      3     1    42   125  0.402  0.448  0.466  0.363  0.382  0.412  0.407  0.395  0.000  0.000
 1975 116    19   137      0      0      3     1    42   125  0.399  0.446  0.465  0.364  0.383  0.411  0.407  0.395  0.000  0.000
 1975 117    20   137      0      0      3     1    42   125  0.396  0.444  0.463  0.365  0.383  0.411  0.407  0.395  0.000  0.000
 1975 118    21   139      0      0     10     1    42   125  0.463  0.441  0.461  0.366  0.383  0.411  0.407  0.395  0.000  0.000
 1975 119    22   165      0      0     37     1    42   125  0.530  0.571  0.524  0.367  0.384  0.411  0.407  0.395  0.000  0.000
 1975 120    23   165      0      0     39     1    42   125  0.517  0.552  0.533  0.370  0.384  0.410  0.407  0.395  0.000  0.000
 1975 121    24   162      0      0     39     1    42   125  0.496  0.534  0.533  0.374  0.384  0.410  0.406  0.395  0.000  0.000
 1975 122    25   174      0      0     53     1    42   125  0.552  0.560  0.557  0.391  0.385  0.410  0.406  0.395  0.000  0.000
 1975 123    26   171      0      0     53     1    42   125  0.495  0.552  0.547  0.407  0.385  0.410  0.406  0.395  0.000  0.000
 1975 124    27   168      0      0     53     1    42   125  0.480  0.531  0.540  0.413  0.387  0.410  0.406  0.395  0.000  0.000
 1975 125    28   165      0      0     53     1    42   125  0.456  0.520  0.534  0.415  0.388  0.409  0.406  0.395  0.000  0.000
 1975 126    29   163      0      0     53     1    42   125  0.454  0.510  0.528  0.415  0.389  0.409  0.406  0.394  0.000  0.000
 1975 127    30   162      0      0     53     1    42   125  0.452  0.503  0.523  0.415  0.390  0.409  0.406  0.394  0.000  0.000
 1975 128    31   161      0      0     53     1    42   125  0.451  0.498  0.518  0.415  0.391  0.409  0.406  0.394  0.000  0.000
 1975 129    32   160      0      0     53     1    42   125  0.449  0.493  0.514  0.415  0.392  0.409  0.406  0.394  0.000  0.000
 1975 130    33   159      0      0     53     1    42   125  0.447  0.490  0.511  0.415  0.393  0.408  0.406  0.394  0.000  0.000
 1975 131    34   213      0      1    109     1    42   125  0.563  0.565  0.565  0.469  0.461  0.443  0.423  0.401  0.000  0.000
 1975 132    35   201      0     11    109     1    42   125  0.531  0.555  0.555  0.457  0.449  0.434  0.417  0.399  0.000  0.000
 1975 133    36   209      0     12    118     1    42   125  0.563  0.562  0.567  0.467  0.454  0.432  0.422  0.403  0.000  0.000
 1975 134    37   223      1     40    162     1    42   125  0.552  0.567  0.567  0.470  0.460  0.447  0.439  0.432  0.000  0.000
 1975 135    38   219      1     44    165     1    42   125  0.529  0.566  0.565  0.467  0.460  0.442  0.439  0.432  0.000  0.000
 1975 136    39   203      1     57    165     1    42   125  0.503  0.549  0.554  0.455  0.448  0.433  0.427  0.417  0.000  0.000
 1975 137    40   193      1     65    165     1    42   125  0.493  0.531  0.546  0.448  0.441  0.427  0.419  0.408  0.000  0.000
 1975 138    41   188      1     69    165     1    42   125  0.495  0.523  0.539  0.444  0.437  0.424  0.415  0.403  0.000  0.000
 1975 139    42   185      1     70    165     1    42   125  0.481  0.519  0.534  0.441  0.436  0.423  0.415  0.403  0.000  0.000
 1975 140    43   182      1     71    165     1    42   125  0.474  0.513  0.529  0.440  0.434  0.422  0.414  0.402  0.000  0.000
 1975 141    44   179      1     72    165     1    42   125  0.463  0.507  0.525  0.438  0.433  0.421  0.413  0.401  0.000  0.000
 1975 142    45   177      1     72    166     1    42   125  0.456  0.500  0.520  0.436  0.433  0.421  0.411  0.400  0.000  0.000
 1975 143    46   174      1     73    166     1    42   125  0.451  0.494  0.516  0.434  0.433  0.421  0.410  0.399  0.000  0.000
 1975 144    47   172      1     73    166     1    42   125  0.447  0.489  0.511  0.432  0.432  0.421  0.410  0.397  0.000  0.000
 1975 145    48   171      1     73    166     1    42   125  0.443  0.484  0.506  0.430  0.432  0.421  0.410  0.397  0.000  0.000
 1975 146    49   169      1     73    166     1    42   125  0.439  0.479  0.502  0.429  0.432  0.421  0.410  0.397  0.000  0.000
 1975 147    50   167      1     73    166     1    42   125  0.435  0.474  0.497  0.426  0.431  0.421  0.410  0.397  0.000  0.000
 1975 148    51   165      1     73    166     1    42   125  0.431  0.470  0.492  0.424  0.431  0.421  0.410  0.397  0.000  0.000
 1975 149    52   163      1     73    166     1    42   125  0.427  0.465  0.487  0.422  0.430  0.421  0.410  0.397  0.000  0.000
 1975 150    53   162      1     73    166     1    42   125  0.423  0.461  0.484  0.420  0.429  0.421  0.410  0.397  0.000  0.000
 1975 151    54   161      1     73    166     1    42   125  0.423  0.459  0.482  0.419  0.428  0.421  0.410  0.397  0.000  0.000
 1975 152    55   180      1     73    186     1    42   125  0.568  0.564  0.491  0.418  0.428  0.421  0.410  0.397  0.000  0.000
 1975 153    56   182      1     73    189     1    42   125  0.553  0.557  0.514  0.417  0.427  0.421  0.410  0.397  0.000  0.000
 1975 154    57   180      1     73    189     1    42   125  0.534  0.543  0.520  0.417  0.426  0.421  0.410  0.397  0.000  0.000
 1975 155    58   178      1     73    189     1    42   125  0.518  0.532  0.518  0.417  0.426  0.421  0.410  0.397  0.000  0.000
 1975 156    59   176      1     73    189     1    42   125  0.510  0.523  0.515  0.417  0.425  0.421  0.410  0.397  0.000  0.000
 1975 157    60   179      1     73    194     1    42   125  0.557  0.537  0.514  0.416  0.424  0.421  0.410  0.397  0.000  0.000
 1975 158    61   177      1     73    194     1    42   125  0.523  0.534  0.513  0.416  0.424  0.421  0.410  0.397  0.000  0.000
 1975 159    62   175      1     73    194     1    42   125  0.508  0.524  0.512  0.415  0.423  0.421  0.410  0.397  0.000  0.000
 1975 160    63   173      1     73    194     1    42   125  0.493  0.515  0.509  0.414  0.422  0.420  0.410  0.397  0.000  0.000
 1975 161    64   170      1     73    194     1    42   125  0.473  0.507  0.507  0.414  0.421  0.420  0.410  0.397  0.000  0.000
 1975 162    65   169      1     73    194     1    42   125  0.476  0.500  0.505  0.414  0.421  0.420  0.410  0.397  0.000  0.000
 1975 163    66   172      1     73    198     1    42   125  0.539  0.500  0.503  0.414  0.421  0.420  0.410  0.397  0.000  0.000
 1975 164    67   170      1     73    199     1    42   125  0.487  0.509  0.503  0.414  0.420  0.420  0.410  0.397  0.000  0.000
 1975 165    68   169      1     73    199     1    42   125  0.474  0.503  0.502  0.413  0.420  0.420  0.410  0.397  0.000  0.000
 1975 166    69   168      1     73    199     1    42   125  0.472  0.497  0.501  0.413  0.419  0.420  0.410  0.397  0.000  0.000
 1975 167    70   165      1     73    199     1    42   125  0.443  0.492  0.499  0.413  0.419  0.420  0.410  0.397  0.000  0.000
 1975 168    71   163      1     73    199     1    42   125  0.428  0.485  0.497  0.412  0.419  0.419  0.410  0.397  0.000  0.000
 1975 169    72   161      1     73    200     1    42   125  0.417  0.479  0.494  0.411  0.418  0.419  0.410  0.397  0.000  0.000
 1975 170    73   160      1     73    200     1    42   125  0.409  0.472  0.491  0.410  0.418  0.419  0.410  0.397  0.000  0.000
 1975 171    74   158      1     73    200     1    42   125  0.404  0.467  0.487  0.409  0.417  0.419  0.410  0.397  0.000  0.000
 1975 172    75   157      1     73    200     1    42   125  0.400  0.462  0.485  0.408  0.417  0.419  0.410  0.397  0.000  0.000
 1975 173    76   159      1     73    204     1    42   125  0.473  0.458  0.481  0.407  0.416  0.419  0.410  0.397  0.000  0.000
 1975 174    77   157      1     73    204     1    42   125  0.446  0.459  0.478  0.406  0.415  0.419  0.410  0.397  0.000  0.000
 1975 175    78   155      1     73    204     1    42   125  0.429  0.458  0.475  0.405  0.415  0.418  0.410  0.397  0.000  0.000
 1975 176    79   154      1     73    205     1    42   125  0.422  0.455  0.473  0.404  0.414  0.418  0.410  0.397  0.000  0.000
 1975 177    80   152      1     73    205     1    42   125  0.412  0.452  0.470  0.402  0.414  0.418  0.410  0.397  0.000  0.000
 1975 178    81   151      1     73    205     1    42   125  0.404  0.448  0.467  0.401  0.413  0.418  0.410  0.397  0.000  0.000
 1975 179    82   151      1     73    206     1    42   125  0.413  0.446  0.466  0.400  0.412  0.418  0.410  0.397  0.000  0.000
 1975 180    83   150      1     73    206     1    42   125  0.413  0.444  0.464  0.400  0.412  0.417  0.410  0.397  0.000  0.000
 1975 181    84   149      1     73    206     1    42   125  0.412  0.442  0.463  0.399  0.412  0.417  0.410  0.397  0.000  0.000
 1975 182    85   163      1     73    220     1    42   125  0.564  0.505  0.462  0.398  0.411  0.417  0.410  0.397  0.000  0.000
 1975 183    86   164      1     73    222     1    42   125  0.535  0.529  0.465  0.398  0.411  0.417  0.410  0.397  0.000  0.000
 1975 184    87   167      1     73    227     1    42   125  0.545  0.546  0.474  0.397  0.410  0.417  0.410  0.397  0.000  0.000
 1975 185    88   166      1     73    227     1    42   125  0.526  0.533  0.479  0.396  0.410  0.417  0.410  0.397  0.000  0.000
 1975 186    89   176      1     73    239     1    42   125  0.554  0.556  0.527  0.395  0.409  0.416  0.409  0.397  0.000  0.000
 1975 187    90   174      1     73    239     1    42   125  0.527  0.544  0.529  0.397  0.408  0.416  0.409  0.397  0.000  0.000
 1975 188    91   172      1     73    239     1    42   125  0.517  0.532  0.524  0.398  0.407  0.416  0.409  0.397  0.000  0.000
 1975 189    92   169      1     73    239     1    42   125  0.505  0.523  0.519  0.398  0.406  0.416  0.409  0.397  0.000  0.000
 1975 190    93   167      1     73    239     1    42   125  0.498  0.515  0.515  0.398  0.405  0.415  0.409  0.397  0.000  0.000
 1975 191    94   167      1     73    241     1    42   125  0.532  0.510  0.511  0.399  0.405  0.415  0.409  0.397  0.000  0.000
 1975 192    95   178      1     73    253     1    42   125  0.547  0.573  0.534  0.400  0.405  0.415  0.409  0.397  0.000  0.000
 1975 193    96   193      1     73    270     1    42   125  0.551  0.563  0.564  0.462  0.419  0.414  0.409  0.397  0.000  0.000
 1975 194    97   192      1     74    270     1    42   125  0.540  0.554  0.554  0.451  0.431  0.419  0.409  0.397  0.000  0.000
 1975 195    98   192      1     74    271     1    42   125  0.545  0.549  0.550  0.449  0.435  0.420  0.409  0.397  0.000  0.000
 1975 196    99   221      2     83    312     1    42   125  0.548  0.565  0.565  0.468  0.459  0.447  0.439  0.432  0.000  0.000
 1975 197   100   206      2     97    312     1    42   125  0.532  0.555  0.554  0.455  0.447  0.436  0.427  0.417  0.000  0.000
 1975 198   101   202      2     99    312     1    42   125  0.530  0.543  0.549  0.450  0.445  0.432  0.428  0.417  0.000  0.000
 1975 199   102   194      2    106    312     1    42   125  0.518  0.537  0.543  0.444  0.439  0.427  0.420  0.408  0.000  0.000
 1975 200   103   188      2    109    312     1    42   125  0.503  0.531  0.540  0.441  0.435  0.423  0.415  0.403  0.000  0.000
 1975 201   104   184      2    111    312     1    42   125  0.490  0.526  0.536  0.440  0.433  0.422  0.412  0.400  0.000  0.000
 1975 202   105   182      2    111    313     1    42   125  0.474  0.520  0.533  0.439  0.433  0.422  0.411  0.399  0.000  0.000
 1975 203   106   180      2    112    313     1    42   125  0.475  0.513  0.531  0.438  0.433  0.422  0.411  0.397  0.000  0.000
 1975 204   107   179      2    112    313     1    42   125  0.471  0.510  0.528  0.437  0.433  0.422  0.411  0.397  0.000  0.000
 1975 205   108   178      2    112    313     1    42   125  0.466  0.506  0.526  0.436  0.433  0.422  0.411  0.397  0.000  0.000
 1975 206   109   177      2    112    314     1    42   125  0.468  0.503  0.523  0.435  0.433  0.422  0.411  0.397  0.000  0.000
 1975 207   110   176      2    112    314     1    42   125  0.464  0.501  0.521  0.434  0.433  0.422  0.411  0.397  0.000  0.000
 1975 208   111   176      2    112    314     1    42   125  0.461  0.498  0.519  0.433  0.432  0.422  0.411  0.397  0.000  0.000
 1975 209   112   179      2    112    318     1    42   125  0.535  0.497  0.517  0.432  0.432  0.422  0.411  0.397  0.000  0.000
 1975 210   113   178      2    112    318     1    42   125  0.502  0.509  0.517  0.431  0.432  0.422  0.411  0.397  0.000  0.000
 1975 211   114   177      2    112    319     1    42   125  0.492  0.509  0.517  0.431  0.431  0.422  0.411  0.397  0.000  0.000
 1975 212   115   176      2    112    319     1    42   125  0.482  0.507  0.516  0.430  0.431  0.422  0.411  0.397  0.000  0.000
 1975 213   116   176      2    112    319     1    42   125  0.477  0.504  0.516  0.430  0.431  0.422  0.411  0.397  0.000  0.000
 1975 214   117   175      2    112    319     1    42   125  0.473  0.501  0.515  0.429  0.430  0.422  0.411  0.397  0.000  0.000
 1975 215   118   174      2    112    319     1    42   125  0.471  0.498  0.513  0.428  0.430  0.422  0.411  0.397  0.000  0.000
 1975 216   119   173      2    112    319     1    42   125  0.468  0.496  0.512  0.428  0.429  0.421  0.411  0.397  0.000  0.000
 1975 217   120   173      2    112    319     1    42   125  0.467  0.494  0.511  0.427  0.429  0.421  0.411  0.397  0.000  0.000
 1975 218   121   172      2    112    319     1    42   125  0.465  0.492  0.510  0.427  0.429  0.421  0.411  0.397  0.000  0.000
 1975 219   122   172      2    112    319     1    42   125  0.464  0.491  0.509  0.426  0.428  0.421  0.411  0.397  0.000  0.000
 1975 220   123   171      2    112    319     1    42   125  0.463  0.489  0.507  0.426  0.428  0.421  0.411  0.397  0.000  0.000
 1975 221   124   181      2    112    329     1    42   125  0.559  0.538  0.506  0.425  0.428  0.421  0.411  0.397  0.000  0.000
 1975 222   125   200      2    112    350     1    42   125  0.546  0.563  0.573  0.464  0.439  0.422  0.412  0.398  0.000  0.000
 1975 223   126   214      2    113    366     1    42   125  0.545  0.568  0.568  0.470  0.460  0.442  0.425  0.404  0.000  0.000
 1975 224   127   214      2    115    371     1    42   125  0.510  0.568  0.568  0.470  0.460  0.440  0.433  0.411  0.000  0.000
 1975 225   128   199      2    126    371     1    42   125  0.478  0.544  0.557  0.457  0.449  0.432  0.423  0.405  0.000  0.000
 1975 226   129   192      2    133    371     1    42   125  0.505  0.528  0.548  0.449  0.442  0.427  0.417  0.401  0.000  0.000
 1975 227   130   194      2    134    375     1    42   125  0.562  0.535  0.542  0.446  0.441  0.426  0.418  0.403  0.000  0.000
 1975 228   131   192      2    135    375     1    42   125  0.520  0.545  0.541  0.443  0.439  0.424  0.417  0.404  0.000  0.000
 1975 229   132   187      2    137    375     1    42   125  0.493  0.537  0.540  0.441  0.436  0.422  0.414  0.400  0.000  0.000
 1975 230   133   184      2    138    375     1    42   125  0.472  0.526  0.537  0.440  0.434  0.422  0.413  0.400  0.000  0.000
 1975 231   134   182      2    139    375     1    42   125  0.473  0.517  0.534  0.440  0.434  0.422  0.411  0.398  0.000  0.000
 1975 232   135   180      2    139    375     1    42   125  0.473  0.512  0.531  0.439  0.434  0.422  0.410  0.398  0.000  0.000
 1975 233   136   182      2    139    380     1    42   125  0.517  0.512  0.528  0.438  0.434  0.422  0.410  0.398  0.000  0.000
 1975 234   137   198      2    139    397     1    42   125  0.543  0.572  0.567  0.450  0.438  0.422  0.411  0.398  0.000  0.000
 1975 235   138   222      2    147    431     1    42   125  0.542  0.568  0.568  0.470  0.460  0.447  0.439  0.432  0.000  0.000
 1975 236   139   206      2    162    431     1    42   125  0.499  0.557  0.557  0.457  0.449  0.436  0.427  0.417  0.000  0.000
 1975 237   140   210      2    164    439     1    42   125  0.565  0.559  0.564  0.458  0.450  0.433  0.428  0.417  0.000  0.000
 1975 238   141   218      2    167    453     1    42   125  0.504  0.568  0.568  0.470  0.460  0.446  0.438  0.421  0.000  0.000
 1975 239   142   202      2    181    453     1    42   125  0.492  0.543  0.557  0.457  0.449  0.435  0.426  0.411  0.000  0.000
 1975 240   143   199      2    183    454     1    42   125  0.498  0.529  0.548  0.453  0.448  0.432  0.427  0.413  0.000  0.000
 1975 241   144   190      2    189    454     1    42   125  0.462  0.525  0.542  0.447  0.441  0.427  0.420  0.406  0.000  0.000
 1975 242   145   187      2    190    454     1    42   125  0.465  0.517  0.537  0.443  0.439  0.425  0.419  0.406  0.000  0.000
 1975 243   146   185      2    192    454     1    42   125  0.467  0.512  0.533  0.440  0.437  0.424  0.418  0.406  0.000  0.000
 1975 244   147   183      2    193    454     1    42   125  0.468  0.508  0.530  0.439  0.435  0.423  0.417  0.405  0.000  0.000
 1975 245   148   180      2    195    454     1    42   125  0.469  0.505  0.527  0.438  0.433  0.421  0.413  0.401  0.000  0.000
 1975 246   149   178      2    195    454     1    42   125  0.469  0.503  0.525  0.437  0.433  0.421  0.411  0.399  0.000  0.000
 1975 247   150   177      2    196    454     1    42   125  0.469  0.501  0.523  0.436  0.433  0.421  0.410  0.398  0.000  0.000
 1975 248   151   177      2    196    455     1    42   125  0.469  0.500  0.521  0.435  0.433  0.421  0.410  0.398  0.000  0.000
 1975 249   152   196      2    196    476     1    42   125  0.547  0.566  0.566  0.446  0.436  0.421  0.411  0.398  0.000  0.000
 1975 250   153   189      2    199    476     1    42   125  0.474  0.557  0.556  0.443  0.434  0.421  0.411  0.398  0.000  0.000
 1975 251   154   186      2    201    476     1    42   125  0.497  0.531  0.549  0.441  0.434  0.421  0.411  0.398  0.000  0.000
 1975 252   155   185      2    201    476     1    42   125  0.487  0.525  0.543  0.441  0.434  0.421  0.411  0.398  0.000  0.000
 1975 253   156   182      2    202    476     1    42   125  0.467  0.521  0.538  0.440  0.433  0.421  0.411  0.398  0.000  0.000
 1975 254   157   181      2    202    476     1    42   125  0.467  0.514  0.534  0.439  0.433  0.421  0.411  0.398  0.000  0.000
 1975 255   158   180      2    202    477     1    42   125  0.477  0.510  0.531  0.438  0.433  0.421  0.411  0.398  0.000  0.000
 1975 256   159   181      2    202    479     1    42   125  0.500  0.508  0.528  0.437  0.433  0.421  0.411  0.398  0.000  0.000
 1975 257   160   180      2    202    480     1    42   125  0.486  0.510  0.526  0.436  0.433  0.421  0.411  0.398  0.000  0.000
 1975 258   161   179      2    202    480     1    42   125  0.480  0.509  0.525  0.435  0.433  0.421  0.411  0.398  0.000  0.000
 1975 259   162   178      2    202    481     1    42   125  0.477  0.506  0.523  0.434  0.432  0.421  0.411  0.398  0.000  0.000
 1975 260   163   177      2    202    481     1    42   125  0.475  0.504  0.521  0.434  0.432  0.421  0.411  0.398  0.000  0.000
 1975 261   164   177      2    202    481     1    42   125  0.474  0.502  0.520  0.433  0.432  0.421  0.411  0.398  0.000  0.000
 1975 262   165   176      2    202    481     1    42   125  0.473  0.500  0.518  0.432  0.432  0.421  0.411  0.398  0.000  0.000
 1975 263   166   188      2    202    497     1    42   125  0.491  0.566  0.544  0.434  0.431  0.421  0.411  0.398  0.000  0.000
 1975 264   167   185      2    202    497     1    42   125  0.474  0.538  0.544  0.439  0.431  0.421  0.411  0.398  0.000  0.000
 1975 265   168   182      2    202    497     1    42   125  0.464  0.524  0.540  0.438  0.431  0.421  0.411  0.398  0.000  0.000
 1975 266   169   181      2    202    497     1    42   125  0.466  0.516  0.536  0.438  0.431  0.421  0.411  0.398  0.000  0.000
 1975 267   170   180      2    202    497     1    42   125  0.468  0.511  0.532  0.437  0.431  0.421  0.411  0.398  0.000  0.000
 1975 268   171   179      2    202    497     1    42   125  0.468  0.508  0.529  0.436  0.431  0.421  0.411  0.398  0.000  0.000
 1975 269   172   178      2    202    497     1    42   125  0.469  0.505  0.526  0.436  0.431  0.421  0.411  0.398  0.000  0.000
 1975 270   173   177      2    202    497     1    42   125  0.469  0.503  0.524  0.435  0.431  0.421  0.411  0.398  0.000  0.000
 1975 271   174   176      2    202    497     1    42   125  0.469  0.501  0.522  0.434  0.431  0.421  0.411  0.398  0.000  0.000
 1975 272   175   196      2    202    518     1    42   125  0.551  0.566  0.565  0.444  0.433  0.422  0.411  0.398  0.000  0.000
 1975 273   176   219      3    212    556     1    42   125  0.467  0.568  0.568  0.470  0.460  0.447  0.439  0.432  0.000  0.000
 1975 274   177   201      3    227    556     1    42   125  0.448  0.534  0.557  0.457  0.449  0.436  0.427  0.417  0.000  0.000
 1975 275   178   191      3    235    556     1    42   125  0.455  0.519  0.547  0.449  0.442  0.429  0.419  0.408  0.000  0.000
 1975 276   179   185      3    239    556     1    42   125  0.458  0.513  0.539  0.445  0.437  0.425  0.415  0.403  0.000  0.000
 1975 277   180   182      3    242    556     1    42   125  0.461  0.510  0.534  0.441  0.435  0.423  0.412  0.400  0.000  0.000
 1975 278   181   179      3    243    556     1    42   125  0.464  0.506  0.531  0.439  0.433  0.421  0.410  0.398  0.000  0.000
 1975 279   182   178      3    243    556     1    42   125  0.465  0.504  0.527  0.438  0.433  0.421  0.410  0.398  0.000  0.000
 1975 280   183   178      3    243    557     1    42   125  0.466  0.502  0.525  0.437  0.433  0.421  0.410  0.398  0.000  0.000
 1975 281   184   177      3    243    557     1    42   125  0.467  0.500  0.523  0.436  0.433  0.421  0.410  0.398  0.000  0.000
 1975 282   185   176      3    243    557     1    42   125  0.467  0.499  0.521  0.435  0.433  0.421  0.410  0.398  0.000  0.000
 1975 283   186   176      3    243    557     1    42   125  0.468  0.497  0.519  0.434  0.433  0.421  0.410  0.398  0.000  0.000
 1975 284   187   175      3    243    557     1    42   125  0.468  0.496  0.517  0.433  0.432  0.421  0.410  0.398  0.000  0.000
 1975 285   188   175      3    243    557     1    42   125  0.468  0.495  0.516  0.432  0.432  0.421  0.410  0.398  0.000  0.000
 1975 286   189   174      3    243    557     1    42   125  0.468  0.494  0.514  0.431  0.432  0.421  0.410  0.398  0.000  0.000
 1975 287   190   175      3    243    558     1    42   125  0.483  0.493  0.513  0.430  0.432  0.421  0.410  0.398  0.000  0.000
 1975 288   191   174      3    243    558     1    42   125  0.477  0.494  0.512  0.429  0.431  0.421  0.410  0.398  0.000  0.000
 1975 289   192   174      3    243    558     1    42   125  0.474  0.494  0.511  0.429  0.431  0.421  0.410  0.398  0.000  0.000
 1975 290   193   173      3    243    558     1    42   125  0.472  0.493  0.510  0.428  0.430  0.421  0.410  0.398  0.000  0.000
 1975 291   194   173      3    243    558     1    42   125  0.471  0.492  0.509  0.427  0.430  0.421  0.410  0.398  0.000  0.000
 1975 292   195   178      3    243    568     1    42   125  0.485  0.537  0.508  0.427  0.429  0.421  0.410  0.398  0.000  0.000
 1975 293   196   178      3    243    570     1    42   125  0.528  0.518  0.510  0.426  0.429  0.421  0.410  0.398  0.000  0.000
 1975 294   197   177      3    243    570     1    42   125  0.507  0.519  0.512  0.426  0.429  0.421  0.410  0.398  0.000  0.000

*DSSAT Cropping System Model Ver. 4.0.2.000               Aug 01, 2016; 15:44:49

*RUN   2        : UYMZ                    
 MODEL          : MZCER040 - Maize           
 EXPERIMENT     : UYMZ0105 MZ    late to create DSS                             
 TREATMENT  1   : UYMZ                    

@YEAR DOY   DAS  SWXD   ROFC   DRNC   PREC  IR#C  IRRC  DTWT   SW1D   SW2D   SW3D   SW4D   SW5D   SW6D   SW7D   SW8D   SW9D   SW10
 1976 097     0   120      0      0      4     0     0   125  0.438  0.394  0.394  0.335  0.375  0.419  0.408  0.395  0.000  0.000
 1976 098     1   120      0      0      6     0     0   125  0.438  0.396  0.394  0.335  0.376  0.418  0.408  0.395  0.000  0.000
 1976 099     2   117      0      0      7     0     0   125  0.367  0.398  0.394  0.336  0.376  0.418  0.408  0.395  0.000  0.000
 1976 100     3   153      0      0      7     1    40   125  0.487  0.567  0.482  0.336  0.377  0.417  0.408  0.395  0.000  0.000
 1976 101     4   159      0      0     16     1    40   125  0.528  0.550  0.519  0.338  0.377  0.417  0.408  0.395  0.000  0.000
 1976 102     5   156      0      0     16     1    40   125  0.471  0.535  0.521  0.342  0.378  0.416  0.408  0.395  0.000  0.000
 1976 103     6   153      0      0     16     1    40   125  0.446  0.517  0.517  0.346  0.378  0.416  0.408  0.395  0.000  0.000
 1976 104     7   151      0      0     16     1    40   125  0.446  0.505  0.513  0.349  0.378  0.415  0.408  0.395  0.000  0.000
 1976 105     8   150      0      0     16     1    40   125  0.445  0.497  0.508  0.353  0.379  0.415  0.408  0.395  0.000  0.000
 1976 106     9   149      0      0     16     1    40   125  0.443  0.491  0.504  0.355  0.379  0.415  0.408  0.395  0.000  0.000
 1976 107    10   148      0      0     16     1    40   125  0.441  0.487  0.500  0.358  0.380  0.414  0.408  0.395  0.000  0.000
 1976 108    11   148      0      0     16     1    40   125  0.439  0.483  0.497  0.360  0.380  0.414  0.407  0.395  0.000  0.000
 1976 109    12   147      0      0     16     1    40   125  0.437  0.479  0.493  0.362  0.381  0.414  0.407  0.395  0.000  0.000
 1976 110    13   173      0      0     44     1    40   125  0.554  0.565  0.560  0.378  0.381  0.413  0.407  0.395  0.000  0.000
 1976 111    14   195      0      0     69     1    40   125  0.512  0.568  0.564  0.474  0.435  0.414  0.407  0.395  0.000  0.000
 1976 112    15   190      0      3     69     1    40   125  0.500  0.545  0.555  0.460  0.433  0.419  0.408  0.395  0.000  0.000
 1976 113    16   186      0      5     69     1    40   125  0.485  0.531  0.548  0.451  0.433  0.419  0.408  0.395  0.000  0.000
 1976 114    17   184      0      5     70     1    40   125  0.476  0.523  0.541  0.447  0.436  0.421  0.408  0.395  0.000  0.000
 1976 115    18   181      0      6     70     1    40   125  0.467  0.517  0.537  0.443  0.434  0.421  0.408  0.395  0.000  0.000
 1976 116    19   180      0      6     70     1    40   125  0.466  0.512  0.533  0.440  0.434  0.422  0.408  0.395  0.000  0.000
 1976 117    20   179      0      6     70     1    40   125  0.466  0.508  0.530  0.439  0.433  0.422  0.408  0.395  0.000  0.000
 1976 118    21   178      0      6     70     1    40   125  0.465  0.504  0.527  0.438  0.433  0.422  0.408  0.395  0.000  0.000
 1976 119    22   177      0      6     70     1    40   125  0.464  0.501  0.524  0.437  0.433  0.422  0.408  0.395  0.000  0.000
 1976 120    23   176      0      6     70     1    40   125  0.463  0.499  0.522  0.436  0.433  0.422  0.408  0.395  0.000  0.000
 1976 121    24   175      0      6     70     1    40   125  0.462  0.496  0.520  0.435  0.432  0.422  0.408  0.395  0.000  0.000
 1976 122    25   174      0      6     70     1    40   125  0.461  0.494  0.517  0.434  0.432  0.422  0.408  0.395  0.000  0.000
 1976 123    26   173      0      6     70     1    40   125  0.460  0.492  0.515  0.433  0.432  0.422  0.408  0.395  0.000  0.000
 1976 124    27   173      0      6     70     1    40   125  0.459  0.490  0.513  0.432  0.432  0.422  0.408  0.395  0.000  0.000
 1976 125    28   172      0      6     70     1    40   125  0.457  0.488  0.511  0.431  0.431  0.422  0.408  0.395  0.000  0.000
 1976 126    29   171      0      6     70     1    40   125  0.456  0.487  0.510  0.430  0.431  0.422  0.408  0.395  0.000  0.000
 1976 127    30   170      0      6     70     1    40   125  0.454  0.485  0.508  0.429  0.431  0.422  0.408  0.395  0.000  0.000
 1976 128    31   179      0      6     79     1    40   125  0.554  0.522  0.506  0.428  0.430  0.422  0.408  0.395  0.000  0.000
 1976 129    32   190      0      6     93     1    40   125  0.512  0.570  0.558  0.436  0.430  0.422  0.408  0.395  0.000  0.000
 1976 130    33   188      0      6     93     1    40   125  0.497  0.545  0.555  0.443  0.433  0.422  0.408  0.395  0.000  0.000
 1976 131    34   184      0      8     93     1    40   125  0.482  0.529  0.546  0.441  0.433  0.422  0.408  0.395  0.000  0.000
 1976 132    35   181      0      8     93     1    40   125  0.461  0.520  0.539  0.441  0.433  0.422  0.408  0.395  0.000  0.000
 1976 133    36   179      0      8     93     1    40   125  0.451  0.512  0.533  0.440  0.433  0.422  0.408  0.395  0.000  0.000
 1976 134    37   177      0      8     93     1    40   125  0.449  0.505  0.529  0.439  0.433  0.422  0.408  0.395  0.000  0.000
 1976 135    38   176      0      8     93     1    40   125  0.447  0.499  0.524  0.438  0.433  0.422  0.408  0.395  0.000  0.000
 1976 136    39   174      0      8     93     1    40   125  0.445  0.494  0.520  0.437  0.433  0.422  0.408  0.395  0.000  0.000
 1976 137    40   173      0      8     93     1    40   125  0.443  0.490  0.516  0.435  0.432  0.422  0.408  0.395  0.000  0.000
 1976 138    41   172      0      8     93     1    40   125  0.441  0.487  0.514  0.434  0.432  0.422  0.408  0.395  0.000  0.000
 1976 139    42   184      0      8    108     1    40   125  0.543  0.555  0.517  0.432  0.432  0.422  0.408  0.395  0.000  0.000
 1976 140    43   183      0      8    108     1    40   125  0.523  0.543  0.524  0.432  0.432  0.422  0.408  0.395  0.000  0.000
 1976 141    44   181      0      8    108     1    40   125  0.511  0.530  0.525  0.432  0.431  0.422  0.408  0.395  0.000  0.000
 1976 142    45   179      0      8    108     1    40   125  0.489  0.522  0.523  0.431  0.431  0.422  0.408  0.395  0.000  0.000
 1976 143    46   179      0      8    109     1    40   125  0.524  0.514  0.522  0.431  0.431  0.422  0.408  0.395  0.000  0.000
 1976 144    47   190      0      8    122     1    40   125  0.520  0.570  0.550  0.437  0.430  0.422  0.408  0.395  0.000  0.000
 1976 145    48   186      0      9    122     1    40   125  0.505  0.547  0.545  0.438  0.431  0.422  0.408  0.395  0.000  0.000
 1976 146    49   184      0      9    122     1    40   125  0.509  0.531  0.541  0.438  0.431  0.422  0.408  0.395  0.000  0.000
 1976 147    50   183      0      9    122     1    40   125  0.511  0.527  0.537  0.437  0.431  0.422  0.408  0.395  0.000  0.000
 1976 148    51   182      0      9    122     1    40   125  0.504  0.524  0.534  0.437  0.431  0.422  0.408  0.395  0.000  0.000
 1976 149    52   181      0      9    122     1    40   125  0.506  0.520  0.531  0.436  0.431  0.422  0.408  0.395  0.000  0.000
 1976 150    53   224     51     40    246     1    40   125  0.575  0.569  0.566  0.469  0.460  0.447  0.439  0.432  0.000  0.000
 1976 151    54   220     51     44    249     1    40   125  0.544  0.566  0.566  0.469  0.460  0.442  0.439  0.432  0.000  0.000
 1976 152    55   204     51     58    249     1    40   125  0.515  0.554  0.553  0.456  0.449  0.433  0.427  0.417  0.000  0.000
 1976 153    56   195     51     66    249     1    40   125  0.514  0.536  0.547  0.448  0.442  0.427  0.419  0.408  0.000  0.000
 1976 154    57   192     51     67    250     1    40   125  0.511  0.528  0.540  0.445  0.440  0.426  0.419  0.408  0.000  0.000
 1976 155    58   186     51     71    250     1    40   125  0.496  0.524  0.534  0.441  0.437  0.423  0.415  0.403  0.000  0.000
 1976 156    59   183     51     73    250     1    40   125  0.499  0.518  0.531  0.439  0.434  0.421  0.412  0.400  0.000  0.000
 1976 157    60   217     51     74    286     1    40   125  0.569  0.565  0.566  0.469  0.460  0.447  0.431  0.408  0.000  0.000
 1976 158    61   223     52    113    333     1    40   125  0.558  0.567  0.567  0.470  0.460  0.447  0.439  0.432  0.000  0.000
 1976 159    62   221     52    120    341     1    40   125  0.536  0.566  0.566  0.469  0.460  0.447  0.439  0.432  0.000  0.000
 1976 160    63   205     52    135    341     1    40   125  0.509  0.552  0.554  0.456  0.449  0.436  0.427  0.417  0.000  0.000
 1976 161    64   195     52    143    341     1    40   125  0.505  0.534  0.547  0.448  0.442  0.429  0.419  0.408  0.000  0.000
 1976 162    65   188     52    147    341     1    40   125  0.494  0.527  0.540  0.444  0.437  0.425  0.415  0.403  0.000  0.000
 1976 163    66   185     52    150    341     1    40   125  0.498  0.521  0.536  0.441  0.435  0.423  0.412  0.400  0.000  0.000
 1976 164    67   182     52    151    341     1    40   125  0.480  0.518  0.532  0.440  0.433  0.421  0.410  0.398  0.000  0.000
 1976 165    68   180     52    151    341     1    40   125  0.469  0.513  0.529  0.438  0.433  0.421  0.410  0.398  0.000  0.000
 1976 166    69   178     52    151    341     1    40   125  0.461  0.507  0.526  0.437  0.433  0.421  0.410  0.398  0.000  0.000
 1976 167    70   177     52    151    341     1    40   125  0.458  0.503  0.523  0.436  0.433  0.421  0.410  0.398  0.000  0.000
 1976 168    71   176     52    151    341     1    40   125  0.459  0.499  0.521  0.435  0.433  0.421  0.410  0.398  0.000  0.000
 1976 169    72   175     52    151    341     1    40   125  0.457  0.496  0.518  0.434  0.433  0.421  0.410  0.398  0.000  0.000
 1976 170    73   174     52    151    341     1    40   125  0.455  0.493  0.516  0.432  0.432  0.421  0.410  0.398  0.000  0.000
 1976 171    74   173     52    151    341     1    40   125  0.454  0.491  0.514  0.431  0.432  0.421  0.410  0.398  0.000  0.000
 1976 172    75   172     52    151    341     1    40   125  0.453  0.489  0.511  0.430  0.432  0.421  0.410  0.398  0.000  0.000
 1976 173    76   172     52    151    341     1    40   125  0.451  0.486  0.509  0.429  0.431  0.421  0.410  0.398  0.000  0.000
 1976 174    77   171     52    151    341     1    40   125  0.450  0.484  0.507  0.428  0.431  0.421  0.410  0.398  0.000  0.000
 1976 175    78   170     52    151    341     1    40   125  0.448  0.482  0.504  0.427  0.430  0.421  0.410  0.398  0.000  0.000
 1976 176    79   169     52    151    341     1    40   125  0.447  0.480  0.502  0.426  0.430  0.421  0.410  0.398  0.000  0.000
 1976 177    80   203     52    151    377     1    40   125  0.565  0.566  0.566  0.469  0.446  0.423  0.412  0.399  0.000  0.000
 1976 178    81   205     52    152    381     1    40   125  0.537  0.567  0.567  0.469  0.456  0.427  0.416  0.400  0.000  0.000
 1976 179    82   196     52    160    381     1    40   125  0.506  0.554  0.556  0.457  0.446  0.424  0.413  0.398  0.000  0.000
 1976 180    83   189     52    164    381     1    40   125  0.495  0.535  0.549  0.449  0.440  0.422  0.411  0.397  0.000  0.000
 1976 181    84   186     52    166    381     1    40   125  0.500  0.526  0.542  0.444  0.436  0.422  0.411  0.397  0.000  0.000
 1976 182    85   183     52    166    381     1    40   125  0.478  0.523  0.538  0.441  0.434  0.422  0.411  0.397  0.000  0.000
 1976 183    86   181     52    167    381     1    40   125  0.463  0.516  0.534  0.439  0.433  0.422  0.411  0.397  0.000  0.000
 1976 184    87   179     52    167    382     1    40   125  0.462  0.510  0.530  0.438  0.433  0.422  0.411  0.397  0.000  0.000
 1976 185    88   178     52    167    382     1    40   125  0.462  0.506  0.527  0.437  0.433  0.422  0.411  0.397  0.000  0.000
 1976 186    89   177     52    167    382     1    40   125  0.461  0.502  0.524  0.436  0.433  0.422  0.411  0.397  0.000  0.000
 1976 187    90   176     52    167    382     1    40   125  0.461  0.499  0.522  0.435  0.433  0.422  0.411  0.397  0.000  0.000
 1976 188    91   176     52    167    382     1    40   125  0.461  0.497  0.520  0.434  0.432  0.422  0.411  0.397  0.000  0.000
 1976 189    92   175     52    167    382     1    40   125  0.460  0.495  0.518  0.433  0.432  0.422  0.411  0.397  0.000  0.000
 1976 190    93   174     52    167    382     1    40   125  0.460  0.494  0.516  0.432  0.432  0.422  0.411  0.397  0.000  0.000
 1976 191    94   174     52    167    382     1    40   125  0.460  0.492  0.514  0.431  0.431  0.422  0.411  0.397  0.000  0.000
 1976 192    95   173     52    167    382     1    40   125  0.460  0.491  0.513  0.430  0.431  0.422  0.411  0.397  0.000  0.000

*DSSAT Cropping System Model Ver. 4.0.2.000               Aug 01, 2016; 15:44:49

*RUN   3        : UYMZ                    
 MODEL          : MZCER040 - Maize           
 EXPERIMENT     : UYMZ0105 MZ    late to create DSS                             
 TREATMENT  1   : UYMZ                    

@YEAR DOY   DAS  SWXD   ROFC   DRNC   PREC  IR#C  IRRC  DTWT   SW1D   SW2D   SW3D   SW4D   SW5D   SW6D   SW7D   SW8D   SW9D   SW10
 1977 097     0   117      0      0      0     0     0   125  0.366  0.394  0.394  0.335  0.375  0.419  0.408  0.395  0.000  0.000
 1977 098     1   122      0      0      7     0     0   125  0.473  0.393  0.394  0.335  0.376  0.418  0.408  0.395  0.000  0.000
 1977 099     2   151      0      0     38     0     0   125  0.502  0.572  0.457  0.336  0.376  0.418  0.408  0.395  0.000  0.000
 1977 100     3   148      0      0     38     0     0   125  0.490  0.535  0.470  0.337  0.377  0.417  0.408  0.395  0.000  0.000
 1977 101     4   145      0      0     38     0     0   125  0.460  0.514  0.473  0.339  0.377  0.417  0.408  0.395  0.000  0.000
 1977 102     5   143      0      0     38     0     0   125  0.443  0.499  0.474  0.341  0.378  0.416  0.408  0.395  0.000  0.000
 1977 103     6   142      0      0     39     0     0   125  0.435  0.488  0.473  0.343  0.378  0.416  0.408  0.395  0.000  0.000
 1977 104     7   144      0      0     44     0     0   125  0.498  0.480  0.473  0.345  0.378  0.415  0.408  0.395  0.000  0.000
 1977 105     8   143      0      0     44     0     0   125  0.464  0.482  0.472  0.346  0.379  0.415  0.408  0.395  0.000  0.000
 1977 106     9   142      0      0     44     0     0   125  0.448  0.479  0.471  0.348  0.379  0.415  0.408  0.395  0.000  0.000
 1977 107    10   141      0      0     44     0     0   125  0.436  0.474  0.470  0.349  0.379  0.414  0.408  0.395  0.000  0.000
 1977 108    11   140      0      0     45     0     0   125  0.427  0.470  0.469  0.351  0.380  0.414  0.407  0.395  0.000  0.000
 1977 109    12   139      0      0     45     0     0   125  0.420  0.466  0.468  0.352  0.380  0.414  0.407  0.395  0.000  0.000
 1977 110    13   139      0      0     45     0     0   125  0.414  0.462  0.467  0.354  0.380  0.413  0.407  0.395  0.000  0.000
 1977 111    14   138      0      0     45     0     0   125  0.409  0.458  0.466  0.355  0.381  0.413  0.407  0.395  0.000  0.000
 1977 112    15   137      0      0     45     0     0   125  0.405  0.454  0.464  0.356  0.381  0.413  0.407  0.395  0.000  0.000
 1977 113    16   137      0      0     45     0     0   125  0.401  0.451  0.463  0.357  0.381  0.412  0.407  0.395  0.000  0.000
 1977 114    17   136      0      0     45     0     0   125  0.397  0.448  0.461  0.359  0.382  0.412  0.407  0.395  0.000  0.000
 1977 115    18   135      0      0     45     0     0   125  0.393  0.445  0.460  0.360  0.382  0.412  0.407  0.395  0.000  0.000
 1977 116    19   135      0      0     45     0     0   125  0.389  0.442  0.459  0.361  0.382  0.411  0.407  0.395  0.000  0.000
 1977 117    20   134      0      0     45     0     0   125  0.386  0.439  0.457  0.361  0.383  0.411  0.407  0.395  0.000  0.000
 1977 118    21   133      0      0     45     0     0   125  0.382  0.436  0.455  0.362  0.383  0.411  0.407  0.395  0.000  0.000
 1977 119    22   133      0      0     45     0     0   125  0.379  0.433  0.454  0.363  0.383  0.411  0.407  0.395  0.000  0.000
 1977 120    23   159      0      0     45     1    30   125  0.506  0.565  0.498  0.364  0.383  0.410  0.407  0.395  0.000  0.000
 1977 121    24   168      0      0     55     1    30   125  0.565  0.551  0.544  0.366  0.384  0.410  0.406  0.395  0.000  0.000
 1977 122    25   169      0      0     60     1    30   125  0.511  0.566  0.549  0.379  0.384  0.410  0.406  0.395  0.000  0.000
 1977 123    26   166      0      0     60     1    30   125  0.480  0.543  0.541  0.392  0.385  0.410  0.406  0.395  0.000  0.000
 1977 124    27   164      0      0     60     1    30   125  0.487  0.526  0.534  0.395  0.385  0.409  0.406  0.395  0.000  0.000
 1977 125    28   172      0      0     68     1    30   125  0.567  0.552  0.536  0.398  0.386  0.409  0.406  0.395  0.000  0.000
 1977 126    29   195      0      0     93     1    30   125  0.551  0.565  0.566  0.472  0.434  0.410  0.406  0.394  0.000  0.000
 1977 127    30   215      0      1    116     1    30   125  0.540  0.567  0.567  0.470  0.460  0.447  0.429  0.404  0.000  0.000
 1977 128    31   219      0      4    124     1    30   125  0.529  0.566  0.567  0.470  0.460  0.447  0.439  0.419  0.000  0.000
 1977 129    32   204      0     17    124     1    30   125  0.519  0.550  0.556  0.457  0.449  0.436  0.427  0.409  0.000  0.000
 1977 130    33   194      0     25    124     1    30   125  0.494  0.535  0.549  0.449  0.442  0.429  0.419  0.404  0.000  0.000
 1977 131    34   188      0     29    124     1    30   125  0.488  0.524  0.541  0.445  0.437  0.425  0.415  0.400  0.000  0.000
 1977 132    35   182      0     31    124     1    30   125  0.463  0.518  0.535  0.441  0.435  0.423  0.412  0.398  0.000  0.000
 1977 133    36   179      0     33    124     1    30   125  0.454  0.509  0.530  0.439  0.433  0.421  0.410  0.397  0.000  0.000
 1977 134    37   181      0     33    129     1    30   125  0.526  0.502  0.525  0.438  0.433  0.421  0.410  0.397  0.000  0.000
 1977 135    38   179      0     33    129     1    30   125  0.488  0.511  0.523  0.436  0.433  0.421  0.410  0.397  0.000  0.000
 1977 136    39   177      0     33    129     1    30   125  0.469  0.507  0.520  0.435  0.433  0.421  0.410  0.397  0.000  0.000
 1977 137    40   177      0     33    130     1    30   125  0.491  0.501  0.517  0.434  0.433  0.421  0.410  0.397  0.000  0.000
 1977 138    41   175      0     33    130     1    30   125  0.470  0.500  0.514  0.432  0.433  0.421  0.410  0.397  0.000  0.000
 1977 139    42   174      0     33    130     1    30   125  0.460  0.495  0.511  0.431  0.432  0.421  0.410  0.397  0.000  0.000
 1977 140    43   172      0     33    130     1    30   125  0.454  0.491  0.509  0.430  0.432  0.421  0.410  0.397  0.000  0.000
 1977 141    44   171      0     33    130     1    30   125  0.450  0.488  0.507  0.429  0.432  0.421  0.410  0.397  0.000  0.000
 1977 142    45   170      0     33    130     1    30   125  0.446  0.485  0.505  0.428  0.431  0.421  0.410  0.397  0.000  0.000
 1977 143    46   169      0     33    130     1    30   125  0.443  0.481  0.503  0.427  0.431  0.421  0.410  0.397  0.000  0.000
 1977 144    47   168      0     33    130     1    30   125  0.440  0.478  0.501  0.426  0.430  0.421  0.410  0.397  0.000  0.000
 1977 145    48   171      0     33    134     1    30   125  0.510  0.476  0.500  0.425  0.430  0.421  0.410  0.397  0.000  0.000
 1977 146    49   200      0     33    165     1    30   125  0.542  0.576  0.567  0.462  0.440  0.422  0.412  0.398  0.000  0.000
 1977 147    50   199      0     33    165     1    30   125  0.517  0.561  0.562  0.460  0.445  0.424  0.413  0.399  0.000  0.000
 1977 148    51   192      0     39    165     1    30   125  0.511  0.542  0.553  0.451  0.440  0.422  0.411  0.397  0.000  0.000
 1977 149    52   199      0     39    174     1    30   125  0.549  0.560  0.563  0.455  0.443  0.423  0.413  0.398  0.000  0.000
 1977 150    53   192      0     44    174     1    30   125  0.508  0.552  0.554  0.448  0.438  0.421  0.411  0.397  0.000  0.000
 1977 151    54   189      0     45    174     1    30   125  0.494  0.535  0.549  0.447  0.439  0.422  0.412  0.398  0.000  0.000
 1977 152    55   186      0     47    174     1    30   125  0.501  0.526  0.542  0.443  0.436  0.421  0.410  0.398  0.000  0.000
 1977 153    56   183      0     47    175     1    30   125  0.474  0.523  0.538  0.441  0.435  0.421  0.411  0.398  0.000  0.000
 1977 154    57   181      0     47    175     1    30   125  0.466  0.516  0.533  0.440  0.434  0.422  0.411  0.398  0.000  0.000
 1977 155    58   180      0     47    175     1    30   125  0.475  0.510  0.530  0.439  0.434  0.422  0.411  0.398  0.000  0.000
 1977 156    59   179      0     47    175     1    30   125  0.477  0.507  0.527  0.438  0.434  0.422  0.411  0.398  0.000  0.000
 1977 157    60   183      0     47    179     1    30   125  0.550  0.508  0.524  0.437  0.433  0.422  0.411  0.398  0.000  0.000
 1977 158    61   182      0     47    179     1    30   125  0.513  0.523  0.524  0.435  0.433  0.422  0.411  0.398  0.000  0.000
 1977 159    62   184      0     47    183     1    30   125  0.544  0.533  0.523  0.434  0.433  0.422  0.411  0.398  0.000  0.000
 1977 160    63   183      0     47    183     1    30   125  0.508  0.533  0.525  0.433  0.433  0.422  0.411  0.398  0.000  0.000
 1977 161    64   180      0     47    183     1    30   125  0.489  0.522  0.523  0.433  0.433  0.422  0.411  0.398  0.000  0.000
 1977 162    65   178      0     47    183     1    30   125  0.478  0.513  0.521  0.432  0.432  0.422  0.411  0.398  0.000  0.000
 1977 163    66   176      0     47    183     1    30   125  0.471  0.506  0.518  0.431  0.432  0.422  0.411  0.398  0.000  0.000
 1977 164    67   175      0     47    183     1    30   125  0.466  0.500  0.514  0.430  0.432  0.422  0.411  0.398  0.000  0.000
 1977 165    68   173      0     47    183     1    30   125  0.462  0.495  0.511  0.428  0.431  0.422  0.411  0.398  0.000  0.000
 1977 166    69   185      0     47    197     1    30   125  0.551  0.561  0.518  0.427  0.431  0.422  0.411  0.398  0.000  0.000
 1977 167    70   184      0     47    199     1    30   125  0.533  0.550  0.527  0.427  0.430  0.422  0.411  0.398  0.000  0.000
 1977 168    71   183      0     47    199     1    30   125  0.528  0.538  0.530  0.427  0.430  0.422  0.411  0.398  0.000  0.000
 1977 169    72   189      0     47    205     1    30   125  0.562  0.559  0.540  0.428  0.429  0.422  0.411  0.398  0.000  0.000
 1977 170    73   187      0     47    205     1    30   125  0.526  0.550  0.539  0.433  0.429  0.422  0.411  0.398  0.000  0.000
 1977 171    74   186      0     47    205     1    30   125  0.533  0.538  0.541  0.433  0.429  0.422  0.411  0.398  0.000  0.000
 1977 172    75   191      0     47    211     1    30   125  0.564  0.564  0.546  0.437  0.429  0.422  0.411  0.398  0.000  0.000
 1977 173    76   198      0     47    219     1    30   125  0.544  0.567  0.566  0.454  0.436  0.422  0.411  0.398  0.000  0.000
 1977 174    77   193      0     51    219     1    30   125  0.528  0.557  0.556  0.447  0.434  0.422  0.410  0.397  0.000  0.000
 1977 175    78   195      0     52    222     1    30   125  0.570  0.552  0.554  0.449  0.437  0.422  0.411  0.397  0.000  0.000
 1977 176    79   211      0     53    242     1    30   125  0.537  0.567  0.567  0.469  0.460  0.439  0.423  0.403  0.000  0.000
 1977 177    80   199      0     63    242     1    30   125  0.513  0.553  0.556  0.456  0.448  0.431  0.417  0.400  0.000  0.000
 1977 178    81   199      0     64    243     1    30   125  0.556  0.537  0.552  0.453  0.447  0.429  0.420  0.403  0.000  0.000
 1977 179    82   196      0     65    244     1    30   125  0.513  0.543  0.546  0.449  0.445  0.428  0.422  0.406  0.000  0.000
 1977 180    83   194      0     66    244     1    30   125  0.528  0.534  0.542  0.445  0.443  0.427  0.421  0.407  0.000  0.000
 1977 181    84   198      0     68    250     1    30   125  0.547  0.562  0.545  0.444  0.441  0.426  0.420  0.407  0.000  0.000
 1977 182    85   192      0     72    250     1    30   125  0.520  0.553  0.544  0.442  0.437  0.423  0.415  0.402  0.000  0.000
 1977 183    86   189      0     73    250     1    30   125  0.502  0.538  0.544  0.441  0.436  0.422  0.415  0.402  0.000  0.000
 1977 184    87   198      0     74    262     1    30   125  0.572  0.562  0.559  0.447  0.438  0.422  0.414  0.402  0.000  0.000
 1977 185    88   199      0     74    264     1    30   125  0.557  0.568  0.560  0.451  0.440  0.423  0.414  0.402  0.000  0.000
 1977 186    89   205      0     75    271     1    30   125  0.557  0.568  0.567  0.467  0.448  0.425  0.416  0.402  0.000  0.000
 1977 187    90   223      1     88    303     1    30   125  0.556  0.567  0.567  0.470  0.460  0.447  0.439  0.432  0.000  0.000
 1977 188    91   223      2    132    349     1    30   125  0.557  0.567  0.567  0.470  0.460  0.447  0.439  0.432  0.000  0.000
 1977 189    92   221      2    140    358     1    30   125  0.531  0.566  0.566  0.469  0.460  0.447  0.439  0.432  0.000  0.000
 1977 190    93   216      2    145    359     1    30   125  0.540  0.551  0.560  0.464  0.459  0.441  0.439  0.432  0.000  0.000
 1977 191    94   204      2    157    359     1    30   125  0.530  0.546  0.552  0.453  0.448  0.432  0.427  0.417  0.000  0.000
 1977 192    95   220      2    160    381     1    30   125  0.537  0.561  0.565  0.469  0.460  0.447  0.439  0.424  0.000  0.000
 1977 193    96   205      2    174    381     1    30   125  0.531  0.550  0.555  0.456  0.448  0.436  0.427  0.413  0.000  0.000
 1977 194    97   223      3    197    423     1    30   125  0.568  0.562  0.567  0.470  0.460  0.447  0.439  0.432  0.000  0.000
 1977 195    98   223      3    211    437     1    30   125  0.554  0.567  0.567  0.470  0.460  0.447  0.439  0.432  0.000  0.000
 1977 196    99   219      3    215    439     1    30   125  0.548  0.565  0.562  0.465  0.459  0.442  0.439  0.432  0.000  0.000
 1977 197   100   214      3    219    440     1    30   125  0.526  0.557  0.556  0.460  0.457  0.438  0.439  0.430  0.000  0.000
 1977 198   101   200      3    230    440     1    30   125  0.509  0.542  0.549  0.451  0.446  0.430  0.427  0.416  0.000  0.000
 1977 199   102   192      3    237    440     1    30   125  0.505  0.531  0.542  0.445  0.440  0.426  0.419  0.408  0.000  0.000
 1977 200   103   186      3    240    440     1    30   125  0.494  0.526  0.537  0.441  0.436  0.423  0.415  0.403  0.000  0.000
 1977 201   104   184      3    242    440     1    30   125  0.506  0.520  0.534  0.439  0.434  0.421  0.412  0.400  0.000  0.000
 1977 202   105   223      3    256    494     1    30   125  0.562  0.567  0.565  0.469  0.460  0.447  0.439  0.432  0.000  0.000
 1977 203   106   221      3    268    507     1    30   125  0.527  0.567  0.566  0.469  0.460  0.447  0.439  0.432  0.000  0.000
 1977 204   107   223      3    288    530     1    30   125  0.569  0.561  0.567  0.470  0.460  0.447  0.439  0.432  0.000  0.000
 1977 205   108   222      3    311    553     1    30   125  0.535  0.567  0.567  0.469  0.460  0.447  0.439  0.432  0.000  0.000
 1977 206   109   205      3    325    553     1    30   125  0.501  0.553  0.556  0.456  0.448  0.436  0.427  0.417  0.000  0.000
 1977 207   110   195      3    334    553     1    30   125  0.510  0.533  0.548  0.449  0.441  0.429  0.419  0.408  0.000  0.000
 1977 208   111   223      3    343    591     1    30   125  0.571  0.563  0.564  0.470  0.460  0.447  0.439  0.432  0.000  0.000
 1977 209   112   217      3    347    591     1    30   125  0.547  0.558  0.559  0.464  0.459  0.441  0.439  0.432  0.000  0.000
 1977 210   113   204      3    360    591     1    30   125  0.524  0.551  0.552  0.453  0.448  0.432  0.427  0.417  0.000  0.000
 1977 211   114   223      5    405    658     1    30   125  0.570  0.560  0.567  0.470  0.460  0.447  0.439  0.432  0.000  0.000
 1977 212   115   221      5    411    665     1    30   125  0.527  0.566  0.566  0.469  0.460  0.447  0.439  0.432  0.000  0.000
 1977 213   116   205      5    425    665     1    30   125  0.517  0.549  0.556  0.456  0.448  0.436  0.427  0.417  0.000  0.000
 1977 214   117   195      5    433    665     1    30   125  0.496  0.536  0.548  0.449  0.441  0.429  0.419  0.408  0.000  0.000
 1977 215   118   188      5    438    665     1    30   125  0.493  0.526  0.541  0.444  0.437  0.425  0.415  0.403  0.000  0.000
 1977 216   119   184      5    440    665     1    30   125  0.485  0.522  0.537  0.441  0.434  0.423  0.412  0.400  0.000  0.000
 1977 217   120   182      5    441    665     1    30   125  0.487  0.517  0.534  0.439  0.433  0.421  0.410  0.398  0.000  0.000
 1977 218   121   206      5    442    690     1    30   125  0.569  0.565  0.565  0.469  0.459  0.426  0.414  0.399  0.000  0.000
 1977 219   122   223      7    467    735     1    30   125  0.552  0.568  0.567  0.470  0.460  0.447  0.439  0.432  0.000  0.000
 1977 220   123   217      7    472    735     1    30   125  0.522  0.559  0.561  0.465  0.459  0.442  0.439  0.432  0.000  0.000
 1977 221   124   202      7    484    735     1    30   125  0.497  0.543  0.553  0.454  0.448  0.432  0.427  0.417  0.000  0.000
 1977 222   125   199      7    487    735     1    30   125  0.515  0.530  0.545  0.450  0.446  0.430  0.427  0.416  0.000  0.000
 1977 223   126   206      7    489    746     1    30   125  0.562  0.567  0.559  0.453  0.446  0.429  0.426  0.415  0.000  0.000
 1977 224   127   208      7    491    752     1    30   125  0.545  0.567  0.567  0.462  0.450  0.428  0.425  0.414  0.000  0.000
 1977 225   128   197      7    500    752     1    30   125  0.494  0.556  0.556  0.452  0.442  0.425  0.418  0.407  0.000  0.000
 1977 226   129   189      7    505    752     1    30   125  0.481  0.533  0.549  0.446  0.437  0.422  0.414  0.402  0.000  0.000
 1977 227   130   184      7    507    752     1    30   125  0.483  0.522  0.541  0.442  0.434  0.421  0.412  0.399  0.000  0.000
 1977 228   131   181      7    508    752     1    30   125  0.457  0.517  0.536  0.440  0.434  0.422  0.410  0.398  0.000  0.000
 1977 229   132   179      7    508    752     1    30   125  0.457  0.510  0.531  0.439  0.434  0.422  0.410  0.397  0.000  0.000
 1977 230   133   178      7    508    752     1    30   125  0.457  0.505  0.528  0.438  0.434  0.422  0.410  0.397  0.000  0.000
 1977 231   134   177      7    508    752     1    30   125  0.457  0.501  0.524  0.436  0.433  0.422  0.410  0.397  0.000  0.000
 1977 232   135   176      7    508    752     1    30   125  0.457  0.498  0.521  0.435  0.433  0.421  0.410  0.397  0.000  0.000
 1977 233   136   175      7    508    752     1    30   125  0.456  0.495  0.519  0.434  0.433  0.421  0.410  0.397  0.000  0.000
 1977 234   137   174      7    508    752     1    30   125  0.456  0.493  0.517  0.433  0.433  0.421  0.410  0.397  0.000  0.000
 1977 235   138   174      7    508    752     1    30   125  0.456  0.492  0.515  0.432  0.432  0.421  0.410  0.397  0.000  0.000
 1977 236   139   173      7    508    752     1    30   125  0.456  0.490  0.513  0.431  0.432  0.421  0.410  0.397  0.000  0.000
 1977 237   140   172      7    508    752     1    30   125  0.455  0.488  0.511  0.430  0.431  0.421  0.410  0.397  0.000  0.000
 1977 238   141   171      7    508    752     1    30   125  0.454  0.486  0.509  0.429  0.431  0.421  0.410  0.397  0.000  0.000
 1977 239   142   171      7    508    752     1    30   125  0.454  0.485  0.507  0.428  0.430  0.421  0.410  0.397  0.000  0.000
 1977 240   143   170      7    508    752     1    30   125  0.453  0.484  0.506  0.427  0.430  0.421  0.410  0.397  0.000  0.000
 1977 241   144   170      7    508    752     1    30   125  0.453  0.482  0.504  0.426  0.429  0.421  0.410  0.397  0.000  0.000
 1977 242   145   169      7    508    753     1    30   125  0.452  0.481  0.503  0.425  0.429  0.421  0.410  0.397  0.000  0.000
 1977 243   146   168      7    508    753     1    30   125  0.451  0.480  0.501  0.425  0.428  0.421  0.410  0.397  0.000  0.000
 1977 244   147   168      7    508    753     1    30   125  0.450  0.478  0.500  0.424  0.428  0.421  0.410  0.397  0.000  0.000
 1977 245   148   167      7    508    753     1    30   125  0.449  0.477  0.498  0.423  0.427  0.421  0.410  0.397  0.000  0.000
 1977 246   149   167      7    508    753     1    30   125  0.449  0.476  0.497  0.422  0.427  0.421  0.410  0.397  0.000  0.000
 1977 247   150   166      7    508    753     1    30   125  0.448  0.475  0.496  0.421  0.426  0.420  0.410  0.397  0.000  0.000
 1977 248   151   166      7    508    753     1    30   125  0.447  0.474  0.495  0.421  0.426  0.420  0.410  0.397  0.000  0.000
 1977 249   152   176      7    508    765     1    30   125  0.545  0.536  0.494  0.420  0.425  0.420  0.410  0.397  0.000  0.000
 1977 250   153   185      7    508    777     1    30   125  0.504  0.563  0.550  0.420  0.425  0.420  0.410  0.397  0.000  0.000
 1977 251   154   185      7    508    781     1    30   125  0.503  0.552  0.549  0.428  0.425  0.420  0.410  0.397  0.000  0.000
 1977 252   155   182      7    508    781     1    30   125  0.475  0.534  0.544  0.435  0.425  0.420  0.410  0.397  0.000  0.000
 1977 253   156   204      7    508    805     1    30   125  0.560  0.563  0.564  0.470  0.456  0.424  0.413  0.398  0.000  0.000
 1977 254   157   204      7    509    807     1    30   125  0.543  0.563  0.561  0.465  0.457  0.427  0.417  0.401  0.000  0.000
 1977 255   158   218      7    511    825     1    30   125  0.522  0.568  0.568  0.470  0.460  0.447  0.439  0.412  0.000  0.000
 1977 256   159   203      7    524    825     1    30   125  0.514  0.548  0.557  0.457  0.449  0.436  0.427  0.405  0.000  0.000
 1977 257   160   222      7    535    856     1    30   125  0.559  0.560  0.567  0.470  0.460  0.447  0.439  0.432  0.000  0.000
 1977 258   161   206      7    549    856     1    30   125  0.525  0.552  0.557  0.457  0.449  0.436  0.427  0.417  0.000  0.000
 1977 259   162   208      7    552    861     1    30   125  0.541  0.560  0.559  0.456  0.449  0.433  0.428  0.417  0.000  0.000
 1977 260   163   203      7    554    861     1    30   125  0.503  0.552  0.555  0.454  0.448  0.431  0.428  0.417  0.000  0.000
 1977 261   164   192      7    561    861     1    30   125  0.466  0.534  0.548  0.448  0.441  0.426  0.420  0.408  0.000  0.000
 1977 262   165   185      7    566    861     1    30   125  0.457  0.521  0.541  0.444  0.437  0.423  0.415  0.403  0.000  0.000
 1977 263   166   182      7    568    861     1    30   125  0.459  0.514  0.536  0.441  0.434  0.421  0.412  0.400  0.000  0.000
 1977 264   167   179      7    569    861     1    30   125  0.461  0.508  0.531  0.440  0.433  0.421  0.411  0.398  0.000  0.000
 1977 265   168   178      7    569    861     1    30   125  0.462  0.505  0.527  0.439  0.433  0.421  0.411  0.398  0.000  0.000
 1977 266   169   189      7    569    876     1    30   125  0.511  0.565  0.542  0.440  0.433  0.421  0.411  0.398  0.000  0.000
 1977 267   170   185      7    570    876     1    30   125  0.478  0.543  0.542  0.439  0.433  0.421  0.411  0.398  0.000  0.000
 1977 268   171   182      7    570    876     1    30   125  0.462  0.526  0.538  0.439  0.433  0.421  0.411  0.398  0.000  0.000
 1977 269   172   180      7    570    876     1    30   125  0.466  0.516  0.534  0.438  0.432  0.421  0.411  0.398  0.000  0.000
 1977 270   173   179      7    570    876     1    30   125  0.466  0.510  0.530  0.437  0.432  0.421  0.411  0.398  0.000  0.000
 1977 271   174   178      7    570    876     1    30   125  0.466  0.506  0.527  0.436  0.432  0.421  0.411  0.398  0.000  0.000
 1977 272   175   192      7    570    894     1    30   125  0.502  0.565  0.557  0.443  0.434  0.422  0.411  0.398  0.000  0.000
 1977 273   176   188      7    570    894     1    30   125  0.466  0.540  0.554  0.446  0.436  0.422  0.411  0.398  0.000  0.000
 1977 274   177   184      7    572    894     1    30   125  0.469  0.523  0.545  0.443  0.434  0.422  0.410  0.397  0.000  0.000
 1977 275   178   182      7    572    895     1    30   125  0.468  0.517  0.540  0.441  0.434  0.421  0.411  0.397  0.000  0.000
 1977 276   179   181      7    572    895     1    30   125  0.469  0.513  0.535  0.440  0.434  0.421  0.411  0.397  0.000  0.000
 1977 277   180   181      7    572    899     1    30   125  0.500  0.511  0.530  0.439  0.434  0.421  0.411  0.397  0.000  0.000
 1977 278   181   180      7    572    899     1    30   125  0.485  0.513  0.528  0.438  0.433  0.421  0.411  0.397  0.000  0.000
 1977 279   182   179      7    572    899     1    30   125  0.480  0.510  0.525  0.436  0.433  0.421  0.411  0.397  0.000  0.000
 1977 280   183   178      7    572    899     1    30   125  0.478  0.506  0.523  0.435  0.433  0.421  0.411  0.397  0.000  0.000
 1977 281   184   183      7    572    906     1    30   125  0.547  0.525  0.521  0.434  0.433  0.421  0.411  0.397  0.000  0.000
 1977 282   185   217      7    574    944     1    30   125  0.522  0.572  0.570  0.469  0.460  0.447  0.436  0.408  0.000  0.000
 1977 283   186   222      7    598    974     1    30   125  0.556  0.559  0.568  0.470  0.460  0.447  0.439  0.432  0.000  0.000
 1977 284   187   221      7    612    990     1    30   125  0.525  0.568  0.567  0.470  0.460  0.447  0.439  0.432  0.000  0.000
 1977 285   188   204      7    626    990     1    30   125  0.474  0.549  0.557  0.457  0.449  0.436  0.427  0.417  0.000  0.000
 1977 286   189   192      7    634    990     1    30   125  0.457  0.528  0.548  0.449  0.441  0.429  0.419  0.408  0.000  0.000
 1977 287   190   186      7    639    990     1    30   125  0.458  0.517  0.540  0.445  0.437  0.425  0.415  0.403  0.000  0.000
 1977 288   191   221      7    650   1039     1    30   125  0.545  0.566  0.563  0.469  0.460  0.447  0.439  0.432  0.000  0.000
 1977 289   192   214      7    655   1042     1    30   125  0.461  0.563  0.560  0.464  0.459  0.441  0.439  0.432  0.000  0.000
 1977 290   193   197      7    667   1042     1    30   125  0.440  0.530  0.551  0.453  0.448  0.432  0.427  0.417  0.000  0.000
 1977 291   194   189      7    674   1042     1    30   125  0.449  0.516  0.542  0.447  0.441  0.427  0.419  0.408  0.000  0.000
 1977 292   195   183      7    678   1042     1    30   125  0.453  0.510  0.536  0.443  0.437  0.424  0.415  0.403  0.000  0.000
 1977 293   196   180      7    680   1042     1    30   125  0.456  0.506  0.531  0.440  0.434  0.422  0.412  0.400  0.000  0.000
 1977 294   197   178      7    681   1042     1    30   125  0.458  0.502  0.527  0.439  0.433  0.422  0.410  0.398  0.000  0.000
 1977 295   198   177      7    681   1042     1    30   125  0.459  0.499  0.523  0.437  0.433  0.421  0.410  0.398  0.000  0.000
 1977 296   199   176      7    681   1042     1    30   125  0.459  0.497  0.520  0.436  0.432  0.421  0.410  0.398  0.000  0.000
 1977 297   200   175      7    681   1042     1    30   125  0.459  0.495  0.518  0.434  0.432  0.421  0.410  0.398  0.000  0.000
 1977 298   201   174      7    681   1042     1    30   125  0.459  0.493  0.516  0.433  0.432  0.421  0.410  0.398  0.000  0.000
 1977 299   202   175      7    681   1043     1    30   125  0.476  0.492  0.514  0.432  0.432  0.421  0.410  0.398  0.000  0.000
 1977 300   203   175      7    681   1044     1    30   125  0.486  0.492  0.512  0.431  0.431  0.421  0.410  0.398  0.000  0.000
 1977 301   204   174      7    681   1044     1    30   125  0.476  0.494  0.511  0.430  0.431  0.421  0.410  0.398  0.000  0.000
 1977 302   205   173      7    681   1044     1    30   125  0.471  0.493  0.510  0.429  0.430  0.421  0.410  0.398  0.000  0.000
 1977 303   206   172      7    681   1044     1    30   125  0.468  0.492  0.508  0.428  0.430  0.421  0.410  0.398  0.000  0.000
 1977 304   207   172      7    681   1045     1    30   125  0.482  0.490  0.507  0.427  0.429  0.421  0.410  0.398  0.000  0.000
 1977 305   208   194      7    681   1069     1    30   125  0.521  0.569  0.567  0.443  0.432  0.421  0.410  0.398  0.000  0.000
 1977 306   209   186      7    684   1069     1    30   125  0.445  0.548  0.556  0.441  0.432  0.420  0.410  0.398  0.000  0.000
 1977 307   210   182      7    685   1069     1    30   125  0.449  0.524  0.546  0.441  0.432  0.420  0.410  0.398  0.000  0.000
 1977 308   211   180      7    685   1069     1    30   125  0.455  0.514  0.539  0.440  0.432  0.420  0.410  0.398  0.000  0.000
 1977 309   212   179      7    685   1069     1    30   125  0.458  0.509  0.533  0.439  0.432  0.420  0.410  0.398  0.000  0.000
 1977 310   213   178      7    685   1069     1    30   125  0.460  0.505  0.529  0.438  0.432  0.420  0.410  0.398  0.000  0.000
 1977 311   214   179      7    685   1074     1    30   125  0.495  0.502  0.526  0.437  0.431  0.420  0.410  0.398  0.000  0.000
 1977 312   215   177      7    685   1074     1    30   125  0.480  0.505  0.523  0.436  0.431  0.420  0.410  0.398  0.000  0.000
 1977 313   216   181      7    685   1081     1    30   125  0.505  0.537  0.521  0.435  0.431  0.420  0.410  0.398  0.000  0.000
 1977 314   217   180      7    685   1081     1    30   125  0.497  0.524  0.522  0.434  0.431  0.420  0.410  0.398  0.000  0.000
 1977 315   218   178      7    685   1081     1    30   125  0.490  0.517  0.522  0.433  0.430  0.419  0.410  0.398  0.000  0.000
 1977 316   219   177      7    685   1081     1    30   125  0.485  0.511  0.520  0.432  0.430  0.419  0.410  0.398  0.000  0.000
 1977 317   220   176      7    685   1081     1    30   125  0.481  0.507  0.519  0.431  0.430  0.419  0.410  0.398  0.000  0.000
 1977 318   221   175      7    685   1081     1    30   125  0.477  0.504  0.517  0.430  0.429  0.419  0.410  0.398  0.000  0.000
 1977 319   222   174      7    685   1081     1    30   125  0.474  0.501  0.515  0.429  0.429  0.419  0.410  0.398  0.000  0.000
 1977 320   223   173      7    685   1081     1    30   125  0.472  0.498  0.513  0.428  0.428  0.419  0.410  0.398  0.000  0.000
 1977 321   224   172      7    685   1081     1    30   125  0.470  0.496  0.511  0.428  0.428  0.418  0.410  0.398  0.000  0.000
 1977 322   225   171      7    685   1081     1    30   125  0.468  0.493  0.509  0.427  0.427  0.418  0.410  0.398  0.000  0.000
 1977 323   226   171      7    685   1081     1    30   125  0.466  0.491  0.508  0.426  0.427  0.418  0.410  0.398  0.000  0.000
 1977 324   227   171      7    685   1084     1    30   125  0.485  0.489  0.506  0.425  0.427  0.418  0.410  0.398  0.000  0.000
 1977 325   228   170      7    685   1085     1    30   125  0.476  0.491  0.505  0.424  0.426  0.418  0.410  0.398  0.000  0.000
 1977 326   229   171      7    685   1092     1    30   125  0.450  0.521  0.504  0.424  0.426  0.418  0.410  0.398  0.000  0.000
 1977 327   230   171      7    685   1092     1    30   125  0.469  0.505  0.504  0.423  0.425  0.418  0.410  0.398  0.000  0.000
 1977 328   231   170      7    685   1092     1    30   125  0.472  0.498  0.504  0.422  0.425  0.417  0.410  0.398  0.000  0.000

*DSSAT Cropping System Model Ver. 4.0.2.000               Aug 01, 2016; 15:44:49

*RUN   4        : UYMZ                    
 MODEL          : MZCER040 - Maize           
 EXPERIMENT     : UYMZ0105 MZ    late to create DSS                             
 TREATMENT  1   : UYMZ                    

@YEAR DOY   DAS  SWXD   ROFC   DRNC   PREC  IR#C  IRRC  DTWT   SW1D   SW2D   SW3D   SW4D   SW5D   SW6D   SW7D   SW8D   SW9D   SW10
 1978 097     0   115      0      0      0     0     0   125  0.331  0.394  0.394  0.335  0.375  0.419  0.408  0.395  0.000  0.000
 1978 098     1   112      0      0      0     0     0   125  0.275  0.392  0.394  0.335  0.376  0.418  0.408  0.395  0.000  0.000
 1978 099     2   110      0      0      0     0     0   125  0.251  0.391  0.394  0.336  0.376  0.418  0.408  0.395  0.000  0.000
 1978 100     3   162      0      0      8     1    46   125  0.539  0.566  0.526  0.336  0.377  0.417  0.408  0.395  0.000  0.000
 1978 101     4   158      0      0      8     1    46   125  0.455  0.551  0.531  0.340  0.377  0.417  0.408  0.395  0.000  0.000
 1978 102     5   155      0      0      8     1    46   125  0.454  0.523  0.529  0.345  0.378  0.416  0.408  0.395  0.000  0.000
 1978 103     6   153      0      0      8     1    46   125  0.451  0.511  0.522  0.349  0.378  0.416  0.408  0.395  0.000  0.000
 1978 104     7   152      0      0      8     1    46   125  0.450  0.503  0.517  0.352  0.378  0.415  0.408  0.395  0.000  0.000
 1978 105     8   151      0      0      8     1    46   125  0.449  0.497  0.511  0.355  0.379  0.415  0.408  0.395  0.000  0.000
 1978 106     9   150      0      0      8     1    46   125  0.448  0.493  0.507  0.358  0.379  0.415  0.408  0.395  0.000  0.000
 1978 107    10   150      0      0      8     1    46   125  0.446  0.488  0.503  0.361  0.380  0.414  0.408  0.395  0.000  0.000
 1978 108    11   155      0      0     16     1    46   125  0.523  0.504  0.499  0.363  0.380  0.414  0.407  0.395  0.000  0.000
 1978 109    12   153      0      0     16     1    46   125  0.481  0.508  0.498  0.365  0.381  0.414  0.407  0.395  0.000  0.000
 1978 110    13   152      0      0     16     1    46   125  0.469  0.501  0.497  0.367  0.381  0.413  0.407  0.395  0.000  0.000
 1978 111    14   151      0      0     16     1    46   125  0.462  0.495  0.495  0.369  0.382  0.413  0.407  0.395  0.000  0.000
 1978 112    15   150      0      0     16     1    46   125  0.456  0.490  0.493  0.371  0.382  0.413  0.407  0.395  0.000  0.000
 1978 113    16   149      0      0     16     1    46   125  0.452  0.485  0.491  0.372  0.383  0.412  0.407  0.395  0.000  0.000
 1978 114    17   149      0      0     16     1    46   125  0.447  0.481  0.489  0.374  0.383  0.412  0.407  0.395  0.000  0.000
 1978 115    18   148      0      0     16     1    46   125  0.443  0.478  0.487  0.375  0.384  0.412  0.407  0.395  0.000  0.000
 1978 116    19   147      0      0     16     1    46   125  0.440  0.475  0.485  0.376  0.384  0.412  0.407  0.395  0.000  0.000
 1978 117    20   147      0      0     16     1    46   125  0.436  0.471  0.483  0.377  0.385  0.411  0.407  0.395  0.000  0.000
 1978 118    21   146      0      0     16     1    46   125  0.433  0.469  0.482  0.378  0.385  0.411  0.407  0.395  0.000  0.000
 1978 119    22   148      0      0     19     1    46   125  0.486  0.466  0.480  0.379  0.385  0.411  0.407  0.395  0.000  0.000
 1978 120    23   148      0      0     20     1    46   125  0.484  0.470  0.479  0.380  0.386  0.411  0.407  0.395  0.000  0.000
 1978 121    24   148      0      0     20     1    46   125  0.466  0.472  0.478  0.380  0.386  0.410  0.406  0.395  0.000  0.000
 1978 122    25   147      0      0     20     1    46   125  0.455  0.471  0.477  0.381  0.387  0.410  0.406  0.395  0.000  0.000
 1978 123    26   146      0      0     20     1    46   125  0.446  0.469  0.476  0.382  0.387  0.410  0.406  0.395  0.000  0.000
 1978 124    27   145      0      0     20     1    46   125  0.440  0.466  0.475  0.382  0.388  0.410  0.406  0.395  0.000  0.000
 1978 125    28   145      0      0     20     1    46   125  0.434  0.464  0.473  0.383  0.388  0.409  0.406  0.395  0.000  0.000
 1978 126    29   144      0      0     20     1    46   125  0.429  0.461  0.472  0.383  0.388  0.409  0.406  0.394  0.000  0.000
 1978 127    30   143      0      0     20     1    46   125  0.425  0.457  0.471  0.384  0.389  0.409  0.406  0.394  0.000  0.000
 1978 128    31   143      0      0     20     1    46   125  0.421  0.454  0.469  0.384  0.389  0.409  0.406  0.394  0.000  0.000
 1978 129    32   142      0      0     20     1    46   125  0.416  0.451  0.467  0.384  0.389  0.409  0.406  0.394  0.000  0.000
 1978 130    33   141      0      0     20     1    46   125  0.412  0.447  0.465  0.384  0.390  0.408  0.406  0.394  0.000  0.000
 1978 131    34   140      0      0     20     1    46   125  0.409  0.445  0.463  0.385  0.390  0.408  0.406  0.394  0.000  0.000
 1978 132    35   140      0      0     21     1    46   125  0.405  0.442  0.462  0.385  0.390  0.408  0.405  0.394  0.000  0.000
 1978 133    36   139      0      0     21     1    46   125  0.413  0.440  0.460  0.385  0.391  0.408  0.405  0.394  0.000  0.000
 1978 134    37   177      0      0     60     1    46   125  0.557  0.567  0.563  0.400  0.391  0.408  0.405  0.394  0.000  0.000
 1978 135    38   209      1      0     94     1    46   125  0.536  0.566  0.564  0.473  0.461  0.436  0.417  0.398  0.000  0.000
 1978 136    39   197      1      9     94     1    46   125  0.502  0.552  0.554  0.459  0.449  0.429  0.414  0.397  0.000  0.000
 1978 137    40   190      1     14     94     1    46   125  0.489  0.532  0.546  0.450  0.442  0.425  0.411  0.397  0.000  0.000
 1978 138    41   185      1     17     94     1    46   125  0.485  0.522  0.539  0.445  0.437  0.423  0.410  0.397  0.000  0.000
 1978 139    42   182      1     18     94     1    46   125  0.478  0.517  0.534  0.442  0.435  0.421  0.410  0.397  0.000  0.000
 1978 140    43   179      1     19     94     1    46   125  0.457  0.511  0.530  0.439  0.433  0.421  0.410  0.397  0.000  0.000
 1978 141    44   177      1     19     94     1    46   125  0.452  0.503  0.525  0.438  0.433  0.421  0.410  0.397  0.000  0.000
 1978 142    45   177      1     19     96     1    46   125  0.483  0.498  0.522  0.437  0.433  0.421  0.410  0.397  0.000  0.000
 1978 143    46   176      1     19     96     1    46   125  0.464  0.497  0.518  0.435  0.433  0.421  0.410  0.397  0.000  0.000
 1978 144    47   175      1     19     97     1    46   125  0.459  0.495  0.516  0.434  0.433  0.421  0.410  0.397  0.000  0.000
 1978 145    48   174      1     19     97     1    46   125  0.456  0.492  0.514  0.433  0.433  0.421  0.410  0.397  0.000  0.000
 1978 146    49   173      1     19     97     1    46   125  0.451  0.489  0.511  0.432  0.432  0.421  0.410  0.397  0.000  0.000
 1978 147    50   171      1     19     97     1    46   125  0.448  0.486  0.509  0.430  0.432  0.421  0.410  0.397  0.000  0.000
 1978 148    51   170      1     19     97     1    46   125  0.445  0.483  0.507  0.429  0.432  0.421  0.410  0.397  0.000  0.000
 1978 149    52   170      1     19     97     1    46   125  0.443  0.481  0.505  0.428  0.431  0.421  0.410  0.397  0.000  0.000
 1978 150    53   170      1     19     98     1    46   125  0.459  0.479  0.503  0.428  0.431  0.421  0.410  0.397  0.000  0.000
 1978 151    54   169      1     19     98     1    46   125  0.452  0.479  0.502  0.427  0.430  0.421  0.410  0.397  0.000  0.000
 1978 152    55   168      1     19     98     1    46   125  0.448  0.478  0.500  0.426  0.430  0.421  0.410  0.397  0.000  0.000
 1978 153    56   168      1     19     98     1    46   125  0.445  0.477  0.499  0.425  0.429  0.421  0.410  0.397  0.000  0.000
 1978 154    57   167      1     19     98     1    46   125  0.442  0.475  0.498  0.424  0.429  0.421  0.410  0.397  0.000  0.000
 1978 155    58   166      1     19     98     1    46   125  0.439  0.473  0.496  0.423  0.428  0.421  0.410  0.397  0.000  0.000
 1978 156    59   166      1     19     98     1    46   125  0.437  0.471  0.495  0.423  0.428  0.421  0.410  0.397  0.000  0.000
 1978 157    60   165      1     19     98     1    46   125  0.436  0.470  0.494  0.422  0.427  0.421  0.410  0.397  0.000  0.000
 1978 158    61   164      1     19     98     1    46   125  0.434  0.469  0.493  0.421  0.427  0.421  0.410  0.397  0.000  0.000
 1978 159    62   164      1     19     99     1    46   125  0.433  0.468  0.492  0.421  0.427  0.421  0.410  0.397  0.000  0.000
 1978 160    63   164      1     19     99     1    46   125  0.432  0.467  0.491  0.420  0.426  0.421  0.410  0.397  0.000  0.000
 1978 161    64   163      1     19     99     1    46   125  0.431  0.466  0.490  0.419  0.426  0.421  0.410  0.397  0.000  0.000
 1978 162    65   163      1     19     99     1    46   125  0.431  0.465  0.490  0.419  0.425  0.421  0.410  0.397  0.000  0.000
 1978 163    66   162      1     19    100     1    46   125  0.430  0.464  0.489  0.418  0.425  0.421  0.410  0.397  0.000  0.000

*DSSAT Cropping System Model Ver. 4.0.2.000               Aug 01, 2016; 15:44:49

*RUN   5        : UYMZ                    
 MODEL          : MZCER040 - Maize           
 EXPERIMENT     : UYMZ0105 MZ    late to create DSS                             
 TREATMENT  1   : UYMZ                    

@YEAR DOY   DAS  SWXD   ROFC   DRNC   PREC  IR#C  IRRC  DTWT   SW1D   SW2D   SW3D   SW4D   SW5D   SW6D   SW7D   SW8D   SW9D   SW10
 1979 097     0   116      0      0      0     0     0   125  0.347  0.394  0.394  0.335  0.375  0.419  0.408  0.395  0.000  0.000
[...]
 1994 168    71   182      0     32    167     1    44   125  0.559  0.560  0.529  0.409  0.418  0.419  0.411  0.397  0.000  0.000
 1994 169    72   204      0     32    192     1    44   125  0.546  0.562  0.566  0.471  0.457  0.424  0.413  0.399  0.000  0.000
 1994 170    73   203      0     33    194     1    44   125  0.543  0.558  0.557  0.464  0.457  0.428  0.417  0.401  0.000  0.000
 1994 171    74   195      0     40    194     1    44   125  0.524  0.550  0.548  0.453  0.446  0.424  0.413  0.399  0.000  0.000
 1994 172    75   200      0     40    201     1    44   125  0.576  0.559  0.554  0.452  0.446  0.425  0.415  0.400  0.000  0.000
 1994 173    76   199      0     41    201     1    44   125  0.557  0.557  0.552  0.450  0.445  0.425  0.417  0.402  0.000  0.000
 1994 174    77   199      0     42    205     1    44   125  0.543  0.566  0.554  0.450  0.444  0.426  0.418  0.403  0.000  0.000
 1994 175    78   193      0     47    205     1    44   125  0.531  0.555  0.547  0.445  0.439  0.423  0.414  0.400  0.000  0.000
 1994 176    79   189      0     50    205     1    44   125  0.522  0.544  0.543  0.441  0.435  0.421  0.411  0.398  0.000  0.000
 1994 177    80   186      0     51    205     1    44   125  0.519  0.535  0.540  0.440  0.433  0.421  0.410  0.398  0.000  0.000
 1994 178    81   184      0     51    205     1    44   125  0.508  0.530  0.536  0.439  0.433  0.421  0.410  0.398  0.000  0.000
 1994 179    82   183      0     51    205     1    44   125  0.494  0.524  0.533  0.438  0.433  0.421  0.410  0.398  0.000  0.000
 1994 180    83   180      0     51    205     1    44   125  0.471  0.519  0.531  0.437  0.432  0.421  0.410  0.398  0.000  0.000
 1994 181    84   180      0     51    206     1    44   125  0.490  0.512  0.529  0.436  0.432  0.421  0.410  0.398  0.000  0.000
 1994 182    85   178      0     51    206     1    44   125  0.464  0.511  0.526  0.435  0.432  0.421  0.410  0.398  0.000  0.000
 1994 183    86   177      0     51    206     1    44   125  0.459  0.505  0.524  0.434  0.432  0.421  0.410  0.398  0.000  0.000
 1994 184    87   176      0     51    206     1    44   125  0.457  0.501  0.522  0.434  0.432  0.421  0.410  0.398  0.000  0.000
 1994 185    88   175      0     51    206     1    44   125  0.455  0.498  0.520  0.433  0.432  0.421  0.410  0.398  0.000  0.000
 1994 186    89   174      0     51    206     1    44   125  0.455  0.495  0.517  0.432  0.431  0.421  0.410  0.398  0.000  0.000
 1994 187    90   185      0     51    217     1    44   125  0.567  0.544  0.517  0.431  0.431  0.421  0.410  0.398  0.000  0.000
 1994 188    91   197      0     51    230     1    44   125  0.553  0.562  0.572  0.446  0.434  0.421  0.411  0.398  0.000  0.000
 1994 189    92   200      0     51    235     1    44   125  0.541  0.568  0.568  0.461  0.442  0.422  0.412  0.398  0.000  0.000
 1994 190    93   201      0     52    237     1    44   125  0.555  0.562  0.563  0.460  0.447  0.424  0.414  0.399  0.000  0.000
 1994 191    94   193      0     58    237     1    44   125  0.513  0.554  0.555  0.451  0.440  0.422  0.411  0.398  0.000  0.000
 1994 192    95   188      0     61    237     1    44   125  0.495  0.537  0.550  0.446  0.437  0.421  0.410  0.398  0.000  0.000
 1994 193    96   185      0     62    237     1    44   125  0.486  0.527  0.543  0.443  0.434  0.421  0.410  0.398  0.000  0.000
 1994 194    97   183      0     63    237     1    44   125  0.475  0.522  0.539  0.441  0.433  0.421  0.410  0.398  0.000  0.000

*DSSAT Cropping System Model Ver. 4.0.2.000               Aug 01, 2016; 15:44:49

*RUN  21        : UYMZ                    
 MODEL          : MZCER040 - Maize           
 EXPERIMENT     : UYMZ0105 MZ    late to create DSS                             
 TREATMENT  1   : UYMZ                    

@YEAR DOY   DAS  SWXD   ROFC   DRNC   PREC  IR#C  IRRC  DTWT   SW1D   SW2D   SW3D   SW4D   SW5D   SW6D   SW7D   SW8D   SW9D   SW10
 1995 097     0   114      0      0      0     0     0   125  0.309  0.394  0.394  0.335  0.375  0.419  0.408  0.395  0.000  0.000
 1995 098     1   119      0      0      8     0     0   125  0.425  0.392  0.394  0.335  0.376  0.418  0.408  0.395  0.000  0.000
 1995 099     2   121      0      0     12     0     0   125  0.464  0.394  0.394  0.336  0.376  0.418  0.408  0.395  0.000  0.000
 1995 100     3   160      0      0     15     1    37   125  0.521  0.572  0.510  0.336  0.377  0.417  0.408  0.395  0.000  0.000
 1995 101     4   164      0      0     22     1    37   125  0.529  0.553  0.547  0.342  0.377  0.417  0.408  0.395  0.000  0.000
 1995 102     5   161      0      0     22     1    37   125  0.467  0.543  0.540  0.352  0.378  0.416  0.408  0.395  0.000  0.000
 1995 103     6   158      0      0     22     1    37   125  0.453  0.524  0.533  0.356  0.378  0.416  0.408  0.395  0.000  0.000
 1995 104     7   156      0      0     22     1    37   125  0.458  0.513  0.526  0.360  0.379  0.415  0.408  0.395  0.000  0.000
 1995 105     8   155      0      0     22     1    37   125  0.459  0.506  0.519  0.364  0.379  0.415  0.408  0.395  0.000  0.000
 1995 106     9   156      0      0     27     1    37   125  0.490  0.504  0.514  0.367  0.380  0.415  0.408  0.395  0.000  0.000
 1995 107    10   155      0      0     27     1    37   125  0.475  0.503  0.510  0.369  0.380  0.414  0.408  0.395  0.000  0.000
 1995 108    11   154      0      0     27     1    37   125  0.468  0.499  0.507  0.372  0.381  0.414  0.407  0.395  0.000  0.000
 1995 109    12   153      0      0     27     1    37   125  0.463  0.495  0.504  0.374  0.381  0.414  0.407  0.395  0.000  0.000
 1995 110    13   152      0      0     27     1    37   125  0.460  0.491  0.501  0.376  0.382  0.413  0.407  0.395  0.000  0.000
 1995 111    14   152      0      0     27     1    37   125  0.456  0.488  0.498  0.377  0.383  0.413  0.407  0.395  0.000  0.000
 1995 112    15   151      0      0     27     1    37   125  0.453  0.485  0.496  0.379  0.383  0.413  0.407  0.395  0.000  0.000
 1995 113    16   150      0      0     27     1    37   125  0.450  0.482  0.493  0.380  0.384  0.412  0.407  0.395  0.000  0.000
 1995 114    17   150      0      0     27     1    37   125  0.447  0.479  0.491  0.381  0.384  0.412  0.407  0.395  0.000  0.000
 1995 115    18   149      0      0     27     1    37   125  0.445  0.476  0.489  0.382  0.385  0.412  0.407  0.395  0.000  0.000
 1995 116    19   149      0      0     27     1    37   125  0.442  0.474  0.487  0.383  0.385  0.412  0.407  0.395  0.000  0.000
 1995 117    20   148      0      0     27     1    37   125  0.440  0.471  0.485  0.384  0.386  0.411  0.407  0.395  0.000  0.000
 1995 118    21   154      0      0     37     1    37   125  0.499  0.505  0.483  0.384  0.386  0.411  0.407  0.395  0.000  0.000
 1995 119    22   153      0      0     37     1    37   125  0.484  0.501  0.484  0.385  0.387  0.411  0.407  0.395  0.000  0.000
 1995 120    23   183      0      0     68     1    37   125  0.554  0.562  0.568  0.433  0.387  0.411  0.407  0.395  0.000  0.000
 1995 121    24   180      0      0     68     1    37   125  0.499  0.556  0.561  0.442  0.393  0.410  0.406  0.395  0.000  0.000
 1995 122    25   177      0      0     68     1    37   125  0.471  0.534  0.553  0.439  0.407  0.410  0.406  0.395  0.000  0.000
 1995 123    26   175      0      0     68     1    37   125  0.456  0.521  0.544  0.438  0.413  0.410  0.406  0.395  0.000  0.000
 1995 124    27   174      0      0     70     1    37   125  0.478  0.513  0.539  0.437  0.414  0.410  0.406  0.395  0.000  0.000
 1995 125    28   173      0      0     70     1    37   125  0.475  0.512  0.534  0.436  0.415  0.410  0.406  0.395  0.000  0.000
 1995 126    29   171      0      0     70     1    37   125  0.465  0.508  0.530  0.435  0.415  0.410  0.406  0.394  0.000  0.000
 1995 127    30   170      0      0     70     1    37   125  0.461  0.504  0.526  0.433  0.416  0.410  0.406  0.394  0.000  0.000
 1995 128    31   169      0      0     70     1    37   125  0.458  0.499  0.522  0.432  0.417  0.410  0.406  0.394  0.000  0.000
 1995 129    32   168      0      0     70     1    37   125  0.456  0.496  0.519  0.431  0.417  0.410  0.406  0.394  0.000  0.000
 1995 130    33   167      0      0     70     1    37   125  0.454  0.493  0.516  0.430  0.417  0.410  0.406  0.394  0.000  0.000
 1995 131    34   166      0      0     70     1    37   125  0.452  0.490  0.513  0.428  0.418  0.410  0.406  0.394  0.000  0.000
 1995 132    35   165      0      0     70     1    37   125  0.451  0.488  0.511  0.427  0.418  0.410  0.406  0.394  0.000  0.000
 1995 133    36   184      0      0     90     1    37   125  0.563  0.566  0.547  0.431  0.418  0.410  0.406  0.394  0.000  0.000
 1995 134    37   191      0      0     99     1    37   125  0.536  0.566  0.566  0.453  0.428  0.410  0.405  0.394  0.000  0.000
 1995 135    38   190      0      0     99     1    37   125  0.526  0.553  0.556  0.447  0.431  0.419  0.407  0.394  0.000  0.000
 1995 136    39   187      0      1     99     1    37   125  0.522  0.540  0.550  0.443  0.431  0.419  0.408  0.395  0.000  0.000
 1995 137    40   192      0      1    106     1    37   125  0.545  0.560  0.551  0.446  0.434  0.420  0.408  0.395  0.000  0.000
 1995 138    41   187      0      3    106     1    37   125  0.501  0.551  0.545  0.443  0.433  0.420  0.408  0.395  0.000  0.000
 1995 139    42   184      0      4    106     1    37   125  0.490  0.532  0.541  0.441  0.433  0.420  0.408  0.395  0.000  0.000
 1995 140    43   182      0      4    106     1    37   125  0.489  0.522  0.536  0.440  0.433  0.420  0.408  0.395  0.000  0.000
 1995 141    44   179      0      4    106     1    37   125  0.466  0.516  0.532  0.439  0.433  0.420  0.408  0.395  0.000  0.000
 1995 142    45   177      0      4    106     1    37   125  0.456  0.508  0.528  0.438  0.433  0.420  0.408  0.395  0.000  0.000
 1995 143    46   176      0      4    106     1    37   125  0.454  0.503  0.524  0.437  0.433  0.420  0.408  0.395  0.000  0.000
 1995 144    47   174      0      4    106     1    37   125  0.451  0.498  0.521  0.436  0.433  0.420  0.408  0.395  0.000  0.000
 1995 145    48   173      0      4    106     1    37   125  0.449  0.494  0.518  0.434  0.433  0.420  0.408  0.395  0.000  0.000
 1995 146    49   172      0      4    106     1    37   125  0.448  0.491  0.515  0.433  0.432  0.420  0.408  0.395  0.000  0.000
 1995 147    50   171      0      4    106     1    37   125  0.446  0.488  0.513  0.432  0.432  0.420  0.408  0.395  0.000  0.000
 1995 148    51   170      0      4    106     1    37   125  0.445  0.485  0.510  0.431  0.432  0.420  0.408  0.395  0.000  0.000
 1995 149    52   170      0      4    106     1    37   125  0.444  0.483  0.509  0.430  0.431  0.420  0.408  0.395  0.000  0.000
 1995 150    53   169      0      4    106     1    37   125  0.443  0.482  0.507  0.429  0.431  0.420  0.408  0.395  0.000  0.000
 1995 151    54   168      0      4    106     1    37   125  0.442  0.479  0.505  0.428  0.431  0.420  0.408  0.395  0.000  0.000
 1995 152    55   171      0      4    110     1    37   125  0.503  0.477  0.502  0.427  0.430  0.420  0.408  0.395  0.000  0.000
 1995 153    56   169      0      4    110     1    37   125  0.479  0.483  0.500  0.426  0.430  0.420  0.408  0.395  0.000  0.000
 1995 154    57   168      0      4    110     1    37   125  0.467  0.483  0.499  0.425  0.429  0.420  0.408  0.395  0.000  0.000
 1995 155    58   167      0      4    110     1    37   125  0.459  0.482  0.498  0.424  0.429  0.420  0.408  0.395  0.000  0.000
 1995 156    59   167      0      4    110     1    37   125  0.454  0.480  0.497  0.423  0.428  0.420  0.408  0.395  0.000  0.000
 1995 157    60   170      0      4    115     1    37   125  0.528  0.482  0.495  0.423  0.428  0.420  0.408  0.395  0.000  0.000
 1995 158    61   169      0      4    115     1    37   125  0.491  0.491  0.495  0.422  0.427  0.420  0.408  0.395  0.000  0.000
 1995 159    62   168      0      4    115     1    37   125  0.476  0.491  0.495  0.421  0.427  0.420  0.408  0.395  0.000  0.000
 1995 160    63   168      0      4    116     1    37   125  0.474  0.489  0.495  0.421  0.427  0.420  0.408  0.395  0.000  0.000
 1995 161    64   167      0      4    116     1    37   125  0.466  0.487  0.495  0.420  0.426  0.420  0.408  0.395  0.000  0.000
 1995 162    65   224      6     22    197     1    37   125  0.569  0.569  0.568  0.469  0.460  0.447  0.439  0.432  0.000  0.000
 1995 163    66   220      6     27    200     1    37   125  0.547  0.568  0.568  0.467  0.460  0.442  0.439  0.432  0.000  0.000
 1995 164    67   205      6     40    200     1    37   125  0.509  0.557  0.557  0.456  0.449  0.433  0.427  0.417  0.000  0.000
 1995 165    68   196      6     49    200     1    37   125  0.517  0.537  0.551  0.449  0.442  0.427  0.419  0.408  0.000  0.000
 1995 166    69   210      6     50    216     1    37   125  0.572  0.563  0.565  0.470  0.457  0.429  0.421  0.409  0.000  0.000
 1995 167    70   216      6     52    226     1    37   125  0.535  0.568  0.568  0.470  0.460  0.443  0.432  0.413  0.000  0.000
 1995 168    71   203      6     64    226     1    37   125  0.508  0.554  0.557  0.457  0.449  0.434  0.423  0.406  0.000  0.000
 1995 169    72   193      6     71    226     1    37   125  0.497  0.536  0.551  0.449  0.442  0.428  0.417  0.402  0.000  0.000
 1995 170    73   189      6     75    226     1    37   125  0.507  0.527  0.544  0.445  0.437  0.424  0.413  0.399  0.000  0.000
 1995 171    74   185      6     77    226     1    37   125  0.485  0.526  0.540  0.442  0.435  0.422  0.411  0.397  0.000  0.000
 1995 172    75   182      6     79    226     1    37   125  0.472  0.520  0.536  0.440  0.433  0.421  0.410  0.397  0.000  0.000
 1995 173    76   180      6     79    226     1    37   125  0.468  0.514  0.533  0.439  0.433  0.421  0.410  0.397  0.000  0.000
 1995 174    77   180      6     79    227     1    37   125  0.486  0.509  0.530  0.438  0.433  0.421  0.410  0.397  0.000  0.000
 1995 175    78   200      6     79    250     1    37   125  0.531  0.567  0.565  0.465  0.444  0.423  0.412  0.398  0.000  0.000
 1995 176    79   193      6     84    250     1    37   125  0.504  0.552  0.556  0.454  0.439  0.421  0.410  0.398  0.000  0.000
 1995 177    80   189      6     87    250     1    37   125  0.506  0.534  0.549  0.448  0.436  0.421  0.410  0.398  0.000  0.000
 1995 178    81   186      6     88    250     1    37   125  0.500  0.528  0.543  0.444  0.434  0.421  0.410  0.398  0.000  0.000
 1995 179    82   184      6     89    250     1    37   125  0.482  0.525  0.539  0.441  0.434  0.421  0.410  0.398  0.000  0.000
 1995 180    83   182      6     89    250     1    37   125  0.483  0.519  0.536  0.439  0.434  0.421  0.410  0.398  0.000  0.000
 1995 181    84   188      6     89    257     1    37   125  0.566  0.542  0.534  0.439  0.434  0.421  0.410  0.398  0.000  0.000
 1995 182    85   223      7     94    298     1    37   125  0.552  0.566  0.570  0.469  0.460  0.447  0.439  0.432  0.000  0.000
 1995 183    86   221      7    121    326     1    37   125  0.521  0.568  0.568  0.470  0.460  0.447  0.439  0.432  0.000  0.000
 1995 184    87   205      7    136    326     1    37   125  0.500  0.549  0.557  0.457  0.449  0.436  0.427  0.417  0.000  0.000
 1995 185    88   196      7    144    326     1    37   125  0.515  0.532  0.549  0.449  0.442  0.429  0.419  0.408  0.000  0.000
 1995 186    89   221      7    154    364     1    37   125  0.533  0.566  0.565  0.470  0.460  0.447  0.439  0.432  0.000  0.000
 1995 187    90   205      7    169    364     1    37   125  0.494  0.552  0.556  0.457  0.449  0.436  0.427  0.417  0.000  0.000
 1995 188    91   194      7    177    364     1    37   125  0.490  0.532  0.549  0.449  0.442  0.429  0.419  0.408  0.000  0.000
 1995 189    92   187      7    181    364     1    37   125  0.472  0.525  0.542  0.445  0.437  0.425  0.415  0.403  0.000  0.000
 1995 190    93   183      7    184    364     1    37   125  0.467  0.518  0.538  0.442  0.435  0.423  0.412  0.400  0.000  0.000
 1995 191    94   181      7    186    364     1    37   125  0.468  0.513  0.534  0.440  0.433  0.421  0.410  0.398  0.000  0.000
 1995 192    95   185      7    186    370     1    37   125  0.566  0.515  0.530  0.439  0.433  0.421  0.410  0.398  0.000  0.000
 1995 193    96   211      7    186    397     1    37   125  0.533  0.579  0.568  0.469  0.460  0.436  0.421  0.402  0.000  0.000
 1995 194    97   223      8    219    443     1    37   125  0.561  0.564  0.568  0.470  0.460  0.447  0.439  0.432  0.000  0.000
 1995 195    98   219      8    223    444     1    37   125  0.552  0.561  0.563  0.465  0.460  0.442  0.439  0.432  0.000  0.000
 1995 196    99   216      8    227    448     1    37   125  0.522  0.568  0.564  0.463  0.458  0.438  0.439  0.430  0.000  0.000
 1995 197   100   215      8    231    452     1    37   125  0.555  0.558  0.562  0.461  0.456  0.436  0.438  0.429  0.000  0.000
 1995 198   101   203      8    242    452     1    37   125  0.536  0.551  0.554  0.452  0.446  0.429  0.426  0.415  0.000  0.000
 1995 199   102   208      8    245    460     1    37   125  0.557  0.565  0.567  0.456  0.448  0.428  0.425  0.414  0.000  0.000
 1995 200   103   197      8    253    460     1    37   125  0.506  0.556  0.557  0.449  0.441  0.425  0.418  0.407  0.000  0.000
 1995 201   104   190      8    258    460     1    37   125  0.491  0.536  0.551  0.445  0.437  0.422  0.414  0.402  0.000  0.000
 1995 202   105   186      8    261    460     1    37   125  0.492  0.526  0.544  0.442  0.435  0.421  0.412  0.399  0.000  0.000
 1995 203   106   182      8    262    460     1    37   125  0.466  0.522  0.540  0.440  0.433  0.421  0.410  0.398  0.000  0.000
 1995 204   107   181      8    262    460     1    37   125  0.462  0.515  0.536  0.440  0.433  0.421  0.410  0.398  0.000  0.000
 1995 205   108   180      8    262    460     1    37   125  0.463  0.510  0.532  0.439  0.433  0.421  0.410  0.398  0.000  0.000
 1995 206   109   200      8    262    482     1    37   125  0.568  0.565  0.565  0.460  0.441  0.422  0.412  0.398  0.000  0.000
 1995 207   110   223     11    291    537     1    37   125  0.550  0.568  0.568  0.470  0.460  0.447  0.439  0.432  0.000  0.000
 1995 208   111   223     11    301    548     1    37   125  0.551  0.568  0.568  0.470  0.460  0.447  0.439  0.432  0.000  0.000
 1995 209   112   205     11    316    548     1    37   125  0.489  0.557  0.557  0.457  0.449  0.436  0.427  0.417  0.000  0.000
 1995 210   113   194     11    325    548     1    37   125  0.483  0.533  0.551  0.449  0.442  0.429  0.419  0.408  0.000  0.000
 1995 211   114   189     11    329    548     1    37   125  0.496  0.524  0.543  0.445  0.437  0.425  0.415  0.403  0.000  0.000
 1995 212   115   187     11    330    549     1    37   125  0.489  0.522  0.539  0.442  0.436  0.424  0.415  0.403  0.000  0.000
 1995 213   116   182     11    332    549     1    37   125  0.468  0.519  0.535  0.440  0.434  0.422  0.412  0.400  0.000  0.000
 1995 214   117   180     11    333    549     1    37   125  0.466  0.513  0.532  0.439  0.433  0.422  0.411  0.398  0.000  0.000
 1995 215   118   179     11    333    549     1    37   125  0.466  0.508  0.529  0.438  0.433  0.422  0.411  0.398  0.000  0.000
 1995 216   119   178     11    333    549     1    37   125  0.466  0.505  0.526  0.437  0.433  0.422  0.411  0.398  0.000  0.000
 1995 217   120   178     11    333    549     1    37   125  0.466  0.502  0.524  0.436  0.433  0.422  0.411  0.398  0.000  0.000
 1995 218   121   177     11    333    549     1    37   125  0.466  0.500  0.522  0.435  0.433  0.422  0.411  0.398  0.000  0.000
