*SOIL-PLANT-ATMOSPHERE MODULE OUTPUT FILE

*DSSAT Cropping System Model Ver. 4.0.2.000               Aug 03, 2016; 13:27:13

*RUN   1        : UYMZ                    
 MODEL          : MZCER040 - Maize           
 EXPERIMENT     : UYMZ0115 MZ    late to create DSS                             
 TREATMENT  1   : UYMZ                    

@YEAR DOY   DAS   SRAA   TMXA   TMNA   EOAA   ETAA   EPAA   ESAA   EFAD   ETAC   EPAC   ESAC   EFAC
 1990 191     0   7.60  13.90   6.30  1.495  1.495  0.000  1.495  0.000    1.5    0.0    1.5    0.0
 1990 192     1  13.70  18.20   5.20  2.840  1.647  0.000  1.647  0.000    3.1    0.0    3.1    0.0
 1990 193     2  13.80  17.60   3.90  2.800  1.192  0.000  1.192  0.000    4.3    0.0    4.3    0.0
 1990 194     3  13.40  19.70   6.00  2.858  2.858  0.000  2.858  0.000    7.2    0.0    7.2    0.0
 1990 195     4   9.40  19.20   7.80  2.024  2.024  0.000  2.024  0.000    9.2    0.0    9.2    0.0
 1990 196     5   6.90  20.00  10.10  1.534  1.367  0.000  1.367  0.000   10.6    0.0   10.6    0.0
 1990 197     6   5.50  15.70  10.10  1.152  1.152  0.000  1.152  0.000   11.7    0.0   11.7    0.0
 1990 198     7   8.40  16.00   9.40  1.756  1.756  0.000  1.756  0.000   13.5    0.0   13.5    0.0
 1990 199     8  12.00  11.20   1.60  2.153  2.153  0.000  2.153  0.000   15.6    0.0   15.6    0.0
 1990 200     9  12.30   8.90  -2.00  2.036  2.036  0.000  2.036  0.000   17.7    0.0   17.7    0.0
 1990 201    10  11.70   8.10  -1.20  1.927  1.881  0.000  1.881  0.000   19.6    0.0   19.6    0.0
 1990 202    11   9.40   8.60  -1.00  1.566  1.566  0.000  1.566  0.000   21.1    0.0   21.1    0.0
 1990 203    12  12.50   8.80  -5.60  1.976  1.976  0.000  1.976  0.000   23.1    0.0   23.1    0.0
 1990 204    13  12.50  13.90  -0.70  2.286  1.417  0.000  1.417  0.000   24.5    0.0   24.5    0.0
 1990 205    14  14.00  14.70   2.10  2.671  1.098  0.000  1.098  0.000   25.6    0.0   25.6    0.0
 1990 206    15  14.70   6.50  -1.00  2.358  0.929  0.000  0.929  0.000   26.5    0.0   26.5    0.0
 1990 207    16  11.00  12.00   4.00  2.052  0.820  0.000  0.820  0.000   27.4    0.0   27.4    0.0
 1990 208    17  13.50  16.00   1.70  2.617  0.743  0.000  0.743  0.000   28.1    0.0   28.1    0.0
 1990 209    18  14.90  10.20   1.10  2.615  0.683  0.000  0.683  0.000   28.8    0.0   28.8    0.0
 1990 210    19  14.20  12.70  -1.10  2.535  0.637  0.000  0.637  0.000   29.4    0.0   29.4    0.0
 1990 211    20  12.80  12.80  -1.00  2.292  0.598  0.000  0.598  0.000   30.0    0.0   30.0    0.0
 1990 212    21  13.00  14.90  -1.90  2.385  0.566  0.000  0.566  0.000   30.6    0.0   30.6    0.0
 1990 213    22  13.00  17.50   3.80  2.632  0.539  0.000  0.539  0.000   31.1    0.0   31.1    0.0
 1990 214    23  14.40  19.90   3.70  3.014  0.515  0.000  0.515  0.000   31.6    0.0   31.6    0.0
 1990 215    24  14.80  21.50   5.00  3.206  0.494  0.000  0.494  0.000   32.1    0.0   32.1    0.0
 1990 216    25  14.80  21.90   5.70  3.244  0.475  0.000  0.475  0.000   32.6    0.0   32.6    0.0
 1990 217    26  14.50  25.90  10.20  3.479  0.459  0.000  0.459  0.000   33.1    0.0   33.1    0.0
 1990 218    27  15.60  23.40  13.90  3.741  0.444  0.000  0.444  0.000   33.5    0.0   33.5    0.0
 1990 219    28  15.20  25.90  14.40  3.772  0.438  0.008  0.430  0.000   34.0    0.0   34.0    0.0
 1990 220    29  12.90  25.00  12.80  3.125  0.430  0.013  0.418  0.000   34.4    0.0   34.4    0.0
 1990 221    30  14.70  20.50  10.30  3.292  1.620  0.020  1.600  0.000   36.0    0.0   36.0    0.0
 1990 222    31  15.10  22.30   8.90  3.419  0.443  0.026  0.417  0.000   36.5    0.1   36.4    0.0
 1990 223    32  15.40  28.00  11.90  3.837  0.442  0.036  0.406  0.000   36.9    0.1   36.8    0.0
 1990 224    33  15.30  28.40  12.10  3.835  0.442  0.047  0.395  0.000   37.3    0.1   37.2    0.0
 1990 225    34  14.50  28.00  12.80  3.632  0.465  0.079  0.386  0.000   37.8    0.2   37.6    0.0
 1990 226    35   5.20  25.80  14.90  1.288  0.419  0.042  0.377  0.000   38.2    0.3   37.9    0.0
 1990 227    36   7.50  15.80  10.50  1.569  1.569  0.069  1.500  0.000   39.8    0.3   39.4    0.0
 1990 228    37  14.80  18.90   8.50  3.171  3.171  0.155  3.016  0.000   43.0    0.5   42.5    0.0
 1990 229    38  16.80  21.40   7.70  3.693  2.891  0.204  2.687  0.000   45.9    0.7   45.2    0.0
 1990 230    39  16.20  20.80   6.00  3.475  2.717  0.219  2.498  0.000   48.6    0.9   47.6    0.0
 1990 231    40  12.80  20.80  10.40  2.853  1.592  0.200  1.393  0.000   50.2    1.1   49.0    0.0
 1990 232    41  17.30  21.00  10.30  3.857  1.392  0.306  1.087  0.000   51.6    1.4   50.1    0.0
 1990 233    42  14.80  20.90   6.70  3.187  1.207  0.285  0.922  0.000   52.8    1.7   51.1    0.0
 1990 234    43  13.00  18.40   8.30  2.741  1.083  0.267  0.816  0.000   53.8    2.0   51.9    0.0
 1990 235    44  17.00  15.60   4.40  3.313  1.087  0.348  0.739  0.000   54.9    2.3   52.6    0.0
 1990 236    45  11.20  18.10   3.70  2.249  0.919  0.239  0.681  0.000   55.8    2.6   53.3    0.0
 1990 237    46  13.00  24.60   9.60  3.006  0.951  0.317  0.634  0.000   56.8    2.9   53.9    0.0
 1990 238    47  16.40  25.50  11.70  3.894  1.063  0.466  0.596  0.000   57.9    3.3   54.5    0.0
 1990 239    48   6.80  17.60   5.50  1.373  1.373  0.189  1.183  0.000   59.2    3.5   55.7    0.0
 1990 240    49  18.80   9.70   2.00  3.234  3.234  0.464  2.770  0.000   62.5    4.0   58.5    0.0
 1990 241    50  17.80  14.60  -1.20  3.215  3.215  0.393  2.823  0.000   65.7    4.4   61.3    0.0
 1990 242    51  16.80  21.80   2.90  3.552  2.382  0.220  2.162  0.000   68.1    4.6   63.5    0.0
 1990 243    52   5.50  11.80   5.50  1.029  1.029  0.067  0.962  0.000   69.1    4.7   64.4    0.0
 1990 244    53  10.70  10.20   0.80  1.853  1.274  0.122  1.152  0.000   70.4    4.8   65.6    0.0
 1990 245    54  17.70  11.60  -2.30  3.039  2.885  0.148  2.737  0.000   73.3    4.9   68.3    0.0
 1990 246    55  19.80  16.80   2.50  3.907  1.480  0.061  1.419  0.000   74.7    5.0   69.7    0.0
 1990 247    56   5.60  16.40   7.10  1.149  1.120  0.022  1.099  0.000   75.9    5.0   70.8    0.0
 1990 248    57   6.00  18.60  13.40  1.342  0.965  0.036  0.930  0.000   76.8    5.1   71.8    0.0
 1990 249    58   5.70  15.40  13.40  1.219  1.219  0.051  1.167  0.000   78.0    5.1   72.9    0.0
 1990 250    59   5.80  15.90  12.80  1.241  1.079  0.057  1.022  0.000   79.1    5.2   73.9    0.0
 1990 251    60   5.80  14.30  10.30  1.185  1.185  0.059  1.126  0.000   80.3    5.2   75.1    0.0
 1990 252    61  19.70  23.50   7.80  4.458  4.458  0.237  4.221  0.000   84.8    5.5   79.3    0.0
 1990 253    62  15.20  27.50  11.60  3.718  2.605  0.282  2.323  0.000   87.4    5.8   81.6    0.0
 1990 254    63   9.60  23.10  10.70  2.200  2.200  0.219  1.981  0.000   89.6    6.0   83.6    0.0
 1990 255    64  17.10  13.80   5.20  3.263  3.263  0.385  2.878  0.000   92.8    6.4   86.5    0.0
 1990 256    65  18.80  11.80   2.70  3.378  2.668  0.462  2.206  0.000   95.5    6.8   88.7    0.0
 1990 257    66  20.40  14.20   0.50  3.721  3.098  0.504  2.593  0.000   98.6    7.3   91.3    0.0
 1990 258    67  21.40  18.40   3.40  4.299  1.887  0.482  1.405  0.000  100.5    7.8   92.7    0.0
 1990 259    68  17.80  21.60   7.90  3.895  1.543  0.451  1.092  0.000  102.0    8.3   93.8    0.0
 1990 260    69  10.60  17.70  10.60  2.247  1.235  0.310  0.926  0.000  103.3    8.6   94.7    0.0
 1990 261    70   9.30  17.90  11.00  1.979  1.979  0.309  1.670  0.000  105.2    8.9   96.4    0.0
 1990 262    71  13.80  17.70  10.00  2.892  2.892  0.516  2.376  0.000  108.1    9.4   98.7    0.0
 1990 263    72   6.40  17.90  13.30  1.381  1.381  0.275  1.106  0.000  109.5    9.7   99.8    0.0
 1990 264    73   6.40  20.50  15.80  1.456  1.339  0.316  1.023  0.000  110.9   10.0  100.9    0.0
 1990 265    74  20.10  18.60   9.20  4.197  4.197  0.989  3.208  0.000  115.0   11.0  104.1    0.0
 1990 266    75  18.60  13.50   5.40  3.468  2.368  0.883  1.485  0.000  117.4   11.9  105.6    0.0
 1990 267    76  22.30  15.00   3.20  4.157  2.211  1.083  1.128  0.000  119.6   12.9  106.7    0.0
 1990 268    77  23.20  16.30   3.10  4.412  2.053  1.106  0.947  0.000  121.7   14.0  107.6    0.0
 1990 269    78  23.40  20.50   5.10  4.826  2.001  1.169  0.832  0.000  123.7   15.2  108.5    0.0
 1990 270    79  21.30  24.00   8.90  4.745  1.999  1.247  0.752  0.000  125.7   16.5  109.2    0.0
 1990 271    80   6.80  21.70  12.20  1.505  1.138  0.447  0.690  0.000  126.8   16.9  109.9    0.0
 1990 272    81  19.30  22.00  11.30  4.237  2.022  1.380  0.642  0.000  128.8   18.3  110.6    0.0
 1990 273    82  19.30  25.20   8.90  4.304  2.134  1.531  0.603  0.000  131.0   19.8  111.2    0.0
 1990 274    83  21.70  28.10  12.90  5.154  2.563  1.993  0.570  0.000  133.5   21.8  111.7    0.0
 1990 275    84  24.20  24.00  11.90  5.386  2.891  2.349  0.542  0.000  136.4   24.2  112.3    0.0
 1990 276    85  21.80  26.60  13.30  5.037  2.898  2.380  0.518  0.000  139.3   26.5  112.8    0.0
 1990 277    86  17.90  30.10  17.50  4.420  2.764  2.268  0.496  0.000  142.1   28.8  113.3    0.0
 1990 278    87   7.10  19.10  17.30  1.525  1.335  0.857  0.478  0.000  143.4   29.7  113.8    0.0
 1990 279    88   9.40  22.70  17.20  2.102  2.102  1.234  0.868  0.000  145.5   30.9  114.6    0.0
 1990 280    89   7.20  21.60  17.70  1.588  1.588  0.981  0.607  0.000  147.1   31.9  115.2    0.0
 1990 281    90  11.50  20.40  13.70  2.408  2.408  1.540  0.868  0.000  149.5   33.4  116.1    0.0
 1990 282    91  23.40  22.30   9.50  4.829  4.829  3.182  1.646  0.000  154.4   36.6  117.7    0.0
 1990 283    92  21.00  22.30  11.30  4.390  4.390  2.968  1.422  0.000  158.7   39.6  119.2    0.0
 1990 284    93   9.00  22.10  14.50  1.923  1.923  1.335  0.588  0.000  160.7   40.9  119.8    0.0
 1990 285    94  25.50  19.40  11.30  5.104  5.104  3.645  1.459  0.000  165.8   44.5  121.2    0.0
 1990 286    95  26.10  21.60   7.60  5.196  5.196  3.776  1.419  0.000  171.0   48.3  122.6    0.0
 1990 287    96  24.80  22.60  11.50  5.165  5.165  3.812  1.354  0.000  176.1   52.1  124.0    0.0
 1990 288    97  25.50  20.10   8.90  5.014  5.014  3.775  1.239  0.000  181.1   55.9  125.2    0.0
 1990 289    98  26.40  20.50   5.00  5.030  4.764  3.837  0.928  0.000  185.9   59.7  126.2    0.0
 1990 290    99  15.20  21.40   8.90  3.034  3.034  2.330  0.704  0.000  188.9   62.1  126.9    0.0
 1990 291   100  24.50  24.40  14.30  5.310  5.310  4.131  1.178  0.000  194.2   66.2  128.0    0.0
 1990 292   101  17.30  24.00  15.30  3.753  3.753  2.979  0.774  0.000  198.0   69.2  128.8    0.0
 1990 293   102  16.40  23.70  15.70  3.548  3.548  2.870  0.678  0.000  201.6   72.1  129.5    0.0
 1990 294   103  22.20  24.00  14.20  4.753  4.753  3.911  0.842  0.000  206.3   76.0  130.3    0.0
 1990 295   104  27.10  24.80  13.10  5.797  5.797  4.841  0.956  0.000  212.1   80.8  131.3    0.0
 1990 296   105  21.10  25.60  13.10  4.550  4.550  3.851  0.699  0.000  216.7   84.7  132.0    0.0
 1990 297   106  20.80  22.20  13.80  4.320  4.320  3.702  0.617  0.000  221.0   88.4  132.6    0.0
 1990 298   107  14.30  24.70  11.80  3.009  3.009  2.606  0.404  0.000  224.0   91.0  133.0    0.0
 1990 299   108  25.10  27.10  16.30  5.628  5.628  4.920  0.709  0.000  229.6   95.9  133.7    0.0
 1990 300   109  19.60  28.30  17.00  4.469  4.469  3.986  0.483  0.000  234.1   99.9  134.2    0.0
 1990 301   110   8.80  23.80  18.50  1.924  1.924  1.734  0.190  0.000  236.0  101.6  134.4    0.0
 1990 302   111  12.20  27.40  20.40  2.820  2.820  2.550  0.270  0.000  238.8  104.2  134.7    0.0
 1990 303   112  26.40  28.80  17.90  6.082  6.082  5.518  0.564  0.000  244.9  109.7  135.2    0.0
 1990 304   113  26.50  23.20  15.80  5.621  5.621  5.129  0.492  0.000  250.5  114.8  135.7    0.0
 1990 305   114  23.10  24.10  16.70  4.987  4.987  4.565  0.422  0.000  255.5  119.4  136.1    0.0
 1990 306   115  20.10  27.00  14.30  4.406  4.406  4.043  0.363  0.000  259.9  123.4  136.5    0.0
 1990 307   116  11.80  28.10  20.80  2.751  2.751  2.530  0.221  0.000  262.7  125.9  136.7    0.0
 1990 308   117  21.00  22.20  10.80  4.214  4.214  3.880  0.334  0.000  266.9  129.8  137.1    0.0
 1990 309   118  28.80  19.00   6.40  5.324  5.324  4.903  0.421  0.000  272.2  134.7  137.5    0.0
 1990 310   119  17.40  21.20   9.80  3.417  3.417  3.144  0.273  0.000  275.6  137.9  137.8    0.0
 1990 311   120  23.40  23.50  13.50  4.884  4.884  4.493  0.391  0.000  280.5  142.4  138.1    0.0
 1990 312   121   8.40  18.40  11.30  1.611  1.611  1.482  0.128  0.000  282.1  143.8  138.3    0.0
 1990 313   122  16.20  22.30  15.10  3.375  3.375  3.105  0.270  0.000  285.5  147.0  138.5    0.0
 1990 314   123  21.20  24.80  13.70  4.503  4.503  4.145  0.358  0.000  290.0  151.1  138.9    0.0
 1990 315   124  23.60  27.00  15.30  5.211  5.211  4.799  0.412  0.000  295.2  155.9  139.3    0.0
 1990 316   125  12.20  24.60  14.20  2.595  2.595  2.392  0.203  0.000  297.8  158.3  139.5    0.0
 1990 317   126  26.70  34.90  18.50  6.586  6.586  6.074  0.512  0.000  304.4  164.4  140.0    0.0
 1990 318   127  15.90  33.00  20.80  3.906  3.906  3.610  0.296  0.000  308.3  168.0  140.3    0.0
 1990 319   128   8.60  23.20  17.30  1.844  1.844  1.701  0.143  0.000  310.1  169.7  140.5    0.0
 1990 320   129  17.60  22.10  12.20  3.570  3.570  3.288  0.282  0.000  313.7  173.0  140.7    0.0
 1990 321   130  28.70  26.10   9.30  5.975  5.975  5.497  0.478  0.000  319.7  178.5  141.2    0.0
 1990 322   131  27.80  29.70  16.50  6.391  6.391  5.874  0.517  0.000  326.1  184.3  141.7    0.0
 1990 323   132  27.10  33.40  21.80  6.737  6.737  6.186  0.551  0.000  332.8  190.5  142.3    0.0
 1990 324   133  12.20  28.00  21.10  2.849  2.849  2.613  0.235  0.000  335.7  193.1  142.5    0.0
 1990 325   134  30.70  28.70  18.80  7.103  7.103  6.511  0.592  0.000  342.8  199.6  143.1    0.0
 1990 326   135  28.10  28.00  15.30  6.282  6.282  5.754  0.528  0.000  349.0  205.4  143.6    0.0
 1990 327   136  29.80  28.20  14.20  6.621  6.621  6.061  0.560  0.000  355.7  211.5  144.2    0.0
 1990 328   137  25.60  28.70  16.80  5.836  5.836  5.339  0.497  0.000  361.5  216.8  144.7    0.0
 1990 329   138  20.10  29.20  18.20  4.657  4.657  4.258  0.399  0.000  366.2  221.1  145.1    0.0
 1990 330   139  22.90  24.90  15.80  4.957  4.957  4.532  0.425  0.000  371.1  225.6  145.5    0.0
 1990 331   140  30.40  21.20  10.00  5.986  5.986  5.472  0.513  0.000  377.1  231.1  146.0    0.0
 1990 332   141  30.90  24.60   9.00  6.302  6.302  5.762  0.540  0.000  383.4  236.8  146.6    0.0
 1990 333   142  31.00  27.10  12.20  6.694  6.694  6.120  0.574  0.000  390.1  242.9  147.2    0.0
 1990 334   143  14.90  26.80  14.90  3.275  3.275  2.994  0.281  0.000  393.4  245.9  147.4    0.0
 1990 335   144  23.40  26.40  14.70  5.111  5.111  4.673  0.438  0.000  398.5  250.6  147.9    0.0
 1990 336   145   9.00  23.50  14.10  1.889  1.889  1.727  0.162  0.000  400.4  252.3  148.0    0.0
 1990 337   146  30.10  22.90  11.40  6.132  6.132  5.605  0.527  0.000  406.5  257.9  148.6    0.0
 1990 338   147  28.70  27.90  10.60  6.178  6.178  5.645  0.533  0.000  412.7  263.6  149.1    0.0
 1990 339   148  16.80  32.30  20.30  4.088  4.088  3.734  0.354  0.000  416.8  267.3  149.5    0.0
 1990 340   149  16.80  25.60  17.50  3.717  3.717  3.393  0.324  0.000  420.5  270.7  149.8    0.0
 1990 341   150  26.90  25.20  16.00  5.854  5.854  5.340  0.514  0.000  426.3  276.1  150.3    0.0
 1990 342   151  30.30  25.00  12.00  6.371  6.371  5.805  0.566  0.000  432.7  281.9  150.9    0.0
 1990 343   152   9.00  19.70  14.20  1.803  1.803  1.641  0.162  0.000  434.5  283.5  151.0    0.0
 1990 344   153   9.10  19.50  15.90  1.846  1.846  1.677  0.169  0.000  436.4  285.2  151.2    0.0
 1990 345   154  24.70  25.00  14.70  5.311  5.311  4.818  0.493  0.000  441.7  290.0  151.7    0.0
 1990 346   155  14.70  22.00  10.50  2.941  2.941  2.663  0.278  0.000  444.6  292.7  152.0    0.0
 1990 347   156  19.00  24.00  14.30  4.025  4.025  3.637  0.388  0.000  448.6  296.3  152.3    0.0
 1990 348   157  29.20  21.90  10.30  5.827  5.827  5.253  0.574  0.000  454.5  301.5  152.9    0.0
 1990 349   158  31.80  27.30  10.90  6.826  6.826  6.138  0.688  0.000  461.3  307.7  153.6    0.0
 1990 350   159  28.70  30.20  13.70  6.517  6.517  5.844  0.673  0.000  467.8  313.5  154.3    0.0
 1990 351   160  14.40  30.10  18.00  3.374  3.374  3.017  0.357  0.000  471.2  316.5  154.6    0.0
 1990 352   161  27.40  25.60  17.30  6.070  6.070  5.411  0.659  0.000  477.3  322.0  155.3    0.0
 1990 353   162  31.40  25.60  14.40  6.802  6.802  6.041  0.761  0.000  484.1  328.0  156.1    0.0
 1990 354   163  31.60  27.10  14.00  6.950  6.950  6.147  0.803  0.000  491.0  334.1  156.9    0.0
 1990 355   164  25.60  29.80  15.90  5.897  5.897  5.192  0.705  0.000  496.9  339.3  157.6    0.0
 1990 356   165  10.00  25.70  19.00  2.252  2.252  1.973  0.279  0.000  499.2  341.3  157.8    0.0
 1990 357   166  19.50  28.40  17.80  4.491  4.491  3.914  0.577  0.000  503.6  345.2  158.4    0.0
 1990 358   167  13.10  24.40  15.50  2.831  2.831  2.452  0.379  0.000  506.5  347.7  158.8    0.0
 1990 359   168  29.40  25.70  12.70  6.314  6.314  5.434  0.880  0.000  512.8  353.1  159.7    0.0
 1990 360   169  31.40  31.30  15.30  7.349  7.349  6.281  1.069  0.000  520.1  359.4  160.7    0.0
 1990 361   170  31.40  31.50  18.00  7.520  7.520  6.378  1.142  0.000  527.7  365.8  161.9    0.0
 1990 362   171  31.40  21.00  13.30  6.410  6.410  5.391  1.019  0.000  534.1  371.2  162.9    0.0
 1990 363   172  29.60  23.30   9.40  6.026  6.026  5.021  1.005  0.000  540.1  376.2  163.9    0.0
 1990 364   173  30.80  27.20  11.40  6.699  6.433  5.528  0.905  0.000  546.5  381.7  164.8    0.0
 1990 365   174  31.50  29.40  14.80  7.228  7.228  5.905  1.323  0.000  553.8  387.6  166.1    0.0
 1991 001   175  24.30  31.60  17.10  5.821  5.821  4.705  1.116  0.000  559.6  392.3  167.3    0.0
 1991 002   176  24.10  29.20  20.30  5.764  5.764  4.606  1.158  0.000  565.3  396.9  168.4    0.0
 1991 003   177  26.70  29.10  17.40  6.252  6.251  4.935  1.316  0.000  571.6  401.9  169.7    0.0
 1991 004   178  31.30  28.60  13.40  7.079  6.563  5.513  1.049  0.000  578.2  407.4  170.8    0.0
 1991 005   179  31.30  28.20  13.80  7.080  6.334  5.435  0.899  0.000  584.5  412.8  171.7    0.0
 1991 006   180  31.30  30.20  13.00  7.213  6.252  5.452  0.800  0.000  590.7  418.3  172.5    0.0
 1991 007   181  29.60  32.40  17.10  7.221  6.096  5.369  0.727  0.000  596.8  423.6  173.2    0.0
 1991 008   182  29.90  34.30  19.30  7.575  7.575  5.535  2.040  0.000  604.4  429.2  175.2    0.0
 1991 009   183   9.90  24.30  21.30  2.280  2.280  1.666  0.614  0.000  606.7  430.8  175.9    0.0
 1991 010   184  27.90  30.80  19.20  6.804  6.804  4.972  1.832  0.000  613.5  435.8  177.7    0.0

*DSSAT Cropping System Model Ver. 4.0.2.000               Aug 03, 2016; 13:27:13

*RUN   2        : UYMZ                    
 MODEL          : MZCER040 - Maize           
 EXPERIMENT     : UYMZ0115 MZ    late to create DSS                             
 TREATMENT  1   : UYMZ                    

@YEAR DOY   DAS   SRAA   TMXA   TMNA   EOAA   ETAA   EPAA   ESAA   EFAD   ETAC   EPAC   ESAC   EFAC
 1991 191     0   7.30  12.70   5.20  1.394  1.394  0.000  1.394  0.000    1.4    0.0    1.4    0.0
 1991 192     1   7.30   9.90   2.10  1.289  1.289  0.000  1.289  0.000    2.7    0.0    2.7    0.0
 1991 193     2   6.40   8.10   1.00  1.082  1.082  0.000  1.082  0.000    3.8    0.0    3.8    0.0
 1991 194     3  11.80   8.20  -1.10  1.950  1.950  0.000  1.950  0.000    5.7    0.0    5.7    0.0
 1991 195     4  11.40  10.00  -1.70  1.931  1.931  0.000  1.931  0.000    7.6    0.0    7.6    0.0
 1991 196     5  12.40  12.60  -2.10  2.186  2.159  0.000  2.159  0.000    9.8    0.0    9.8    0.0
 1991 197     6   8.10  16.00   5.80  1.636  1.636  0.000  1.636  0.000   11.4    0.0   11.4    0.0
 1991 198     7   8.40  22.00   9.90  1.913  1.913  0.000  1.913  0.000   13.4    0.0   13.4    0.0
 1991 199     8   3.90  16.90   8.70  0.820  0.820  0.000  0.820  0.000   14.2    0.0   14.2    0.0
 1991 200     9  10.60  15.00   5.60  2.105  2.105  0.000  2.105  0.000   16.3    0.0   16.3    0.0
 1991 201    10   9.40  24.20  12.80  2.256  2.256  0.000  2.256  0.000   18.5    0.0   18.5    0.0
 1991 202    11   4.00  12.80   8.00  0.787  0.787  0.000  0.787  0.000   19.3    0.0   19.3    0.0
 1991 203    12   4.00   8.40   6.60  0.724  0.724  0.000  0.724  0.000   20.0    0.0   20.0    0.0
 1991 204    13   8.20  10.20   4.80  1.499  1.499  0.000  1.499  0.000   21.5    0.0   21.5    0.0
 1991 205    14  14.00  15.90   2.30  2.726  2.726  0.000  2.726  0.000   24.3    0.0   24.3    0.0
 1991 206    15  14.10  16.80   2.80  2.797  2.388  0.000  2.388  0.000   26.7    0.0   26.7    0.0
 1991 207    16  14.30  24.00   9.10  3.320  2.940  0.000  2.940  0.000   29.6    0.0   29.6    0.0
 1991 208    17  14.40  27.10  10.20  3.506  1.434  0.000  1.434  0.000   31.0    0.0   31.0    0.0
 1991 209    18  13.80  26.30  14.20  3.436  1.106  0.000  1.106  0.000   32.1    0.0   32.1    0.0
 1991 210    19  11.00  25.20  16.10  2.744  0.940  0.006  0.934  0.000   33.1    0.0   33.1    0.0
 1991 211    20   4.20  20.20   8.80  0.925  0.828  0.004  0.823  0.000   33.9    0.0   33.9    0.0
 1991 212    21  11.30  15.40   5.60  2.255  2.255  0.013  2.243  0.000   36.2    0.0   36.1    0.0
 1991 213    22  15.40   6.50   0.50  2.513  2.513  0.015  2.498  0.000   38.7    0.0   38.6    0.0
 1991 214    23  13.80   9.60  -1.80  2.317  1.898  0.010  1.888  0.000   40.6    0.0   40.5    0.0
 1991 215    24  14.00  11.90  -0.90  2.471  2.471  0.004  2.467  0.000   43.0    0.1   43.0    0.0
 1991 216    25   4.40  10.90   4.00  0.806  0.806  0.001  0.806  0.000   43.9    0.1   43.8    0.0
 1991 217    26  14.60  15.00   4.30  2.861  2.861  0.003  2.859  0.000   46.7    0.1   46.7    0.0
 1991 218    27   4.50   9.70   1.90  0.790  0.790  0.001  0.789  0.000   47.5    0.1   47.4    0.0
 1991 219    28   7.50  15.40   2.30  1.449  1.449  0.001  1.448  0.000   49.0    0.1   48.9    0.0
 1991 220    29  11.00  16.70   7.50  2.281  1.409  0.002  1.406  0.000   50.4    0.1   50.3    0.0
 1991 221    30   5.10  15.70  10.40  1.071  1.071  0.002  1.069  0.000   51.4    0.1   51.4    0.0
 1991 222    31   4.80  11.90   8.10  0.932  0.932  0.003  0.930  0.000   52.4    0.1   52.3    0.0
 1991 223    32   7.80  13.10   5.60  1.504  1.504  0.005  1.499  0.000   53.9    0.1   53.8    0.0
 1991 224    33  12.50  15.80   1.50  2.409  1.148  0.009  1.139  0.000   55.0    0.1   54.9    0.0
 1991 225    34  11.60  18.50   7.30  2.461  0.962  0.008  0.954  0.000   56.0    0.1   55.9    0.0
 1991 226    35  15.20  25.70  10.80  3.654  0.853  0.016  0.837  0.000   56.8    0.1   56.7    0.0
 1991 227    36  10.70  25.30  15.40  2.655  0.773  0.018  0.755  0.000   57.6    0.1   57.5    0.0
 1991 228    37  12.60  27.30  14.40  3.172  0.746  0.053  0.693  0.000   58.4    0.2   58.2    0.0
 1991 229    38  16.10  24.70  11.80  3.840  0.755  0.110  0.644  0.000   59.1    0.3   58.8    0.0
 1991 230    39   9.30  23.80  13.60  2.223  0.692  0.088  0.605  0.000   59.8    0.4   59.4    0.0
 1991 231    40  12.70  26.00  10.90  3.045  0.727  0.155  0.571  0.000   60.5    0.5   60.0    0.0
 1991 232    41   9.30  26.00  11.80  2.242  0.686  0.143  0.543  0.000   61.2    0.7   60.5    0.0
 1991 233    42  14.70  26.00  11.60  3.531  0.792  0.274  0.519  0.000   62.0    0.9   61.1    0.0
 1991 234    43  13.80  26.40  14.60  3.404  0.813  0.315  0.497  0.000   62.8    1.3   61.6    0.0
 1991 235    44  16.70  21.60  14.50  3.871  0.908  0.430  0.478  0.000   63.7    1.7   62.0    0.0
 1991 236    45  16.20  20.70   9.90  3.560  0.913  0.452  0.461  0.000   64.6    2.1   62.5    0.0
 1991 237    46  14.10  24.70  11.10  3.289  0.904  0.458  0.446  0.000   65.5    2.6   62.9    0.0
 1991 238    47   5.40  16.90  11.90  1.143  0.612  0.179  0.432  0.000   66.2    2.8   63.4    0.0
 1991 239    48   5.30  16.20  10.20  1.092  1.092  0.183  0.908  0.000   67.2    3.0   64.3    0.0
 1991 240    49  10.80  21.40  12.10  2.423  0.882  0.429  0.453  0.000   68.1    3.4   64.7    0.0
 1991 241    50  10.70  22.80  14.40  2.484  0.920  0.481  0.439  0.000   69.0    3.9   65.2    0.0
 1991 242    51   7.30  24.20  16.00  1.741  0.799  0.374  0.425  0.000   69.8    4.2   65.6    0.0
 1991 243    52   5.50  16.80  11.00  1.138  1.138  0.272  0.866  0.000   71.0    4.5   66.5    0.0
 1991 244    53   9.40  16.10   8.10  1.872  1.872  0.469  1.402  0.000   72.9    5.0   67.9    0.0
 1991 245    54   5.50  17.90  11.20  1.154  0.982  0.299  0.682  0.000   73.8    5.3   68.6    0.0
 1991 246    55  10.50  22.80  14.00  2.401  2.401  0.655  1.746  0.000   76.2    5.9   70.3    0.0
 1991 247    56  18.10  25.80  13.20  4.251  3.284  1.256  2.029  0.000   79.5    7.2   72.3    0.0
 1991 248    57  18.40  27.20  13.90  4.401  2.726  1.419  1.307  0.000   82.2    8.6   73.6    0.0
 1991 249    58   5.70  22.50  16.00  1.303  1.303  0.466  0.837  0.000   83.6    9.1   74.5    0.0
 1991 250    59   5.80  17.20  12.80  1.201  1.201  0.456  0.745  0.000   84.8    9.5   75.2    0.0
 1991 251    60   6.40  17.10  10.50  1.293  1.253  0.515  0.738  0.000   86.0   10.1   76.0    0.0
 1991 252    61  15.60  20.00   8.40  3.208  3.208  1.329  1.880  0.000   89.2   11.4   77.8    0.0
 1991 253    62  17.50  22.00  10.20  3.747  3.669  1.607  2.062  0.000   92.9   13.0   79.9    0.0
 1991 254    63  20.20  25.00  10.80  4.500  3.346  2.032  1.315  0.000   96.2   15.0   81.2    0.0
 1991 255    64  19.90  27.80  14.10  4.688  3.298  2.250  1.049  0.000   99.5   17.3   82.3    0.0
 1991 256    65  15.40  30.70  16.10  3.788  2.843  1.944  0.899  0.000  102.4   19.2   83.2    0.0
 1991 257    66   6.10  21.00   7.80  1.239  1.239  0.684  0.554  0.000  103.6   19.9   83.7    0.0
 1991 258    67   6.20  12.30   8.20  1.114  1.114  0.632  0.482  0.000  104.7   20.5   84.2    0.0
 1991 259    68  11.50  23.50  12.40  2.502  2.502  1.434  1.067  0.000  107.2   22.0   85.3    0.0
 1991 260    69   6.30  21.10  17.10  1.377  1.377  0.827  0.550  0.000  108.6   22.8   85.8    0.0
 1991 261    70  18.90  19.70  13.10  3.910  3.910  2.441  1.469  0.000  112.5   25.2   87.3    0.0
 1991 262    71  21.70  17.30   8.80  4.170  4.170  2.683  1.487  0.000  116.7   27.9   88.8    0.0
 1991 263    72  13.10  22.60   8.30  2.688  2.688  1.757  0.931  0.000  119.4   29.7   89.7    0.0
 1991 264    73  11.00  27.50  12.60  2.480  2.480  1.661  0.819  0.000  121.9   31.3   90.5    0.0
 1991 265    74  20.40  20.30  10.30  4.107  4.107  2.855  1.252  0.000  126.0   34.2   91.8    0.0
 1991 266    75  21.60  16.90   3.20  3.872  3.439  2.746  0.693  0.000  129.4   36.9   92.5    0.0
 1991 267    76  22.30  19.00   4.90  4.204  4.204  2.884  1.320  0.000  133.6   39.8   93.8    0.0
 1991 268    77  20.30  21.10   8.70  4.075  4.075  2.817  1.258  0.000  137.7   42.6   95.0    0.0
 1991 269    78  21.70  23.40   7.80  4.446  4.446  3.131  1.315  0.000  142.1   45.8   96.4    0.0
 1991 270    79  17.70  27.80  13.80  4.014  4.014  2.884  1.130  0.000  146.1   48.7   97.5    0.0
 1991 271    80  22.20  16.10   9.00  4.141  4.062  3.070  0.993  0.000  150.2   51.7   98.5    0.0
 1991 272    81  21.80  18.00   7.50  4.115  3.942  3.079  0.863  0.000  154.1   54.8   99.3    0.0
 1991 273    82  21.10  20.20   9.70  4.183  3.934  3.160  0.774  0.000  158.1   58.0  100.1    0.0
 1991 274    83  19.70  18.40   7.00  3.712  3.551  2.843  0.708  0.000  161.6   60.8  100.8    0.0
 1991 275    84  22.00  18.40   5.70  4.091  3.817  3.161  0.656  0.000  165.4   64.0  101.5    0.0
 1991 276    85  23.00  19.80   3.80  4.281  3.948  3.333  0.614  0.000  169.4   67.3  102.1    0.0
 1991 277    86  19.10  21.70   6.30  3.740  3.456  2.876  0.579  0.000  172.8   70.2  102.7    0.0
 1991 278    87   7.10  13.60  10.60  1.291  1.291  1.004  0.287  0.000  174.1   71.2  103.0    0.0
 1991 279    88  13.30  12.50   7.00  2.293  2.293  1.795  0.499  0.000  176.4   73.0  103.5    0.0
 1991 280    89  14.80  14.20   4.00  2.540  2.540  1.992  0.548  0.000  179.0   75.0  104.0    0.0
 1991 281    90  23.60  16.90   3.90  4.220  4.220  3.265  0.955  0.000  183.2   78.2  105.0    0.0
 1991 282    91  20.30  20.90   7.30  3.971  3.971  3.032  0.939  0.000  187.2   81.3  105.9    0.0
 1991 283    92  24.30  23.10   7.20  4.884  4.884  3.770  1.114  0.000  192.0   85.0  107.0    0.0
 1991 284    93  24.30  25.00   8.70  5.063  5.063  3.956  1.107  0.000  197.1   89.0  108.1    0.0
 1991 285    94  24.40  29.20  12.20  5.495  5.495  4.354  1.141  0.000  202.6   93.3  109.3    0.0
 1991 286    95  21.90  33.00  20.00  5.438  5.098  4.391  0.707  0.000  207.7   97.7  110.0    0.0
 1991 287    96  11.80  32.00  21.10  2.914  2.914  2.411  0.502  0.000  210.6  100.1  110.5    0.0
 1991 288    97   7.50  23.50  17.60  1.637  1.637  1.370  0.267  0.000  212.2  101.5  110.7    0.0
 1991 289    98   7.60  17.80  11.60  1.465  1.465  1.233  0.233  0.000  213.7  102.7  111.0    0.0
 1991 290    99  15.50  16.00   8.40  2.828  2.828  2.388  0.440  0.000  216.5  105.1  111.4    0.0
 1991 291   100  26.30  21.50   8.40  5.176  5.176  4.372  0.805  0.000  221.7  109.5  112.2    0.0
 1991 292   101  26.30  24.60  11.00  5.506  5.506  4.664  0.842  0.000  227.2  114.2  113.1    0.0
 1991 293   102  26.30  24.90  12.50  5.579  5.579  4.841  0.738  0.000  232.8  119.0  113.8    0.0
 1991 294   103  24.40  29.60  14.20  5.539  5.539  4.856  0.683  0.000  238.3  123.9  114.5    0.0
 1991 295   104  20.20  29.90  19.80  4.793  4.793  4.231  0.562  0.000  243.1  128.1  115.0    0.0
 1991 296   105   8.30  19.10  12.60  1.632  1.632  1.448  0.184  0.000  244.8  129.5  115.2    0.0
 1991 297   106   7.90  17.40  10.20  1.486  1.486  1.317  0.170  0.000  246.3  130.9  115.4    0.0
 1991 298   107   7.90  21.30  15.40  1.638  1.638  1.446  0.192  0.000  247.9  132.3  115.6    0.0
 1991 299   108  22.70  24.90  16.30  4.956  4.956  4.363  0.593  0.000  252.9  136.7  116.2    0.0
 1991 300   109  12.20  23.30  14.70  2.579  2.579  2.269  0.311  0.000  255.4  138.9  116.5    0.0
 1991 301   110   8.00  20.10  14.90  1.628  1.628  1.429  0.199  0.000  257.1  140.4  116.7    0.0
 1991 302   111   8.00  16.80  15.20  1.564  1.564  1.369  0.196  0.000  258.6  141.7  116.9    0.0
 1991 303   112   8.10  18.00  14.60  1.601  1.601  1.396  0.205  0.000  260.2  143.1  117.1    0.0
 1991 304   113   8.10  20.70  14.60  1.659  1.659  1.441  0.218  0.000  261.9  144.6  117.3    0.0
 1991 305   114  17.90  22.30  13.70  3.714  3.714  3.217  0.498  0.000  265.6  147.8  117.8    0.0
 1991 306   115  25.50  22.30  12.20  5.227  5.227  4.513  0.713  0.000  270.8  152.3  118.5    0.0
 1991 307   116  20.80  22.80  12.80  4.314  4.314  3.713  0.601  0.000  275.1  156.0  119.1    0.0
 1991 308   117  27.90  25.00  11.90  5.905  5.905  5.067  0.837  0.000  281.0  161.1  120.0    0.0
 1991 309   118  20.90  25.90  13.20  4.521  4.521  3.869  0.652  0.000  285.6  165.0  120.6    0.0
 1991 310   119  11.60  24.30  16.20  2.522  2.522  2.153  0.369  0.000  288.1  167.1  121.0    0.0
 1991 311   120  21.40  22.80  13.70  4.477  4.477  3.814  0.663  0.000  292.6  170.9  121.6    0.0
 1991 312   121  20.00  21.40  12.40  4.068  4.068  3.454  0.613  0.000  296.6  174.4  122.3    0.0
 1991 313   122  27.20  23.90   9.20  5.561  5.561  4.704  0.856  0.000  302.2  179.1  123.1    0.0
 1991 314   123  17.60  25.70  11.30  3.747  3.747  3.157  0.590  0.000  305.9  182.2  123.7    0.0
 1991 315   124  18.50  19.00  10.10  3.580  3.580  2.993  0.587  0.000  309.5  185.2  124.3    0.0
 1991 316   125  27.30  19.00   6.40  5.111  5.111  4.240  0.871  0.000  314.6  189.5  125.2    0.0
 1991 317   126  18.50  21.00   8.40  3.628  3.628  2.990  0.637  0.000  318.3  192.5  125.8    0.0
 1991 318   127   8.50  19.90  12.10  1.698  1.698  1.391  0.307  0.000  320.0  193.9  126.1    0.0
 1991 319   128  11.90  22.20  14.00  2.490  2.490  2.031  0.459  0.000  322.4  195.9  126.6    0.0
 1991 320   129  19.50  23.20  12.10  4.068  3.783  3.307  0.476  0.000  326.2  199.2  127.0    0.0
 1991 321   130  21.50  23.00  11.30  4.446  4.446  3.603  0.843  0.000  330.7  202.8  127.9    0.0
 1991 322   131  23.70  27.00  13.30  5.234  5.234  4.229  1.006  0.000  335.9  207.0  128.9    0.0
 1991 323   132  29.90  21.30  13.80  6.185  6.185  4.982  1.202  0.000  342.1  212.0  130.1    0.0
 1991 324   133  24.60  24.40  13.00  5.256  5.256  4.223  1.033  0.000  347.3  216.2  131.1    0.0
 1991 325   134  29.40  28.60  12.50  6.582  6.582  5.274  1.307  0.000  353.9  221.5  132.4    0.0
 1991 326   135  28.60  33.30  13.80  6.822  6.822  5.454  1.368  0.000  360.8  227.0  133.8    0.0
 1991 327   136  24.90  35.20  18.50  6.327  6.251  5.048  1.203  0.000  367.0  232.0  135.0    0.0
 1991 328   137   8.80  19.10  13.80  1.772  1.772  1.411  0.361  0.000  368.8  233.4  135.4    0.0
 1991 329   138   8.80  18.80  14.20  1.771  1.771  1.409  0.363  0.000  370.5  234.8  135.7    0.0
 1991 330   139  14.10  20.20  12.60  2.851  2.851  2.264  0.587  0.000  373.4  237.1  136.3    0.0
 1991 331   140  22.40  24.20  10.70  4.691  4.691  3.721  0.970  0.000  378.1  240.8  137.3    0.0
 1991 332   141  22.30  29.00  14.90  5.115  5.115  4.057  1.059  0.000  383.2  244.9  138.3    0.0
 1991 333   142  16.00  25.60  19.00  3.642  3.642  2.887  0.755  0.000  386.8  247.8  139.1    0.0
 1991 334   143  30.00  28.20  17.50  6.956  6.956  5.510  1.446  0.000  393.8  253.3  140.5    0.0
 1991 335   144  24.30  27.80  14.60  5.486  5.486  4.341  1.145  0.000  399.3  257.6  141.7    0.0
 1991 336   145  29.40  30.10  14.90  6.832  6.832  5.399  1.433  0.000  406.1  263.0  143.1    0.0
 1991 337   146  15.40  27.50  18.00  3.558  3.558  2.807  0.750  0.000  409.7  265.8  143.9    0.0
 1991 338   147  29.90  31.50  16.10  7.124  6.707  5.611  1.096  0.000  416.4  271.4  145.0    0.0
 1991 339   148  14.60  27.30  18.30  3.374  3.374  2.652  0.722  0.000  419.8  274.1  145.7    0.0
 1991 340   149  29.40  31.80  18.90  7.176  7.176  5.627  1.549  0.000  426.9  279.7  147.2    0.0
 1991 341   150  16.80  27.80  19.00  3.928  3.928  3.072  0.856  0.000  430.9  282.8  148.1    0.0
 1991 342   151  28.30  29.80  17.70  6.703  6.703  5.226  1.477  0.000  437.6  288.0  149.6    0.0
 1991 343   152   9.00  22.80  18.90  1.986  1.986  1.543  0.443  0.000  439.5  289.5  150.0    0.0
 1991 344   153  24.70  27.00  18.80  5.721  5.721  4.429  1.292  0.000  445.3  294.0  151.3    0.0
 1991 345   154  19.50  27.60  17.30  4.498  4.498  3.468  1.030  0.000  449.8  297.4  152.3    0.0
 1991 346   155   9.40  23.80  16.60  2.063  2.063  1.584  0.479  0.000  451.8  299.0  152.8    0.0
 1991 347   156  29.90  28.40  15.10  6.851  6.851  5.233  1.618  0.000  458.7  304.3  154.4    0.0
 1991 348   157   9.40  21.90  16.70  2.020  2.020  1.535  0.485  0.000  460.7  305.8  154.9    0.0
 1991 349   158   9.10  23.50  16.70  1.996  1.996  1.507  0.488  0.000  462.7  307.3  155.4    0.0
 1991 350   159  20.20  26.90  17.10  4.629  4.629  3.474  1.154  0.000  467.3  310.8  156.6    0.0
 1991 351   160  27.60  27.80  17.90  6.434  6.434  4.797  1.636  0.000  473.8  315.6  158.2    0.0
 1991 352   161  26.20  31.10  17.80  6.336  6.336  4.692  1.645  0.000  480.1  320.3  159.8    0.0
 1991 353   162  21.60  31.20  17.50  5.223  5.223  3.837  1.386  0.000  485.3  324.1  161.2    0.0
 1991 354   163  28.80  31.00  18.00  6.980  6.980  5.085  1.895  0.000  492.3  329.2  163.1    0.0
 1991 355   164  23.90  32.40  19.90  5.967  5.967  4.308  1.659  0.000  498.3  333.5  164.8    0.0
 1991 356   165  11.20  27.10  20.30  2.649  2.649  1.894  0.755  0.000  500.9  335.4  165.5    0.0
 1991 357   166  23.80  30.00  19.50  5.786  5.786  4.095  1.691  0.000  506.7  339.5  167.2    0.0
 1991 358   167  27.30  30.80  20.60  6.756  6.756  4.729  2.026  0.000  513.5  344.2  169.2    0.0
 1991 359   168  21.00  25.60  17.40  4.792  4.792  3.317  1.475  0.000  518.3  347.5  170.7    0.0
 1991 360   169  23.90  22.70  13.40  5.105  5.105  3.490  1.615  0.000  523.4  351.0  172.3    0.0
 1991 361   170  29.90  25.20  12.40  6.542  6.542  4.413  2.129  0.000  529.9  355.4  174.5    0.0
 1991 362   171  28.80  26.60  14.90  6.547  6.496  4.357  2.139  0.000  536.4  359.8  176.6    0.0
 1991 363   172  30.80  29.30  14.60  7.218  7.218  4.736  2.482  0.000  543.6  364.5  179.1    0.0
 1991 364   173  23.60  30.40  17.40  5.726  5.480  3.703  1.777  0.000  549.1  368.2  180.9    0.0
 1991 365   174  19.50  33.00  21.10  5.004  4.423  3.187  1.237  0.000  553.5  371.4  182.1    0.0
 1992 001   175  10.80  28.00  20.30  2.615  2.615  1.638  0.977  0.000  556.1  373.1  183.1    0.0
 1992 002   176  19.00  28.60  19.10  4.597  4.597  2.831  1.766  0.000  560.7  375.9  184.8    0.0
 1992 003   177  28.00  23.20  14.20  6.130  6.130  3.707  2.423  0.000  566.9  379.6  187.3    0.0
 1992 004   178  31.30  26.80  14.90  7.197  6.783  4.352  2.431  0.000  573.6  383.9  189.7    0.0
 1992 005   179  30.40  28.90  13.10  7.064  7.064  4.272  2.792  0.000  580.7  388.2  192.5    0.0
 1992 006   180  20.50  27.20  15.70  4.765  4.358  2.882  1.476  0.000  585.1  391.1  194.0    0.0

*DSSAT Cropping System Model Ver. 4.0.2.000               Aug 03, 2016; 13:27:13

*RUN   3        : UYMZ                    
 MODEL          : MZCER040 - Maize           
 EXPERIMENT     : UYMZ0115 MZ    late to create DSS                             
 TREATMENT  1   : UYMZ                    

@YEAR DOY   DAS   SRAA   TMXA   TMNA   EOAA   ETAA   EPAA   ESAA   EFAD   ETAC   EPAC   ESAC   EFAC
 1992 191     0  11.40  19.50   4.90  2.400  1.808  0.000  1.808  0.000    1.8    0.0    1.8    0.0
 1992 192     1  12.30  23.00   9.50  2.829  2.723  0.000  2.723  0.000    4.5    0.0    4.5    0.0
 1992 193     2  12.30  24.20   9.60  2.875  1.418  0.000  1.418  0.000    5.9    0.0    5.9    0.0
 1992 194     3  12.30  24.60  11.90  2.945  2.945  0.000  2.945  0.000    8.9    0.0    8.9    0.0
 1992 195     4   8.30  25.80  13.80  2.048  2.048  0.000  2.048  0.000   10.9    0.0   10.9    0.0
 1992 196     5   3.90  16.50   4.30  0.782  0.782  0.000  0.782  0.000   11.7    0.0   11.7    0.0
 1992 197     6  11.40   7.10   1.00  1.894  1.894  0.000  1.894  0.000   13.6    0.0   13.6    0.0
 1992 198     7   7.10   6.60  -1.50  1.134  1.134  0.000  1.134  0.000   14.8    0.0   14.8    0.0
 1992 199     8  10.20   9.00  -1.80  1.695  1.695  0.000  1.695  0.000   16.4    0.0   16.4    0.0
 1992 200     9  13.50   6.80   3.40  2.294  1.935  0.000  1.935  0.000   18.4    0.0   18.4    0.0
 1992 201    10   4.00  11.20   2.70  0.726  0.726  0.000  0.726  0.000   19.1    0.0   19.1    0.0
 1992 202    11  12.80  16.30   0.20  2.455  2.455  0.000  2.455  0.000   21.6    0.0   21.6    0.0
 1992 203    12  14.10   9.70   2.30  2.487  1.415  0.000  1.415  0.000   23.0    0.0   23.0    0.0
 1992 204    13  10.40   8.40  -1.50  1.716  1.097  0.000  1.097  0.000   24.1    0.0   24.1    0.0
 1992 205    14  14.60   8.40  -1.30  2.415  0.928  0.000  0.928  0.000   25.0    0.0   25.0    0.0
 1992 206    15   9.40  10.50  -0.90  1.621  0.820  0.000  0.820  0.000   25.8    0.0   25.8    0.0
 1992 207    16  10.70  15.20   3.40  2.085  0.742  0.000  0.742  0.000   26.6    0.0   26.6    0.0
 1992 208    17   4.20  11.80   9.50  0.827  0.683  0.000  0.683  0.000   27.2    0.0   27.2    0.0
 1992 209    18  12.50  14.00   5.80  2.450  2.450  0.000  2.450  0.000   29.7    0.0   29.7    0.0
 1992 210    19   4.20  11.10   3.00  0.764  0.764  0.000  0.764  0.000   30.5    0.0   30.5    0.0
 1992 211    20   9.60  16.80   9.10  2.024  1.200  0.000  1.200  0.000   31.7    0.0   31.7    0.0
 1992 212    21   4.30  13.60   7.50  0.852  0.852  0.000  0.852  0.000   32.5    0.0   32.5    0.0
 1992 213    22   6.30   9.40   3.80  1.124  1.124  0.000  1.124  0.000   33.6    0.0   33.6    0.0
 1992 214    23  13.60   8.80   0.20  2.306  0.989  0.000  0.989  0.000   34.6    0.0   34.6    0.0
 1992 215    24  13.70  12.00   0.10  2.450  0.861  0.000  0.861  0.000   35.5    0.0   35.5    0.0
 1992 216    25  13.70  13.70   0.50  2.530  0.772  0.000  0.772  0.000   36.3    0.0   36.3    0.0
 1992 217    26  10.00  12.50   1.20  1.825  0.706  0.000  0.706  0.000   37.0    0.0   37.0    0.0
 1992 218    27  12.80  17.40  -1.30  2.458  0.655  0.000  0.655  0.000   37.6    0.0   37.6    0.0
 1992 219    28  15.20  25.60   6.90  3.534  0.613  0.000  0.613  0.000   38.2    0.0   38.2    0.0
 1992 220    29   4.50  21.40   8.20  1.002  0.579  0.000  0.579  0.000   38.8    0.0   38.8    0.0
 1992 221    30  14.50  10.40   1.40  2.562  1.920  0.000  1.920  0.000   40.7    0.0   40.7    0.0
 1992 222    31  10.20  13.40  -0.60  1.852  0.574  0.000  0.574  0.000   41.3    0.0   41.3    0.0
 1992 223    32   9.40  15.40   7.80  1.919  0.545  0.000  0.545  0.000   41.9    0.0   41.9    0.0
 1992 224    33  15.10  14.90   3.90  2.943  0.520  0.000  0.520  0.000   42.4    0.0   42.4    0.0
 1992 225    34  14.50  15.90   6.10  2.932  0.499  0.000  0.499  0.000   42.9    0.0   42.9    0.0
 1992 226    35  15.60  18.00   2.80  3.150  0.480  0.000  0.480  0.000   43.4    0.0   43.4    0.0
 1992 227    36  14.70  18.40   3.00  2.992  0.463  0.000  0.463  0.000   43.8    0.0   43.8    0.0
 1992 228    37   9.50  19.20   5.70  2.007  0.447  0.000  0.447  0.000   44.3    0.0   44.3    0.0
 1992 229    38  15.30  22.20   8.70  3.458  0.437  0.004  0.433  0.000   44.7    0.0   44.7    0.0
 1992 230    39  12.30  23.20   9.70  2.840  0.427  0.006  0.421  0.000   45.1    0.0   45.1    0.0
 1992 231    40  14.00  20.80   9.20  3.118  0.420  0.011  0.409  0.000   45.5    0.0   45.5    0.0
 1992 232    41  13.40  19.60   7.90  2.902  0.412  0.014  0.398  0.000   46.0    0.0   45.9    0.0
 1992 233    42  13.30  19.40   6.20  2.828  0.405  0.017  0.388  0.000   46.4    0.1   46.3    0.0
 1992 234    43  16.90  23.10   9.50  3.887  0.406  0.027  0.379  0.000   46.8    0.1   46.7    0.0
 1992 235    44   7.80  20.10  13.90  1.792  1.216  0.016  1.200  0.000   48.0    0.1   47.9    0.0
 1992 236    45  17.00  19.30   9.60  3.721  3.721  0.040  3.680  0.000   51.7    0.1   51.6    0.0
 1992 237    46  17.80  21.00   7.10  3.896  0.484  0.048  0.436  0.000   52.2    0.2   52.0    0.0
 1992 238    47  18.00  21.20   5.80  3.904  0.478  0.055  0.423  0.000   52.7    0.2   52.4    0.0
 1992 239    48  17.90  20.30   6.20  3.846  0.484  0.072  0.411  0.000   53.2    0.3   52.8    0.0
 1992 240    49  17.60  25.40   6.30  4.047  0.497  0.096  0.400  0.000   53.6    0.4   53.2    0.0
 1992 241    50  11.50  18.80  11.40  2.533  0.471  0.080  0.390  0.000   54.1    0.5   53.6    0.0
 1992 242    51  14.20  24.40  11.00  3.347  0.509  0.128  0.381  0.000   54.6    0.6   54.0    0.0
 1992 243    52   5.50  20.90  15.20  1.283  0.434  0.062  0.372  0.000   55.1    0.7   54.4    0.0
 1992 244    53   7.20  13.80   9.60  1.448  1.448  0.086  1.362  0.000   56.5    0.8   55.7    0.0
 1992 245    54   7.50  14.00   7.20  1.477  0.593  0.094  0.500  0.000   57.1    0.9   56.2    0.0
 1992 246    55   5.70  14.80   8.60  1.151  0.557  0.076  0.481  0.000   57.7    0.9   56.7    0.0
 1992 247    56  14.90  17.40   7.30  3.082  0.681  0.217  0.463  0.000   58.3    1.2   57.2    0.0
 1992 248    57  18.80  18.80   6.80  3.944  0.749  0.301  0.448  0.000   59.1    1.5   57.6    0.0
 1992 249    58  18.30  21.20   6.10  3.939  0.761  0.327  0.434  0.000   59.9    1.8   58.1    0.0
 1992 250    59  18.30  18.80   8.70  3.898  0.778  0.357  0.421  0.000   60.6    2.1   58.5    0.0
 1992 251    60  17.80  20.60   9.70  3.915  0.801  0.391  0.410  0.000   61.4    2.5   58.9    0.0
 1992 252    61   5.90  20.10  13.60  1.332  0.546  0.147  0.399  0.000   62.0    2.7   59.3    0.0
 1992 253    62  11.20  20.00  13.40  2.515  0.700  0.311  0.389  0.000   62.7    3.0   59.7    0.0
 1992 254    63  12.60  21.60  13.10  2.875  0.774  0.394  0.380  0.000   63.4    3.4   60.1    0.0
 1992 255    64   8.60  21.20  14.90  1.978  1.978  0.302  1.676  0.000   65.4    3.7   61.7    0.0
 1992 256    65  16.90  19.30  12.30  3.699  1.748  0.628  1.120  0.000   67.2    4.3   62.9    0.0
 1992 257    66  10.20  16.70   8.80  2.083  0.823  0.384  0.439  0.000   68.0    4.7   63.3    0.0
 1992 258    67  17.10  20.10   6.20  3.569  1.115  0.689  0.426  0.000   69.1    5.4   63.7    0.0
 1992 259    68  19.70  21.30   9.00  4.278  1.288  0.874  0.414  0.000   70.4    6.3   64.1    0.0
 1992 260    69  12.60  22.60  12.60  2.864  1.032  0.629  0.403  0.000   71.4    6.9   64.5    0.0
 1992 261    70  14.90  26.70  15.20  3.625  1.260  0.867  0.393  0.000   72.7    7.8   64.9    0.0
 1992 262    71  19.80  16.60   9.30  4.006  4.006  1.070  2.936  0.000   76.7    8.8   67.9    0.0
 1992 263    72  21.60  19.30   5.20  4.361  1.625  1.215  0.410  0.000   78.3   10.0   68.3    0.0
 1992 264    73  21.40  25.60   5.90  4.724  1.765  1.366  0.399  0.000   80.1   11.4   68.7    0.0
 1992 265    74  21.20  30.00  10.20  5.100  1.973  1.584  0.389  0.000   82.1   13.0   69.1    0.0
 1992 266    75   6.50  12.70   8.80  1.222  1.222  0.424  0.798  0.000   83.3   13.4   69.9    0.0
 1992 267    76  16.00  18.60   6.50  3.201  3.201  1.133  2.068  0.000   86.5   14.5   71.9    0.0
 1992 268    77   6.60  13.20  10.60  1.268  1.268  0.466  0.802  0.000   87.8   15.0   72.7    0.0
 1992 269    78  21.20  12.50   4.50  3.785  3.785  1.431  2.355  0.000   91.5   16.4   75.1    0.0
 1992 270    79  20.60  14.20   0.80  3.637  3.637  1.356  2.281  0.000   95.2   17.8   77.4    0.0
 1992 271    80  21.70  20.00   4.50  4.386  3.690  1.282  2.408  0.000   98.9   19.1   79.8    0.0
 1992 272    81  23.00  21.40   5.30  4.767  4.054  1.446  2.609  0.000  102.9   20.5   82.4    0.0
 1992 273    82  23.30  23.20   6.10  4.968  3.010  1.603  1.406  0.000  105.9   22.1   83.8    0.0
 1992 274    83  22.50  26.20  10.30  5.147  2.880  1.787  1.093  0.000  108.8   23.9   84.9    0.0
 1992 275    84  12.50  26.40  11.00  2.867  2.022  1.096  0.926  0.000  110.8   25.0   85.8    0.0
 1992 276    85  11.80  21.80  13.00  2.586  2.586  1.076  1.510  0.000  113.4   26.1   87.3    0.0
 1992 277    86  17.90  20.60  11.10  3.784  2.550  1.678  0.872  0.000  116.0   27.8   88.2    0.0
 1992 278    87  18.00  25.50  11.70  4.056  2.670  1.890  0.780  0.000  118.6   29.7   89.0    0.0
 1992 279    88   7.10  18.20  11.80  1.451  1.433  0.721  0.713  0.000  120.1   30.4   89.7    0.0
 1992 280    89  24.40  15.90   7.40  4.621  4.621  2.399  2.222  0.000  124.7   32.8   91.9    0.0
 1992 281    90  21.30  15.60   4.20  3.885  3.486  2.060  1.425  0.000  128.2   34.8   93.3    0.0
 1992 282    91  24.30  19.00   3.40  4.625  4.625  2.441  2.184  0.000  132.8   37.3   95.5    0.0
 1992 283    92  24.30  21.00   6.60  4.908  4.224  2.536  1.688  0.000  137.0   39.8   97.2    0.0
 1992 284    93  25.10  25.30   7.30  5.382  4.087  2.881  1.207  0.000  141.1   42.7   98.4    0.0
 1992 285    94  16.70  27.20   9.20  3.711  3.071  2.079  0.992  0.000  144.2   44.8   99.4    0.0
 1992 286    95  22.70  24.00  12.40  4.957  3.782  2.920  0.862  0.000  148.0   47.7  100.3    0.0
 1992 287    96  25.10  25.60   8.60  5.396  5.396  3.323  2.073  0.000  153.4   51.0  102.3    0.0
 1992 288    97  24.70  29.50  11.40  5.675  5.675  3.622  2.053  0.000  159.0   54.6  104.4    0.0
 1992 289    98   7.60  31.50  15.50  1.835  1.835  1.224  0.611  0.000  160.9   55.9  105.0    0.0
 1992 290    99   9.30  20.50  15.70  1.969  1.969  1.352  0.618  0.000  162.8   57.2  105.6    0.0
 1992 291   100  23.40  21.20  12.00  4.830  4.830  3.412  1.418  0.000  167.7   60.6  107.0    0.0
 1992 292   101  25.90  21.20   7.50  5.127  5.127  3.704  1.423  0.000  172.8   64.3  108.5    0.0
 1992 293   102   9.10  19.80  11.20  1.824  1.824  1.338  0.486  0.000  174.6   65.7  109.0    0.0
 1992 294   103  24.10  18.60  10.30  4.708  4.708  3.511  1.196  0.000  179.3   69.2  110.2    0.0
 1992 295   104  26.10  21.30   5.50  5.056  5.056  3.822  1.234  0.000  184.4   73.0  111.4    0.0
 1992 296   105  24.90  24.50   7.60  5.120  5.120  3.915  1.205  0.000  189.5   76.9  112.6    0.0
 1992 297   106  25.00  27.30  12.00  5.509  5.509  4.277  1.232  0.000  195.0   81.2  113.8    0.0
 1992 298   107  24.60  30.90  14.60  5.753  5.729  4.561  1.168  0.000  200.7   85.8  115.0    0.0
 1992 299   108   9.50  26.40  17.60  2.153  2.153  1.748  0.405  0.000  202.9   87.5  115.4    0.0
 1992 300   109  26.70  27.40  17.30  6.099  6.099  5.016  1.083  0.000  209.0   92.5  116.5    0.0
 1992 301   110  27.40  30.00  15.80  6.359  6.359  5.331  1.028  0.000  215.4   97.8  117.5    0.0
 1992 302   111  10.50  15.30   6.40  1.851  1.851  1.626  0.225  0.000  217.2   99.5  117.7    0.0
 1992 303   112  27.70  21.90   3.90  5.234  5.234  4.630  0.604  0.000  222.4  104.1  118.3    0.0
 1992 304   113  26.80  21.80   6.40  5.175  5.175  4.567  0.608  0.000  227.6  108.7  118.9    0.0
 1992 305   114  26.90  23.80   6.80  5.347  5.347  4.757  0.590  0.000  233.0  113.4  119.5    0.0
 1992 306   115  27.10  27.10   9.00  5.717  5.717  5.122  0.595  0.000  238.7  118.5  120.1    0.0
 1992 307   116  27.30  30.20  13.00  6.161  6.161  5.560  0.601  0.000  244.8  124.1  120.7    0.0
 1992 308   117  21.90  19.80   9.40  4.213  4.213  3.831  0.382  0.000  249.1  127.9  121.1    0.0
 1992 309   118  27.20  14.10   6.50  4.694  4.694  4.279  0.415  0.000  253.7  132.2  121.5    0.0
 1992 310   119  24.50  16.40   2.70  4.214  4.214  3.841  0.373  0.000  258.0  136.1  121.9    0.0
 1992 311   120  27.00  19.20   4.80  4.954  4.954  4.391  0.563  0.000  262.9  140.5  122.5    0.0
 1992 312   121  27.40  21.50   7.30  5.310  5.310  4.701  0.609  0.000  268.2  145.2  123.1    0.0
 1992 313   122  28.00  25.20   8.30  5.742  5.742  5.094  0.648  0.000  274.0  150.2  123.7    0.0
 1992 314   123  28.20  29.80  10.00  6.200  6.200  5.517  0.683  0.000  280.2  155.8  124.4    0.0
 1992 315   124   8.60  22.00  16.00  1.805  1.805  1.613  0.192  0.000  282.0  157.4  124.6    0.0
 1992 316   125  23.60  28.40  16.10  5.348  5.348  4.785  0.564  0.000  287.3  162.2  125.2    0.0
 1992 317   126  28.00  29.50  15.30  6.383  6.383  5.732  0.651  0.000  293.7  167.9  125.8    0.0
 1992 318   127  28.50  27.90  12.90  6.259  6.259  5.639  0.620  0.000  300.0  173.5  126.4    0.0
 1992 319   128  19.40  31.40  14.40  4.485  4.485  4.052  0.433  0.000  304.4  177.6  126.9    0.0
 1992 320   129  23.00  25.50  17.30  5.079  5.079  4.606  0.473  0.000  309.5  182.2  127.3    0.0
 1992 321   130  28.80  20.40  11.50  5.689  5.689  5.175  0.514  0.000  315.2  187.4  127.9    0.0
 1992 322   131  28.20  21.50   7.70  5.465  5.465  4.976  0.489  0.000  320.7  192.3  128.3    0.0
 1992 323   132  28.80  23.90   7.20  5.735  5.735  5.224  0.512  0.000  326.4  197.6  128.9    0.0
 1992 324   133  29.50  28.10  11.20  6.398  6.398  5.831  0.567  0.000  332.8  203.4  129.4    0.0
 1992 325   134  22.20  30.00  13.80  5.022  5.022  4.585  0.437  0.000  337.8  208.0  129.9    0.0
 1992 326   135   8.70  21.20  13.60  1.767  1.767  1.617  0.150  0.000  339.6  209.6  130.0    0.0
 1992 327   136  25.70  19.30  10.00  4.935  4.935  4.508  0.427  0.000  344.5  214.1  130.4    0.0
 1992 328   137  22.10  20.60   6.40  4.181  4.181  3.813  0.368  0.000  348.7  217.9  130.8    0.0
 1992 329   138  24.00  26.00  11.10  5.071  5.071  4.619  0.452  0.000  353.8  222.5  131.3    0.0
 1992 330   139  21.90  23.90  15.40  4.671  4.671  4.251  0.421  0.000  358.5  226.8  131.7    0.0
 1992 331   140  19.00  26.00  14.30  4.120  4.120  3.746  0.375  0.000  362.6  230.5  132.0    0.0
 1992 332   141  30.10  27.20  12.90  6.549  6.549  5.948  0.601  0.000  369.1  236.5  132.7    0.0
 1992 333   142  21.00  27.70  13.50  4.618  4.618  4.191  0.428  0.000  373.7  240.7  133.1    0.0
 1992 334   143  19.80  29.80  16.90  4.579  4.579  4.151  0.427  0.000  378.3  244.8  133.5    0.0
 1992 335   144  21.90  28.00  18.70  5.031  5.031  4.558  0.473  0.000  383.4  249.4  134.0    0.0
 1992 336   145  29.50  23.90  14.00  6.225  6.225  5.636  0.590  0.000  389.6  255.0  134.6    0.0
 1992 337   146  30.20  24.80   8.90  6.178  6.178  5.589  0.589  0.000  395.8  260.6  135.2    0.0
 1992 338   147  26.20  27.40   9.70  5.573  5.573  5.038  0.535  0.000  401.3  265.6  135.7    0.0
 1992 339   148  30.30  29.10  13.50  6.777  6.777  6.123  0.654  0.000  408.1  271.8  136.3    0.0
 1992 340   149  18.70  28.20  13.80  4.149  4.149  3.746  0.403  0.000  412.3  275.5  136.8    0.0
 1992 341   150  25.20  29.60  18.90  5.905  5.905  5.327  0.577  0.000  418.2  280.8  137.3    0.0
 1992 342   151  23.30  26.40  15.40  5.126  5.126  4.625  0.501  0.000  423.3  285.5  137.8    0.0
 1992 343   152  25.40  27.90  14.80  5.660  5.660  5.107  0.554  0.000  429.0  290.6  138.4    0.0
 1992 344   153  21.00  26.70  16.50  4.676  4.676  4.219  0.457  0.000  433.6  294.8  138.8    0.0
 1992 345   154  22.70  27.30  18.10  5.153  5.153  4.649  0.504  0.000  438.8  299.4  139.3    0.0
 1992 346   155  23.20  26.50  15.70  5.122  5.122  4.621  0.501  0.000  443.9  304.1  139.8    0.0
 1992 347   156  29.50  27.30  13.40  6.457  6.457  5.824  0.633  0.000  450.4  309.9  140.5    0.0
 1992 348   157  30.90  30.20  14.90  7.076  7.076  6.379  0.697  0.000  457.4  316.3  141.2    0.0
 1992 349   158  28.90  28.40  15.70  6.524  6.524  5.877  0.647  0.000  464.0  322.1  141.8    0.0
 1992 350   159  30.30  28.00  10.00  6.511  6.511  5.859  0.652  0.000  470.5  328.0  142.5    0.0
 1992 351   160  24.80  29.80  12.50  5.553  5.553  4.990  0.563  0.000  476.0  333.0  143.0    0.0
 1992 352   161  19.40  27.60  17.70  4.408  4.408  3.955  0.454  0.000  480.4  336.9  143.5    0.0
 1992 353   162  29.70  30.40  14.50  6.802  6.802  6.090  0.712  0.000  487.2  343.0  144.2    0.0
 1992 354   163  18.00  30.80  14.60  4.145  4.145  3.703  0.442  0.000  491.4  346.7  144.6    0.0
 1992 355   164  31.80  33.80  18.10  7.765  7.765  6.918  0.848  0.000  499.1  353.7  145.5    0.0
 1992 356   165  25.50  32.40  15.70  6.031  6.031  5.356  0.675  0.000  505.2  359.0  146.2    0.0
 1992 357   166  11.20  29.40  18.60  2.619  2.619  2.318  0.301  0.000  507.8  361.3  146.5    0.0
 1992 358   167  11.20  27.70  20.80  2.613  2.613  2.304  0.309  0.000  510.4  363.6  146.8    0.0
 1992 359   168  27.80  28.90  17.70  6.428  6.428  5.642  0.786  0.000  516.8  369.3  147.6    0.0
 1992 360   169  22.90  27.40  15.10  5.106  5.106  4.460  0.646  0.000  521.9  373.7  148.2    0.0
 1992 361   170  31.40  27.40  13.20  6.902  6.902  5.999  0.903  0.000  528.8  379.7  149.1    0.0
 1992 362   171  31.00  28.00  12.60  6.835  6.835  5.906  0.929  0.000  535.7  385.6  150.0    0.0
 1992 363   172  30.00  32.00  13.10  6.958  6.958  5.973  0.985  0.000  542.6  391.6  151.0    0.0
 1992 364   173   9.10  25.60  19.70  2.065  2.065  1.760  0.305  0.000  544.7  393.4  151.3    0.0
 1992 365   174   9.10  23.30  19.60  2.011  2.011  1.701  0.310  0.000  546.7  395.1  151.6    0.0
 1992 366   175   9.10  20.20  19.20  1.933  1.933  1.621  0.312  0.000  548.6  396.7  152.0    0.0
 1993 001   176   9.10  21.20  19.60  1.965  1.965  1.633  0.332  0.000  550.6  398.3  152.3    0.0
 1993 002   177   9.10  21.80  19.40  1.978  1.978  1.629  0.349  0.000  552.6  400.0  152.6    0.0
 1993 003   178   9.10  21.90  19.70  1.988  1.988  1.621  0.367  0.000  554.6  401.6  153.0    0.0
 1993 004   179  14.90  28.90  19.80  3.535  3.535  2.852  0.682  0.000  558.1  404.4  153.7    0.0
 1993 005   180  23.60  30.80  21.50  5.794  5.794  4.624  1.170  0.000  563.9  409.1  154.9    0.0
 1993 006   181  29.90  32.00  19.70  7.351  7.351  5.798  1.553  0.000  571.3  414.8  156.4    0.0
 1993 007   182  12.50  27.20  20.30  2.933  2.933  2.284  0.649  0.000  574.2  417.1  157.1    0.0
 1993 008   183  20.20  26.60  20.10  4.707  4.707  3.616  1.091  0.000  578.9  420.7  158.1    0.0
 1993 009   184  30.70  26.90  16.00  6.969  6.969  5.272  1.697  0.000  585.9  426.0  159.8    0.0
 1993 010   185  30.90  31.10  16.00  7.370  7.370  5.487  1.883  0.000  593.2  431.5  161.7    0.0
 1993 011   186  31.30  32.20  17.60  7.660  7.369  5.606  1.764  0.000  600.6  437.1  163.5    0.0
 1993 012   187  30.90  32.70  19.60  7.727  7.727  5.552  2.175  0.000  608.3  442.7  165.7    0.0
 1993 013   188  22.70  33.00  20.70  5.751  5.751  4.052  1.699  0.000  614.1  446.7  167.4    0.0
 1993 014   189  17.40  30.10  22.30  4.323  4.288  3.046  1.242  0.000  618.4  449.8  168.6    0.0
 1993 015   190  26.90  30.80  22.50  6.743  6.743  4.751  1.992  0.000  625.1  454.5  170.6    0.0

*DSSAT Cropping System Model Ver. 4.0.2.000               Aug 03, 2016; 13:27:13

*RUN   4        : UYMZ                    
 MODEL          : MZCER040 - Maize           
 EXPERIMENT     : UYMZ0115 MZ    late to create DSS                             
 TREATMENT  1   : UYMZ                    

@YEAR DOY   DAS   SRAA   TMXA   TMNA   EOAA   ETAA   EPAA   ESAA   EFAD   ETAC   EPAC   ESAC   EFAC
 1993 191     0   3.80  10.60   2.40  0.681  0.681  0.000  0.681  0.000    0.7    0.0    0.7    0.0
 1993 192     1  13.30  14.50   1.90  2.524  2.524  0.000  2.524  0.000    3.2    0.0    3.2    0.0
 1993 193     2  11.70  13.60   0.70  2.162  2.162  0.000  2.162  0.000    5.4    0.0    5.4    0.0
 1993 194     3   7.80   9.00   2.30  1.360  1.360  0.000  1.360  0.000    6.7    0.0    6.7    0.0
 1993 195     4  12.90  10.60   1.10  2.279  2.279  0.000  2.279  0.000    9.0    0.0    9.0    0.0
 1993 196     5  12.00  12.10  -1.70  2.107  2.107  0.000  2.107  0.000   11.1    0.0   11.1    0.0
 1993 197     6  11.50  15.40   0.10  2.172  1.405  0.000  1.405  0.000   12.5    0.0   12.5    0.0
 1993 198     7  10.80  16.90   0.10  2.088  2.088  0.000  2.088  0.000   14.6    0.0   14.6    0.0
 1993 199     8   3.90  15.20   8.90  0.802  0.802  0.000  0.802  0.000   15.4    0.0   15.4    0.0
 1993 200     9  10.90  25.10  12.30  2.635  1.305  0.000  1.305  0.000   16.7    0.0   16.7    0.0
 1993 201    10  13.20  28.30  14.90  3.383  1.044  0.000  1.044  0.000   17.8    0.0   17.8    0.0
 1993 202    11   4.00  17.00  11.40  0.864  0.864  0.000  0.864  0.000   18.6    0.0   18.6    0.0
 1993 203    12   4.40  19.80  12.50  0.996  0.800  0.000  0.800  0.000   19.4    0.0   19.4    0.0
 1993 204    13   4.10  20.10  11.60  0.925  0.728  0.000  0.728  0.000   20.1    0.0   20.1    0.0
 1993 205    14  14.00  12.40   1.70  2.565  0.672  0.000  0.672  0.000   20.8    0.0   20.8    0.0
 1993 206    15  13.00  11.90  -1.00  2.293  0.627  0.000  0.627  0.000   21.4    0.0   21.4    0.0
 1993 207    16   4.10  11.00   3.40  0.748  0.748  0.000  0.748  0.000   22.2    0.0   22.2    0.0
 1993 208    17   7.40  19.80  11.10  1.655  1.655  0.000  1.655  0.000   23.9    0.0   23.9    0.0
 1993 209    18   4.20  15.50   8.40  0.863  0.863  0.001  0.862  0.000   24.7    0.0   24.7    0.0
 1993 210    19   4.20   8.70   5.80  0.757  0.757  0.001  0.756  0.000   25.5    0.0   25.5    0.0
 1993 211    20   4.20   8.40   4.70  0.744  0.744  0.001  0.743  0.000   26.2    0.0   26.2    0.0
 1993 212    21   4.70  10.30   6.10  0.872  0.872  0.002  0.871  0.000   27.1    0.0   27.1    0.0
 1993 213    22  14.50  11.30   2.30  2.625  2.625  0.005  2.620  0.000   29.7    0.0   29.7    0.0
 1993 214    23  14.10  15.00  -0.10  2.641  2.590  0.005  2.585  0.000   32.3    0.0   32.3    0.0
 1993 215    24  14.80  15.20   0.60  2.801  2.801  0.003  2.798  0.000   35.1    0.0   35.1    0.0
 1993 216    25  11.00  18.80   3.80  2.269  1.657  0.002  1.655  0.000   36.8    0.0   36.7    0.0
 1993 217    26   9.70  26.50  11.80  2.375  1.199  0.004  1.195  0.000   38.0    0.0   37.9    0.0
 1993 218    27  12.20  28.60  15.10  3.141  0.996  0.011  0.985  0.000   39.0    0.0   38.9    0.0
 1993 219    28  11.20  28.00  13.10  2.818  0.876  0.018  0.858  0.000   39.8    0.1   39.8    0.0
 1993 220    29   4.50  13.00   6.10  0.870  0.778  0.008  0.770  0.000   40.6    0.1   40.5    0.0
 1993 221    30  14.40  11.40   0.40  2.555  2.555  0.024  2.530  0.000   43.2    0.1   43.1    0.0
 1993 222    31  15.00  14.20   0.50  2.789  1.508  0.018  1.489  0.000   44.7    0.1   44.6    0.0
 1993 223    32  13.60  17.80   2.40  2.726  1.143  0.013  1.130  0.000   45.8    0.1   45.7    0.0
 1993 224    33   9.10  19.80   4.40  1.914  0.957  0.009  0.948  0.000   46.8    0.1   46.6    0.0
 1993 225    34  13.40  21.40   5.20  2.902  0.849  0.016  0.833  0.000   47.6    0.1   47.5    0.0
 1993 226    35   9.50  22.60   4.30  2.073  0.772  0.020  0.752  0.000   48.4    0.2   48.2    0.0
 1993 227    36  16.00  24.00   7.40  3.653  0.741  0.050  0.691  0.000   49.1    0.2   48.9    0.0
 1993 228    37  12.00  20.80   7.40  2.623  0.698  0.055  0.643  0.000   49.8    0.3   49.6    0.0
 1993 229    38  14.40  11.40   4.70  2.670  2.670  0.071  2.598  0.000   52.5    0.3   52.2    0.0
 1993 230    39  16.10  15.50  -0.20  3.024  0.863  0.082  0.781  0.000   53.4    0.4   52.9    0.0
 1993 231    40  16.70  18.70   1.60  3.358  0.773  0.060  0.713  0.000   54.1    0.5   53.7    0.0
 1993 232    41  16.40  19.00   2.00  3.326  0.716  0.056  0.660  0.000   54.9    0.5   54.3    0.0
 1993 233    42  15.00  18.60   2.30  3.033  0.670  0.052  0.618  0.000   55.5    0.6   54.9    0.0
 1993 234    43  11.80  20.00   6.40  2.530  0.627  0.045  0.582  0.000   56.2    0.6   55.5    0.0
 1993 235    44  11.00  20.00   5.50  2.337  0.608  0.055  0.553  0.000   56.8    0.7   56.1    0.0
 1993 236    45  17.00  22.60   6.10  3.759  0.637  0.110  0.527  0.000   57.4    0.8   56.6    0.0
 1993 237    46  16.20  24.20   8.80  3.739  0.646  0.141  0.505  0.000   58.0    0.9   57.1    0.0
 1993 238    47  15.20  26.40  10.40  3.649  0.664  0.180  0.485  0.000   58.7    1.1   57.6    0.0
 1993 239    48  14.70  29.20  12.50  3.702  0.704  0.237  0.467  0.000   59.4    1.4   58.1    0.0
 1993 240    49  13.50  31.30  18.70  3.636  0.755  0.303  0.451  0.000   60.2    1.7   58.5    0.0
 1993 241    50   5.40  19.00  15.40  1.220  0.573  0.136  0.437  0.000   60.7    1.8   58.9    0.0
 1993 242    51   5.40  16.30  13.10  1.151  1.151  0.145  1.006  0.000   61.9    1.9   59.9    0.0
 1993 243    52   5.50  12.20   9.20  1.063  1.063  0.147  0.917  0.000   63.0    2.1   60.9    0.0
 1993 244    53   6.30  13.60  10.20  1.255  1.255  0.179  1.076  0.000   64.2    2.3   61.9    0.0
 1993 245    54  14.50  13.00   8.40  2.812  2.812  0.409  2.402  0.000   67.0    2.7   64.3    0.0
 1993 246    55  19.30  17.00   4.50  3.819  3.819  0.566  3.253  0.000   70.8    3.2   67.6    0.0
 1993 247    56  19.40  24.10   5.80  4.285  2.967  0.644  2.322  0.000   73.8    3.9   69.9    0.0
 1993 248    57  19.60  22.00   7.00  4.246  2.744  0.701  2.043  0.000   76.5    4.6   72.0    0.0
 1993 249    58  17.90  23.50   6.30  3.922  2.016  0.706  1.310  0.000   78.6    5.3   73.3    0.0
 1993 250    59  18.40  15.80   7.90  3.671  1.768  0.722  1.046  0.000   80.3    6.0   74.3    0.0
 1993 251    60  19.70  16.90   4.60  3.863  1.693  0.795  0.897  0.000   82.0    6.8   75.2    0.0
 1993 252    61  20.00  19.90   3.90  4.064  1.652  0.853  0.798  0.000   83.7    7.7   76.0    0.0
 1993 253    62  20.10  21.50   4.90  4.214  1.622  0.896  0.726  0.000   85.3    8.6   76.7    0.0
 1993 254    63  17.10  15.00   5.20  3.270  1.405  0.735  0.671  0.000   86.7    9.3   77.4    0.0
 1993 255    64  19.80  19.10   4.00  3.970  1.538  0.912  0.626  0.000   88.2   10.2   78.0    0.0
 1993 256    65   7.30  18.00   5.60  1.463  0.929  0.339  0.590  0.000   89.2   10.5   78.6    0.0
 1993 257    66  13.10  18.20   9.90  2.736  1.218  0.659  0.559  0.000   90.4   11.2   79.2    0.0
 1993 258    67  15.70  22.40   9.20  3.438  1.413  0.881  0.532  0.000   91.8   12.1   79.7    0.0
 1993 259    68  20.70  25.60   7.80  4.652  1.798  1.289  0.509  0.000   93.6   13.4   80.2    0.0
 1993 260    69  21.10  23.00  10.90  4.689  1.926  1.437  0.489  0.000   95.5   14.8   80.7    0.0
 1993 261    70  11.60  24.00  12.20  2.628  1.352  0.881  0.471  0.000   96.9   15.7   81.2    0.0
 1993 262    71  15.70  23.00  10.90  3.458  1.722  1.267  0.455  0.000   98.6   17.0   81.6    0.0
 1993 263    72  16.50  19.10   8.80  3.374  3.374  1.332  2.042  0.000  102.0   18.3   83.7    0.0
 1993 264    73   8.70  11.40   4.10  1.513  1.176  0.620  0.556  0.000  103.1   18.9   84.2    0.0
 1993 265    74   6.50  12.20   4.50  1.151  0.990  0.460  0.530  0.000  104.1   19.4   84.8    0.0
 1993 266    75   6.50  14.90  10.00  1.268  1.008  0.500  0.507  0.000  105.1   19.9   85.3    0.0
 1993 267    76   7.00  17.00  12.00  1.430  1.068  0.581  0.487  0.000  106.2   20.5   85.8    0.0
 1993 268    77   7.80  19.00  12.10  1.633  1.163  0.693  0.469  0.000  107.4   21.1   86.2    0.0
 1993 269    78   9.00  14.90  10.60  1.752  1.752  0.780  0.971  0.000  109.1   21.9   87.2    0.0
 1993 270    79  18.40  21.50  10.30  3.900  3.900  1.786  2.114  0.000  113.0   23.7   89.3    0.0
 1993 271    80  21.60  22.10   8.50  4.528  4.528  2.171  2.357  0.000  117.6   25.9   91.7    0.0
 1993 272    81  15.50  19.80   7.80  3.122  3.108  1.558  1.550  0.000  120.7   27.4   93.2    0.0
 1993 273    82   7.70  20.60  14.30  1.655  1.655  0.852  0.804  0.000  122.3   28.3   94.0    0.0
 1993 274    83   9.30  23.30  15.60  2.081  2.081  1.132  0.949  0.000  124.4   29.4   95.0    0.0
 1993 275    84   6.90  18.60  16.00  1.453  1.453  0.839  0.614  0.000  125.9   30.3   95.6    0.0
 1993 276    85  11.30  19.80  13.40  2.355  2.355  1.419  0.936  0.000  128.2   31.7   96.5    0.0
 1993 277    86   7.30  19.40  12.80  1.500  1.500  0.937  0.564  0.000  129.7   32.6   97.1    0.0
 1993 278    87  22.90  17.40   9.50  4.435  4.435  2.855  1.580  0.000  134.1   35.5   98.7    0.0
 1993 279    88  24.10  20.10   5.30  4.652  4.652  3.051  1.601  0.000  138.8   38.5  100.3    0.0
 1993 280    89  24.80  23.70   7.20  5.103  4.950  3.400  1.550  0.000  143.7   41.9  101.8    0.0
 1993 281    90  19.60  27.50  12.30  4.401  4.401  3.001  1.399  0.000  148.1   44.9  103.2    0.0
 1993 282    91  18.00  29.20  13.10  4.134  4.134  2.919  1.215  0.000  152.3   47.8  104.4    0.0
 1993 283    92  24.70  31.80  17.30  6.006  6.006  4.388  1.619  0.000  158.3   52.2  106.1    0.0
 1993 284    93  23.70  33.30  17.60  5.846  5.643  4.434  1.209  0.000  163.9   56.7  107.3    0.0
 1993 285    94   7.40  23.60  17.20  1.624  1.624  1.275  0.349  0.000  165.6   57.9  107.6    0.0
 1993 286    95   7.40  18.30  16.80  1.513  1.513  1.206  0.307  0.000  167.1   59.2  107.9    0.0
 1993 287    96   9.00  22.10  16.40  1.921  1.921  1.552  0.369  0.000  169.0   60.7  108.3    0.0
 1993 288    97  18.60  24.90  13.90  4.018  4.018  3.295  0.722  0.000  173.0   64.0  109.0    0.0
 1993 289    98  25.30  31.60  14.90  5.943  5.943  4.945  0.998  0.000  178.9   68.9  110.0    0.0
 1993 290    99   9.20  25.70  13.30  1.989  1.989  1.687  0.302  0.000  180.9   70.6  110.3    0.0
 1993 291   100  18.70  21.10   8.70  3.664  3.664  3.139  0.525  0.000  184.6   73.8  110.8    0.0
 1993 292   101  18.30  22.60  12.30  3.769  3.769  3.249  0.520  0.000  188.4   77.0  111.4    0.0
 1993 293   102  16.80  24.50  16.60  3.665  3.665  3.185  0.480  0.000  192.0   80.2  111.8    0.0
 1993 294   103  18.20  26.80  17.30  4.097  4.097  3.593  0.504  0.000  196.1   83.8  112.3    0.0
 1993 295   104   7.80  18.50  12.60  1.522  1.522  1.350  0.172  0.000  197.7   85.1  112.5    0.0
 1993 296   105   7.80  16.40  12.10  1.472  1.472  1.312  0.160  0.000  199.1   86.5  112.7    0.0
 1993 297   106   8.20  17.30  11.60  1.559  1.559  1.394  0.165  0.000  200.7   87.9  112.8    0.0
 1993 298   107  12.90  17.90  10.80  2.453  2.453  2.202  0.252  0.000  203.1   90.1  113.1    0.0
 1993 299   108  27.40  20.00   6.30  5.138  5.138  4.677  0.461  0.000  208.3   94.7  113.6    0.0
 1993 300   109  24.90  22.00   9.00  4.909  4.909  4.507  0.402  0.000  213.2   99.2  114.0    0.0
 1993 301   110  28.20  28.00  11.50  6.112  6.112  5.650  0.462  0.000  219.3  104.9  114.4    0.0
 1993 302   111  15.30  28.40  17.40  3.484  3.484  3.244  0.241  0.000  222.8  108.1  114.7    0.0
 1993 303   112   8.10  22.30  17.50  1.718  1.718  1.606  0.112  0.000  224.5  109.7  114.8    0.0
 1993 304   113   8.10  20.70  15.10  1.651  1.651  1.545  0.105  0.000  226.2  111.3  114.9    0.0
 1993 305   114  25.40  19.10   9.80  4.840  4.840  4.535  0.304  0.000  231.0  115.8  115.2    0.0
 1993 306   115  28.60  24.90   9.40  5.857  5.857  5.492  0.364  0.000  236.8  121.3  115.5    0.0
 1993 307   116  28.20  28.70  12.90  6.219  6.219  5.841  0.378  0.000  243.1  127.1  115.9    0.0
 1993 308   117  28.70  29.00  14.90  6.448  6.448  6.069  0.379  0.000  249.5  133.2  116.3    0.0
 1993 309   118   8.90  21.20  13.80  1.804  1.804  1.701  0.102  0.000  251.3  134.9  116.4    0.0
 1993 310   119  12.90  16.60  10.70  2.393  2.393  2.258  0.135  0.000  253.7  137.2  116.5    0.0
 1993 311   120  28.50  22.70   8.50  5.627  5.627  5.307  0.319  0.000  259.3  142.5  116.9    0.0
 1993 312   121  29.10  27.70   8.60  6.124  6.124  5.777  0.347  0.000  265.5  148.3  117.2    0.0
 1993 313   122  28.70  30.00  12.90  6.422  6.422  6.060  0.361  0.000  271.9  154.3  117.6    0.0
 1993 314   123  22.60  32.30  16.20  5.318  5.318  5.024  0.294  0.000  277.2  159.3  117.9    0.0
 1993 315   124   9.80  28.20  20.20  2.269  2.269  2.147  0.122  0.000  279.5  161.5  118.0    0.0
 1993 316   125  18.70  26.00  17.50  4.138  4.138  3.915  0.223  0.000  283.6  165.4  118.2    0.0
 1993 317   126   8.50  23.70  15.30  1.798  1.798  1.703  0.095  0.000  285.4  167.1  118.3    0.0
 1993 318   127   8.50  19.10  14.90  1.692  1.692  1.602  0.090  0.000  287.1  168.7  118.4    0.0
 1993 319   128   8.60  21.10  15.90  1.771  1.771  1.676  0.094  0.000  288.9  170.4  118.5    0.0
 1993 320   129  10.60  21.80  17.60  2.233  2.233  2.111  0.122  0.000  291.1  172.5  118.6    0.0
 1993 321   130  10.60  20.40  13.50  2.121  2.121  2.002  0.118  0.000  293.2  174.5  118.7    0.0
 1993 322   131  18.70  20.80  12.20  3.719  3.719  3.509  0.210  0.000  296.9  178.0  118.9    0.0
 1993 323   132  29.60  25.10  11.00  6.154  6.154  5.801  0.353  0.000  303.1  183.8  119.3    0.0
 1993 324   133  30.00  27.20  11.70  6.436  6.436  6.063  0.373  0.000  309.5  189.9  119.7    0.0
 1993 325   134  29.90  30.00  13.50  6.723  6.723  6.328  0.395  0.000  316.3  196.2  120.1    0.0
 1993 326   135  28.60  27.40  15.70  6.348  6.348  5.971  0.376  0.000  322.6  202.2  120.4    0.0
 1993 327   136  20.70  28.20  13.80  4.570  4.570  4.296  0.274  0.000  327.2  206.5  120.7    0.0
 1993 328   137  16.20  27.20  19.00  3.680  3.680  3.457  0.222  0.000  330.9  209.9  120.9    0.0
 1993 329   138   9.20  25.20  18.30  2.031  2.031  1.908  0.124  0.000  332.9  211.8  121.0    0.0
 1993 330   139  16.40  21.20  16.40  3.399  3.399  3.190  0.208  0.000  336.3  215.0  121.3    0.0
 1993 331   140  12.80  20.50  14.80  2.595  2.595  2.434  0.160  0.000  338.9  217.5  121.4    0.0
 1993 332   141  23.50  22.20  13.00  4.794  4.794  4.496  0.298  0.000  343.7  222.0  121.7    0.0
 1993 333   142  27.20  26.10  10.30  5.696  5.696  5.339  0.357  0.000  349.4  227.3  122.1    0.0
 1993 334   143   9.80  18.00  14.60  1.920  1.920  1.799  0.121  0.000  351.3  229.1  122.2    0.0
 1993 335   144  29.40  21.90   9.30  5.789  5.789  5.421  0.368  0.000  357.1  234.5  122.6    0.0
 1993 336   145  31.10  28.30  10.40  6.696  6.696  6.269  0.426  0.000  363.8  240.8  123.0    0.0
 1993 337   146  16.80  28.50  19.10  3.877  3.877  3.630  0.247  0.000  367.7  244.4  123.2    0.0
 1993 338   147   9.00  24.80  16.90  1.957  1.957  1.832  0.125  0.000  369.6  246.2  123.4    0.0
 1993 339   148  27.20  21.00  13.50  5.489  5.489  5.139  0.350  0.000  375.1  251.4  123.7    0.0
 1993 340   149  10.90  24.40  13.50  2.295  2.295  2.149  0.146  0.000  377.4  253.5  123.9    0.0
 1993 341   150  20.10  28.00  19.00  4.609  4.609  4.315  0.294  0.000  382.0  257.9  124.2    0.0
 1993 342   151  21.40  28.50  17.80  4.890  4.890  4.578  0.312  0.000  386.9  262.4  124.5    0.0
 1993 343   152  30.00  29.90  16.00  6.871  6.871  6.433  0.439  0.000  393.8  268.9  124.9    0.0
 1993 344   153  26.90  28.00  18.10  6.126  6.126  5.735  0.391  0.000  399.9  274.6  125.3    0.0
 1993 345   154  30.40  30.30  15.50  6.968  6.968  6.523  0.445  0.000  406.9  281.1  125.7    0.0
 1993 346   155  28.20  32.20  19.90  6.815  6.815  6.380  0.435  0.000  413.7  287.5  126.2    0.0
 1993 347   156   9.40  25.40  20.00  2.109  2.109  1.974  0.135  0.000  415.8  289.5  126.3    0.0
 1993 348   157  22.00  27.20  20.30  5.048  5.048  4.725  0.323  0.000  420.8  294.2  126.6    0.0
 1993 349   158   9.10  21.50  15.80  1.884  1.884  1.763  0.121  0.000  422.7  296.0  126.8    0.0
 1993 350   159  28.10  23.10  14.90  5.891  5.891  5.510  0.382  0.000  428.6  301.5  127.1    0.0
 1993 351   160  31.30  28.30  12.90  6.875  6.875  6.425  0.450  0.000  435.5  307.9  127.6    0.0
 1993 352   161  26.60  29.10  16.40  6.058  6.058  5.657  0.401  0.000  441.5  313.6  128.0    0.0
 1993 353   162  29.30  29.90  16.50  6.739  6.739  6.287  0.452  0.000  448.3  319.8  128.4    0.0
 1993 354   163  27.60  21.40  13.60  5.606  5.606  5.225  0.382  0.000  453.9  325.1  128.8    0.0
 1993 355   164  31.80  23.30   8.40  6.332  6.332  5.893  0.440  0.000  460.2  331.0  129.3    0.0
 1993 356   165  29.40  29.30  12.90  6.538  6.538  6.075  0.463  0.000  466.8  337.0  129.7    0.0
 1993 357   166  29.30  32.50  16.50  6.940  6.940  6.439  0.501  0.000  473.7  343.5  130.2    0.0
 1993 358   167  30.60  31.80  18.50  7.299  7.299  6.761  0.539  0.000  481.0  350.2  130.8    0.0
 1993 359   168  20.10  32.40  21.00  4.913  4.913  4.542  0.371  0.000  485.9  354.8  131.1    0.0
 1993 360   169  23.00  29.20  20.60  5.419  5.419  4.990  0.429  0.000  491.3  359.8  131.6    0.0
 1993 361   170   9.10  23.20  19.30  1.984  1.984  1.816  0.168  0.000  493.3  361.6  131.7    0.0
 1993 362   171  23.00  26.50  15.70  5.072  5.072  4.617  0.455  0.000  498.4  366.2  132.2    0.0
 1993 363   172  22.50  21.30  14.60  4.620  4.620  4.181  0.440  0.000  503.0  370.4  132.6    0.0
 1993 364   173  31.30  25.40  11.00  6.569  6.569  5.914  0.655  0.000  509.6  376.3  133.3    0.0
 1993 365   174  31.30  27.90  13.10  6.890  6.890  6.168  0.722  0.000  516.5  382.5  134.0    0.0
 1994 001   175  31.50  28.20  15.80  7.112  7.112  6.319  0.793  0.000  523.6  388.8  134.8    0.0
 1994 002   176  30.40  24.20  12.90  6.403  6.403  5.634  0.769  0.000  530.0  394.4  135.6    0.0
 1994 003   177  31.50  24.90  10.40  6.563  6.563  5.727  0.836  0.000  536.5  400.1  136.4    0.0
 1994 004   178  30.10  27.50  12.70  6.601  6.601  5.713  0.888  0.000  543.1  405.9  137.3    0.0
 1994 005   179  29.60  30.00  15.20  6.822  6.605  5.836  0.769  0.000  549.7  411.7  138.1    0.0
 1994 006   180  12.50  31.30  18.80  3.007  3.007  2.532  0.475  0.000  552.8  414.2  138.5    0.0
 1994 007   181  18.50  30.30  18.80  4.414  4.414  3.635  0.779  0.000  557.2  417.9  139.3    0.0
 1994 008   182  19.30  25.50  18.50  4.365  4.365  3.503  0.862  0.000  561.5  421.4  140.2    0.0
 1994 009   183  30.40  23.60  16.40  6.633  6.633  5.186  1.447  0.000  568.2  426.5  141.6    0.0
 1994 010   184  31.30  24.20  11.20  6.612  6.612  5.036  1.576  0.000  574.8  431.6  143.2    0.0
 1994 011   185  31.30  28.20  11.50  6.959  6.959  5.300  1.659  0.000  581.7  436.9  144.9    0.0
 1994 012   186  28.90  29.20  14.40  6.650  6.543  5.065  1.478  0.000  588.3  441.9  146.3    0.0
 1994 013   187  26.50  28.10  17.00  6.142  6.142  4.678  1.464  0.000  594.4  446.6  147.8    0.0

*DSSAT Cropping System Model Ver. 4.0.2.000               Aug 03, 2016; 13:27:13

*RUN   5        : UYMZ                    
 MODEL          : MZCER040 - Maize           
 EXPERIMENT     : UYMZ0115 MZ    late to create DSS                             
 TREATMENT  1   : UYMZ                    

@YEAR DOY   DAS   SRAA   TMXA   TMNA   EOAA   ETAA   EPAA   ESAA   EFAD   ETAC   EPAC   ESAC   EFAC
 1994 191     0  12.20  10.90  -1.40  2.106  1.938  0.000  1.938  0.000    1.9    0.0    1.9    0.0
 1994 192     1  11.90  14.10  -0.30  2.193  2.193  0.000  2.193  0.000    4.1    0.0    4.1    0.0
 1994 193     2  13.30  18.80   4.80  2.770  1.825  0.000  1.825  0.000    6.0    0.0    6.0    0.0
 1994 194     3   7.30  21.00   9.80  1.640  1.640  0.000  1.640  0.000    7.6    0.0    7.6    0.0
 1994 195     4  13.00  23.10  13.00  3.083  3.083  0.000  3.083  0.000   10.7    0.0   10.7    0.0
 1994 196     5  11.90  26.00  10.80  2.873  2.234  0.000  2.234  0.000   12.9    0.0   12.9    0.0
 1994 197     6  13.40  27.20  13.20  3.346  2.671  0.000  2.671  0.000   15.6    0.0   15.6    0.0
 1994 198     7  10.50  23.90  14.80  2.552  1.413  0.000  1.413  0.000   17.0    0.0   17.0    0.0
 1994 199     8   5.50  22.30  10.30  1.262  1.096  0.000  1.096  0.000   18.1    0.0   18.1    0.0
 1994 200     9   6.30  27.40  21.10  1.675  0.928  0.000  0.928  0.000   19.0    0.0   19.0    0.0
 1994 201    10   7.10  26.50  14.80  1.780  0.825  0.005  0.819  0.000   19.8    0.0   19.8    0.0
 1994 202    11   6.30  26.40  11.30  1.533  0.750  0.008  0.742  0.000   20.6    0.0   20.6    0.0
 1994 203    12  11.00  11.20   3.00  2.002  2.002  0.014  1.988  0.000   22.6    0.0   22.6    0.0
 1994 204    13  13.00  10.60  -2.10  2.212  2.212  0.015  2.198  0.000   24.8    0.0   24.8    0.0
 1994 205    14  11.60  17.20   1.60  2.287  2.100  0.005  2.095  0.000   26.9    0.0   26.9    0.0
 1994 206    15   7.80  17.90   6.40  1.628  1.066  0.004  1.062  0.000   28.0    0.1   27.9    0.0
 1994 207    16  14.40  17.70   1.60  2.860  2.766  0.009  2.757  0.000   30.7    0.1   30.7    0.0
 1994 208    17   4.20  13.40   9.50  0.846  0.846  0.002  0.844  0.000   31.6    0.1   31.5    0.0
 1994 209    18   4.20  13.50  12.40  0.871  0.871  0.003  0.868  0.000   32.5    0.1   32.4    0.0
 1994 210    19   4.20  15.20  13.40  0.901  0.901  0.004  0.896  0.000   33.4    0.1   33.3    0.0
 1994 211    20   4.20  17.90  14.00  0.939  0.939  0.006  0.933  0.000   34.3    0.1   34.2    0.0
 1994 212    21   5.90  21.20  16.50  1.405  1.405  0.010  1.396  0.000   35.7    0.1   35.6    0.0
 1994 213    22   4.30  18.60   8.40  0.922  0.922  0.012  0.910  0.000   36.6    0.1   36.5    0.0
 1994 214    23  14.60  16.00   7.20  2.981  2.981  0.048  2.933  0.000   39.6    0.1   39.5    0.0
 1994 215    24  11.30  11.60   3.70  2.082  2.082  0.039  2.043  0.000   41.7    0.2   41.5    0.0
 1994 216    25  14.90  15.80   1.50  2.866  2.150  0.052  2.098  0.000   43.8    0.2   43.6    0.0
 1994 217    26  15.50  20.20   4.90  3.287  2.639  0.052  2.587  0.000   46.5    0.3   46.2    0.0
 1994 218    27  15.10  21.20   6.50  3.293  1.471  0.067  1.404  0.000   47.9    0.4   47.6    0.0
 1994 219    28  12.20  20.40   5.80  2.612  1.162  0.070  1.092  0.000   49.1    0.4   48.7    0.0
 1994 220    29   5.50  19.10   9.90  1.200  0.965  0.039  0.925  0.000   50.1    0.5   49.6    0.0
 1994 221    30   4.50  14.00   8.70  0.902  0.902  0.036  0.867  0.000   51.0    0.5   50.5    0.0
 1994 222    31  16.20  15.00   4.20  3.152  2.814  0.137  2.678  0.000   53.8    0.6   53.2    0.0
 1994 223    32  16.30  20.70   6.50  3.517  1.570  0.156  1.414  0.000   55.4    0.8   54.6    0.0
 1994 224    33  16.10  23.40   7.40  3.626  1.284  0.188  1.096  0.000   56.6    1.0   55.7    0.0
[...]
 1995 355   164  24.20  36.30  22.10  6.637  6.637  5.661  0.976  0.000  536.9  383.0  153.9    0.0
 1995 356   165  18.80  29.20  20.00  4.456  4.456  3.775  0.681  0.000  541.4  386.8  154.6    0.0
 1995 357   166  10.20  22.70  19.50  2.238  2.238  1.882  0.356  0.000  543.6  388.6  155.0    0.0
 1995 358   167   9.30  23.40  20.00  2.067  2.067  1.724  0.343  0.000  545.7  390.4  155.3    0.0
 1995 359   168  10.90  25.50  18.10  2.449  2.449  2.025  0.425  0.000  548.1  392.4  155.7    0.0
 1995 360   169  31.90  27.60  16.00  7.235  7.235  5.923  1.311  0.000  555.4  398.3  157.1    0.0
 1995 361   170  31.10  27.00  14.60  6.937  6.937  5.622  1.315  0.000  562.3  403.9  158.4    0.0
 1995 362   171  31.40  27.90  14.80  7.098  7.098  5.690  1.408  0.000  569.4  409.6  159.8    0.0
 1995 363   172  30.70  29.00  15.10  7.054  6.947  5.588  1.359  0.000  576.4  415.2  161.1    0.0
 1995 364   173  31.30  28.90  14.90  7.184  7.184  5.615  1.568  0.000  583.5  420.8  162.7    0.0
 1995 365   174  29.60  28.00  15.00  6.740  6.740  5.192  1.548  0.000  590.3  426.0  164.3    0.0
 1996 001   175  31.30  29.40  14.00  7.200  6.978  5.460  1.518  0.000  597.3  431.5  165.8    0.0
 1996 002   176  31.30  33.00  17.60  7.710  6.891  5.750  1.142  0.000  604.1  437.2  166.9    0.0
 1996 003   177  30.40  35.00  20.90  7.842  6.699  5.744  0.955  0.000  610.8  443.0  167.9    0.0
 1996 004   178  15.90  28.20  21.90  3.863  3.863  2.693  1.170  0.000  614.7  445.7  169.0    0.0
 1996 005   179  29.60  28.70  19.20  7.089  6.606  4.942  1.664  0.000  621.3  450.6  170.7    0.0
 1996 006   180  31.50  26.00  14.60  7.060  7.060  4.922  2.138  0.000  628.4  455.5  172.8    0.0

*DSSAT Cropping System Model Ver. 4.0.2.000               Aug 03, 2016; 13:27:13

*RUN   7        : UYMZ                    
 MODEL          : MZCER040 - Maize           
 EXPERIMENT     : UYMZ0115 MZ    late to create DSS                             
 TREATMENT  1   : UYMZ                    

@YEAR DOY   DAS   SRAA   TMXA   TMNA   EOAA   ETAA   EPAA   ESAA   EFAD   ETAC   EPAC   ESAC   EFAC
 1996 191     0   3.80  14.00   8.90  0.768  0.768  0.000  0.768  0.000    0.8    0.0    0.8    0.0
 1996 192     1   4.30  10.30   7.80  0.813  0.813  0.000  0.813  0.000    1.6    0.0    1.6    0.0
 1996 193     2   9.10  13.50   5.60  1.767  1.278  0.000  1.278  0.000    2.9    0.0    2.9    0.0
 1996 194     3  13.40  16.80   4.80  2.711  2.711  0.000  2.711  0.000    5.6    0.0    5.6    0.0
 1996 195     4   7.40  17.60   3.30  1.493  1.493  0.000  1.493  0.000    7.1    0.0    7.1    0.0
 1996 196     5   8.60  10.70   4.20  1.575  1.575  0.000  1.575  0.000    8.6    0.0    8.6    0.0
 1996 197     6  12.50  10.00  -1.00  2.134  1.369  0.000  1.369  0.000   10.0    0.0   10.0    0.0
 1996 198     7  12.50  13.30  -2.20  2.227  2.227  0.000  2.227  0.000   12.2    0.0   12.2    0.0
 1996 199     8  11.60  17.00   4.50  2.347  1.487  0.000  1.487  0.000   13.7    0.0   13.7    0.0
 1996 200     9   8.80  19.90   5.30  1.870  1.129  0.000  1.129  0.000   14.8    0.0   14.8    0.0
 1996 201    10  13.20  19.90   7.90  2.873  0.947  0.000  0.947  0.000   15.8    0.0   15.8    0.0
 1996 202    11  13.10  15.80   3.90  2.588  0.833  0.000  0.833  0.000   16.6    0.0   16.6    0.0
 1996 203    12  12.40   8.70   2.10  2.145  0.752  0.000  0.752  0.000   17.4    0.0   17.4    0.0
 1996 204    13  12.80  12.90  -1.70  2.278  0.691  0.000  0.691  0.000   18.1    0.0   18.1    0.0
 1996 205    14  11.90  18.00   2.60  2.398  0.642  0.000  0.642  0.000   18.7    0.0   18.7    0.0
 1996 206    15   8.40  17.40   3.30  1.690  0.603  0.000  0.603  0.000   19.3    0.0   19.3    0.0
 1996 207    16   9.10  12.30   5.00  1.724  0.570  0.000  0.570  0.000   19.9    0.0   19.9    0.0
 1996 208    17  12.10  11.40   1.30  2.171  0.542  0.000  0.542  0.000   20.4    0.0   20.4    0.0
 1996 209    18  11.20  18.50  -1.00  2.194  0.518  0.000  0.518  0.000   20.9    0.0   20.9    0.0
 1996 210    19  14.50  21.00   7.00  3.177  0.496  0.000  0.496  0.000   21.4    0.0   21.4    0.0
 1996 211    20  14.90  20.00   3.50  3.118  0.478  0.000  0.478  0.000   21.9    0.0   21.9    0.0
 1996 212    21  14.60  20.00   4.50  3.084  0.461  0.000  0.461  0.000   22.4    0.0   22.4    0.0
 1996 213    22  15.40  22.80   4.20  3.371  0.446  0.000  0.446  0.000   22.8    0.0   22.8    0.0
 1996 214    23  15.20  24.90   7.20  3.512  0.432  0.000  0.432  0.000   23.3    0.0   23.3    0.0
 1996 215    24  14.20  25.70   9.60  3.382  0.419  0.000  0.419  0.000   23.7    0.0   23.7    0.0
 1996 216    25  13.50  28.00   8.30  3.272  0.414  0.006  0.408  0.000   24.1    0.0   24.1    0.0
 1996 217    26  14.50  28.10  10.60  3.583  0.410  0.013  0.397  0.000   24.5    0.0   24.5    0.0
 1996 218    27  10.60  27.30  11.00  2.602  1.295  0.015  1.280  0.000   25.8    0.0   25.8    0.0
 1996 219    28   4.50  14.60  11.40  0.939  0.939  0.008  0.931  0.000   26.7    0.0   26.7    0.0
 1996 220    29   4.50  11.20   8.60  0.868  0.649  0.008  0.641  0.000   27.4    0.0   27.3    0.0
 1996 221    30   4.50  15.20  10.90  0.942  0.942  0.009  0.933  0.000   28.3    0.1   28.3    0.0
 1996 222    31   8.00  15.60   8.10  1.640  1.640  0.017  1.622  0.000   30.0    0.1   29.9    0.0
 1996 223    32  16.50  18.40   3.20  3.359  3.359  0.038  3.321  0.000   33.3    0.1   33.2    0.0
 1996 224    33  15.80  18.30   2.00  3.174  1.968  0.036  1.933  0.000   35.3    0.2   35.1    0.0
 1996 225    34  15.60  21.10   2.70  3.285  2.164  0.033  2.131  0.000   37.5    0.2   37.3    0.0
 1996 226    35   8.80  24.30  13.10  2.117  1.351  0.021  1.330  0.000   38.8    0.2   38.6    0.0
 1996 227    36  14.50  22.60  10.00  3.322  1.118  0.062  1.056  0.000   39.9    0.3   39.7    0.0
 1996 228    37  16.60  17.00   6.40  3.408  0.993  0.089  0.904  0.000   40.9    0.4   40.6    0.0
 1996 229    38  16.70  21.60   3.10  3.544  0.909  0.106  0.803  0.000   41.8    0.5   41.4    0.0
 1996 230    39  17.40  26.10   5.10  3.991  0.858  0.129  0.729  0.000   42.7    0.6   42.1    0.0
 1996 231    40  17.40  27.20   9.00  4.175  0.844  0.171  0.673  0.000   43.5    0.8   42.8    0.0
 1996 232    41  17.00  29.40  11.80  4.274  0.857  0.229  0.628  0.000   44.4    1.0   43.4    0.0
 1996 233    42  10.00  25.40  14.70  2.448  2.448  0.172  2.276  0.000   46.8    1.2   45.7    0.0
 1996 234    43   9.80  24.20  11.60  2.299  0.832  0.198  0.634  0.000   47.7    1.4   46.3    0.0
 1996 235    44  14.80  27.00  12.70  3.618  0.958  0.362  0.596  0.000   48.6    1.7   46.9    0.0
 1996 236    45  17.50  30.20  15.00  4.507  1.099  0.535  0.564  0.000   49.7    2.3   47.5    0.0
 1996 237    46  17.60  31.90  17.20  4.677  1.210  0.673  0.537  0.000   50.9    2.9   48.0    0.0
 1996 238    47   6.10  22.60   8.20  1.344  1.344  0.235  1.109  0.000   52.3    3.2   49.1    0.0
 1996 239    48   5.40  13.00   7.90  1.035  0.993  0.195  0.798  0.000   53.3    3.4   49.9    0.0
 1996 240    49   8.20  12.80   3.50  1.497  1.015  0.289  0.726  0.000   54.3    3.6   50.6    0.0
 1996 241    50  18.40  18.00   1.20  3.558  1.324  0.654  0.670  0.000   55.6    4.3   51.3    0.0
 1996 242    51  18.80  18.80   3.50  3.781  1.192  0.566  0.626  0.000   56.8    4.9   51.9    0.0
 1996 243    52   5.50  16.70   3.10  1.069  1.069  0.159  0.909  0.000   57.9    5.0   52.8    0.0
 1996 244    53   6.40  15.60  10.90  1.321  0.962  0.187  0.776  0.000   58.8    5.2   53.6    0.0
 1996 245    54  19.00  20.80   5.40  3.999  1.319  0.610  0.709  0.000   60.2    5.8   54.3    0.0
 1996 246    55  11.60  12.50   5.70  2.165  2.165  0.359  1.807  0.000   62.3    6.2   56.1    0.0
 1996 247    56  13.60  14.70   4.10  2.582  1.576  0.435  1.141  0.000   63.9    6.6   57.3    0.0
 1996 248    57  16.70  15.60   2.00  3.147  1.480  0.526  0.954  0.000   65.4    7.1   58.2    0.0
 1996 249    58  19.60  16.00   3.90  3.800  1.395  0.557  0.837  0.000   66.8    7.7   59.1    0.0
 1996 250    59  19.10  14.00   0.50  3.467  1.266  0.510  0.755  0.000   68.0    8.2   59.8    0.0
 1996 251    60  17.60  20.80   1.10  3.583  3.583  0.386  3.196  0.000   71.6    8.6   63.0    0.0
 1996 252    61  12.50  14.60   6.00  2.444  1.515  0.224  1.291  0.000   73.1    8.8   64.3    0.0
 1996 253    62  18.50  14.20   1.40  3.426  1.199  0.337  0.862  0.000   74.3    9.2   65.2    0.0
 1996 254    63  19.50  18.20   1.90  3.867  1.091  0.318  0.773  0.000   75.4    9.5   65.9    0.0
 1996 255    64  21.00  19.50   3.60  4.317  1.038  0.331  0.707  0.000   76.5    9.8   66.7    0.0
 1996 256    65  20.60  23.80   6.20  4.593  1.048  0.393  0.655  0.000   77.5   10.2   67.3    0.0
 1996 257    66  20.70  25.10   8.60  4.773  1.139  0.525  0.614  0.000   78.6   10.7   67.9    0.0
 1996 258    67  18.10  28.10  13.20  4.469  4.469  0.649  3.820  0.000   83.1   11.4   71.7    0.0
 1996 259    68   6.20  20.20  13.90  1.388  1.388  0.261  1.127  0.000   84.5   11.6   72.9    0.0
 1996 260    69   8.80  15.30   7.50  1.734  1.734  0.354  1.380  0.000   86.2   12.0   74.2    0.0
 1996 261    70  21.80  17.80   3.70  4.286  4.286  0.928  3.358  0.000   90.5   12.9   77.6    0.0
 1996 262    71  21.20  23.70   6.00  4.620  3.226  1.001  2.225  0.000   93.8   13.9   79.8    0.0
 1996 263    72  12.10  27.00  15.10  2.949  2.949  0.723  2.226  0.000   96.7   14.6   82.1    0.0
 1996 264    73   6.60  21.40  16.40  1.509  1.509  0.440  1.068  0.000   98.2   15.1   83.1    0.0
 1996 265    74   6.50  17.50  16.00  1.403  1.403  0.448  0.955  0.000   99.6   15.5   84.1    0.0
 1996 266    75   6.50  17.30  12.90  1.356  1.356  0.471  0.885  0.000  101.0   16.0   85.0    0.0
 1996 267    76  14.70  18.50  10.20  3.031  3.031  1.126  1.905  0.000  104.0   17.1   86.9    0.0
 1996 268    77   8.10  15.20   8.20  1.560  1.560  0.609  0.951  0.000  105.6   17.7   87.8    0.0
 1996 269    78   6.70  12.70  10.30  1.268  1.268  0.510  0.758  0.000  106.8   18.2   88.6    0.0
 1996 270    79   6.70  15.00  10.30  1.309  1.309  0.539  0.770  0.000  108.1   18.8   89.3    0.0
 1996 271    80   6.80  18.50  12.20  1.415  1.415  0.605  0.811  0.000  109.6   19.4   90.2    0.0
 1996 272    81  10.60  20.00  13.90  2.276  2.276  1.023  1.253  0.000  111.8   20.4   91.4    0.0
 1996 273    82  15.00  21.20  13.70  3.250  3.250  1.559  1.691  0.000  115.1   22.0   93.1    0.0
 1996 274    83  15.20  21.60  10.40  3.203  3.167  1.638  1.529  0.000  118.2   23.6   94.6    0.0
 1996 275    84   7.70  19.90  14.60  1.639  1.639  0.880  0.760  0.000  119.9   24.5   95.4    0.0
 1996 276    85   7.00  19.00  16.30  1.489  1.489  0.840  0.649  0.000  121.4   25.3   96.0    0.0
 1996 277    86  16.80  21.90  14.50  3.637  3.637  2.140  1.497  0.000  125.0   27.5   97.5    0.0
 1996 278    87  19.20  27.30  14.30  4.413  4.413  2.715  1.697  0.000  129.4   30.2   99.2    0.0
 1996 279    88  16.20  21.00  12.10  3.369  3.369  2.170  1.199  0.000  132.8   32.4  100.4    0.0
 1996 280    89  24.80  22.70   9.00  5.120  5.120  3.390  1.729  0.000  137.9   35.7  102.2    0.0
 1996 281    90  25.10  24.10  10.90  5.348  5.348  3.629  1.718  0.000  143.3   39.4  103.9    0.0
 1996 282    91  21.70  26.20  12.70  4.801  4.762  3.351  1.411  0.000  148.0   42.7  105.3    0.0
 1996 283    92   8.20  22.80  14.30  1.757  1.757  1.265  0.492  0.000  149.8   44.0  105.8    0.0
 1996 284    93  14.50  23.80  16.40  3.192  3.192  2.351  0.842  0.000  153.0   46.3  106.6    0.0
 1996 285    94  16.70  25.90  14.40  3.700  3.583  2.799  0.784  0.000  156.6   49.1  107.4    0.0
 1996 286    95  23.40  23.00  13.90  4.971  4.971  3.853  1.118  0.000  161.5   53.0  108.5    0.0
 1996 287    96  10.60  20.00  12.80  2.143  2.143  1.692  0.450  0.000  163.7   54.7  109.0    0.0
 1996 288    97  22.80  22.20  12.10  4.705  4.705  3.768  0.937  0.000  168.4   58.5  109.9    0.0
 1996 289    98  25.50  24.10  10.90  5.328  5.328  4.327  1.001  0.000  173.7   62.8  110.9    0.0
 1996 290    99  24.10  28.00  12.90  5.357  5.357  4.410  0.947  0.000  179.1   67.2  111.9    0.0
 1996 291   100  23.10  30.00  15.90  5.366  5.366  4.491  0.875  0.000  184.4   71.7  112.7    0.0
 1996 292   101  13.20  22.00  15.20  2.768  2.768  2.359  0.409  0.000  187.2   74.0  113.1    0.0
 1996 293   102  21.20  26.00  12.20  4.551  4.333  3.921  0.412  0.000  191.5   78.0  113.6    0.0
 1996 294   103  25.50  18.60   6.90  4.742  4.742  4.131  0.611  0.000  196.3   82.1  114.2    0.0
 1996 295   104  19.90  17.80   5.00  3.584  3.584  3.188  0.396  0.000  199.9   85.3  114.6    0.0
 1996 296   105   7.80  14.00   9.90  1.393  1.393  1.247  0.146  0.000  201.2   86.5  114.7    0.0
 1996 297   106  14.60  19.50   9.40  2.802  2.802  2.515  0.287  0.000  204.0   89.0  115.0    0.0
 1996 298   107   9.50  15.00  12.40  1.760  1.760  1.590  0.170  0.000  205.8   90.6  115.2    0.0
 1996 299   108  12.90  21.00  12.60  2.594  2.594  2.351  0.243  0.000  208.4   93.0  115.4    0.0
 1996 300   109  22.80  25.10  11.60  4.784  4.784  4.359  0.425  0.000  213.2   97.3  115.8    0.0
 1996 301   110  26.90  26.40  12.80  5.786  5.786  5.300  0.487  0.000  219.0  102.6  116.3    0.0
 1996 302   111  26.70  29.50  13.60  5.991  5.991  5.512  0.478  0.000  225.0  108.2  116.8    0.0
 1996 303   112  19.60  28.00  16.10  4.404  4.404  4.070  0.334  0.000  229.4  112.2  117.1    0.0
 1996 304   113  16.90  27.40  18.30  3.833  3.833  3.555  0.278  0.000  233.2  115.8  117.4    0.0
 1996 305   114  18.70  24.00  15.40  3.983  3.983  3.705  0.278  0.000  237.2  119.5  117.7    0.0
 1996 306   115  18.30  24.00  15.00  3.884  3.884  3.619  0.266  0.000  241.1  123.1  118.0    0.0
 1996 307   116   8.50  22.10  15.00  1.762  1.762  1.644  0.119  0.000  242.8  124.8  118.1    0.0
 1996 308   117  21.40  24.00  13.30  4.479  4.479  4.177  0.302  0.000  247.3  128.9  118.4    0.0
 1996 309   118  28.30  27.00  12.00  6.078  6.078  5.672  0.407  0.000  253.4  134.6  118.8    0.0
 1996 310   119  28.90  28.60  14.30  6.440  6.440  6.013  0.427  0.000  259.8  140.6  119.2    0.0
 1996 311   120  25.30  32.40  17.50  6.024  6.024  5.630  0.394  0.000  265.9  146.2  119.6    0.0
 1996 312   121  10.90  22.60  16.10  2.293  2.293  2.147  0.146  0.000  268.1  148.4  119.8    0.0
 1996 313   122   8.60  21.00  14.90  1.756  1.756  1.644  0.112  0.000  269.9  150.0  119.9    0.0
 1996 314   123   8.50  20.20  17.50  1.756  1.756  1.643  0.113  0.000  271.7  151.7  120.0    0.0
 1996 315   124  27.60  21.90  14.70  5.692  5.692  5.322  0.369  0.000  277.3  157.0  120.3    0.0
 1996 316   125  29.30  24.20  12.00  6.082  6.082  5.674  0.408  0.000  283.4  162.7  120.8    0.0
 1996 317   126  21.50  24.60  12.10  4.490  4.490  4.179  0.311  0.000  287.9  166.9  121.1    0.0
 1996 318   127  28.90  27.10  14.10  6.322  6.322  5.874  0.448  0.000  294.2  172.7  121.5    0.0
 1996 319   128  29.40  30.60  15.20  6.754  6.754  6.268  0.486  0.000  301.0  179.0  122.0    0.0
 1996 320   129  12.80  25.60  16.60  2.806  2.806  2.602  0.205  0.000  303.8  181.6  122.2    0.0
 1996 321   130  21.30  25.00  15.80  4.608  4.608  4.269  0.340  0.000  308.4  185.9  122.5    0.0
 1996 322   131  22.80  26.60  14.50  4.977  4.977  4.606  0.371  0.000  313.4  190.5  122.9    0.0
 1996 323   132  20.90  24.10  13.00  4.374  4.374  4.044  0.329  0.000  317.8  194.5  123.2    0.0
 1996 324   133  28.60  27.70  16.40  6.418  6.418  5.931  0.488  0.000  324.2  200.4  123.7    0.0
 1996 325   134  27.40  27.10  15.10  6.046  6.046  5.583  0.463  0.000  330.2  206.0  124.2    0.0
 1996 326   135  29.60  27.80  13.10  6.484  6.484  5.983  0.500  0.000  336.7  212.0  124.7    0.0
 1996 327   136  25.60  29.00  15.10  5.775  5.775  5.326  0.449  0.000  342.5  217.3  125.1    0.0
 1996 328   137  26.20  20.90  11.60  5.205  5.205  4.798  0.408  0.000  347.7  222.1  125.6    0.0
 1996 329   138  29.60  20.40   7.50  5.634  5.634  5.190  0.444  0.000  353.3  227.3  126.0    0.0
 1996 330   139  29.10  22.00   7.10  5.640  5.640  5.192  0.448  0.000  359.0  232.5  126.4    0.0
 1996 331   140  30.00  26.70  11.90  6.426  6.426  5.916  0.510  0.000  365.4  238.4  127.0    0.0
 1996 332   141  30.80  31.10  15.40  7.133  7.133  6.567  0.566  0.000  372.5  245.0  127.5    0.0
 1996 333   142  30.50  32.10  16.30  7.189  7.189  6.619  0.571  0.000  379.7  251.6  128.1    0.0
 1996 334   143  22.30  33.20  18.40  5.400  5.400  4.972  0.429  0.000  385.1  256.6  128.5    0.0
 1996 335   144  27.70  27.30  17.40  6.238  6.238  5.743  0.495  0.000  391.3  262.3  129.0    0.0
 1996 336   145  29.70  30.50  15.00  6.812  6.812  6.270  0.542  0.000  398.2  268.6  129.6    0.0
 1996 337   146  27.90  33.00  18.80  6.762  6.762  6.221  0.541  0.000  404.9  274.8  130.1    0.0
 1996 338   147  17.50  29.20  19.70  4.097  4.097  3.766  0.331  0.000  409.0  278.6  130.4    0.0
 1996 339   148  13.30  27.70  19.00  3.047  3.047  2.798  0.249  0.000  412.1  281.4  130.7    0.0
 1996 340   149   9.70  25.60  19.90  2.185  2.185  2.004  0.181  0.000  414.3  283.4  130.9    0.0
 1996 341   150  11.60  23.60  19.30  2.541  2.541  2.327  0.214  0.000  416.8  285.7  131.1    0.0
 1996 342   151  31.30  24.40  15.40  6.713  6.713  6.136  0.577  0.000  423.5  291.9  131.6    0.0
 1996 343   152  30.50  27.10  12.30  6.593  6.593  6.014  0.579  0.000  430.1  297.9  132.2    0.0
 1996 344   153  17.60  24.10  14.60  3.739  3.739  3.403  0.336  0.000  433.8  301.3  132.6    0.0
 1996 345   154   9.10  21.00  16.90  1.897  1.897  1.722  0.175  0.000  435.7  303.0  132.7    0.0
 1996 346   155  10.80  24.60  17.80  2.370  2.370  2.144  0.225  0.000  438.1  305.1  133.0    0.0
 1996 347   156  19.30  26.60  18.20  4.349  4.349  3.922  0.427  0.000  442.5  309.1  133.4    0.0
 1996 348   157  19.30  24.30  17.60  4.216  4.216  3.788  0.428  0.000  446.7  312.9  133.8    0.0
 1996 349   158  31.10  28.30  14.60  6.959  6.959  6.227  0.732  0.000  453.6  319.1  134.6    0.0
 1996 350   159  31.30  29.80  15.60  7.183  7.183  6.399  0.784  0.000  460.8  325.5  135.3    0.0
 1996 351   160  23.00  30.30  16.10  5.332  5.332  4.725  0.606  0.000  466.1  330.2  135.9    0.0
 1996 352   161  29.50  28.70  16.90  6.762  6.762  5.958  0.804  0.000  472.9  336.2  136.7    0.0
 1996 353   162  30.70  30.30  14.40  7.037  7.037  6.161  0.876  0.000  479.9  342.3  137.6    0.0
 1996 354   163  16.80  26.20  18.80  3.803  3.803  3.306  0.497  0.000  483.7  345.6  138.1    0.0
 1996 355   164  22.20  29.10  18.00  5.167  5.167  4.458  0.709  0.000  488.9  350.1  138.8    0.0
 1996 356   165  15.30  26.80  18.30  3.481  3.481  2.978  0.503  0.000  492.4  353.1  139.3    0.0
 1996 357   166  28.40  28.50  16.30  6.496  6.496  5.506  0.989  0.000  498.9  358.6  140.3    0.0
 1996 358   167  28.00  29.60  17.60  6.556  6.556  5.502  1.054  0.000  505.4  364.1  141.4    0.0
 1996 359   168  30.40  30.40  19.40  7.286  7.286  6.050  1.235  0.000  512.7  370.1  142.6    0.0
 1996 360   169  26.80  33.30  20.50  6.687  6.687  5.489  1.198  0.000  519.4  375.6  143.8    0.0
 1996 361   170  18.40  29.00  20.10  4.377  4.377  3.548  0.829  0.000  523.8  379.2  144.6    0.0
 1996 362   171  31.40  29.20  14.50  7.191  6.691  5.750  0.941  0.000  530.5  384.9  145.6    0.0
 1996 363   172  27.90  31.10  14.30  6.530  6.530  5.145  1.385  0.000  537.0  390.1  147.0    0.0
 1996 364   173  30.50  34.20  18.90  7.646  7.646  5.932  1.714  0.000  544.7  396.0  148.7    0.0
 1996 365   174  23.10  30.70  18.60  5.576  5.576  4.255  1.321  0.000  550.2  400.2  150.0    0.0
 1996 366   175  20.00  33.40  18.90  4.991  4.991  3.741  1.250  0.000  555.2  404.0  151.2    0.0
 1997 001   176  28.90  27.80  18.30  6.767  6.767  4.978  1.788  0.000  562.0  409.0  153.0    0.0
 1997 002   177  30.40  28.40  13.30  6.898  6.898  5.075  1.823  0.000  568.9  414.0  154.9    0.0
 1997 003   178  29.60  32.30  15.00  7.111  6.815  5.232  1.583  0.000  575.7  419.3  156.4    0.0
