*SOIL N BALANCE - CERES SOIL N&C ROUTINES

*DSSAT Cropping System Model Ver. 4.0.2.000               Aug 03, 2016; 14:28:52

*RUN   1        : UYMZ                    
 MODEL          : MZCER040 - Maize           
 EXPERIMENT     : UYMZ0119 MZ    late to create DSS                             
 TREATMENT  1   : UYMZ                    



                                         INITIAL Year/Doy      FINAL Year/Doy
                                                 1987/184            1988/011
SOIL N BALANCE                                  -----------kg N/ha-----------

   Soil Humus N                                  16646.04            16534.59
   Soil Litter N                                     0.00               11.93
   N in Surface Residue                              0.00                0.00
   Soil NO3                                         74.81                6.11
   Soil NH4                                         23.95                8.14
   Soil Urea                                         0.00                0.00

   Added to / Removed from Soil:
   N in Harvest Residues from Previous Crop          0.00
   N from Organic Applications                       0.00
   N from senesced plant matter                     17.92
   Fertilizer N                                      3.00
   Leached NO3                                                          12.06
   N Denitrified                                                         4.09
   N Uptake From Soil                                                  187.92
   Ammonia volatilization                                                0.88

   Total N balance                               16765.72            16765.71

================================================================================

*DSSAT Cropping System Model Ver. 4.0.2.000               Aug 03, 2016; 14:28:52

*RUN   2        : UYMZ                    
 MODEL          : MZCER040 - Maize           
 EXPERIMENT     : UYMZ0119 MZ    late to create DSS                             
 TREATMENT  1   : UYMZ                    



                                         INITIAL Year/Doy      FINAL Year/Doy
                                                 1988/184            1989/005
SOIL N BALANCE                                  -----------kg N/ha-----------

   Soil Humus N                                  16646.04            16538.40
   Soil Litter N                                     0.00               13.57
   N in Surface Residue                              0.00                0.00
   Soil NO3                                         74.81                6.36
   Soil NH4                                         23.95                6.06
   Soil Urea                                         0.00                0.00

   Added to / Removed from Soil:
   N in Harvest Residues from Previous Crop          0.00
   N from Organic Applications                       0.00
   N from senesced plant matter                     15.76
   Fertilizer N                                      3.00
   Leached NO3                                                          12.57
   N Denitrified                                                         3.01
   N Uptake From Soil                                                  182.65
   Ammonia volatilization                                                0.94

   Total N balance                               16763.56            16763.57

================================================================================

*DSSAT Cropping System Model Ver. 4.0.2.000               Aug 03, 2016; 14:28:52

*RUN   3        : UYMZ                    
 MODEL          : MZCER040 - Maize           
 EXPERIMENT     : UYMZ0119 MZ    late to create DSS                             
 TREATMENT  1   : UYMZ                    



                                         INITIAL Year/Doy      FINAL Year/Doy
                                                 1989/184            1990/004
SOIL N BALANCE                                  -----------kg N/ha-----------

   Soil Humus N                                  16646.04            16539.60
   Soil Litter N                                     0.00               14.17
   N in Surface Residue                              0.00                0.00
   Soil NO3                                         74.81                5.84
   Soil NH4                                         23.95                6.56
   Soil Urea                                         0.00                0.00

   Added to / Removed from Soil:
   N in Harvest Residues from Previous Crop          0.00
   N from Organic Applications                       0.00
   N from senesced plant matter                     18.86
   Fertilizer N                                      3.00
   Leached NO3                                                           6.13
   N Denitrified                                                         0.77
   N Uptake From Soil                                                  192.59
   Ammonia volatilization                                                1.00

   Total N balance                               16766.66            16766.66

================================================================================

*DSSAT Cropping System Model Ver. 4.0.2.000               Aug 03, 2016; 14:28:52

*RUN   4        : UYMZ                    
 MODEL          : MZCER040 - Maize           
 EXPERIMENT     : UYMZ0119 MZ    late to create DSS                             
 TREATMENT  1   : UYMZ                    



                                         INITIAL Year/Doy      FINAL Year/Doy
                                                 1990/184            1991/005
SOIL N BALANCE                                  -----------kg N/ha-----------

   Soil Humus N                                  16646.04            16537.04
   Soil Litter N                                     0.00                9.81
   N in Surface Residue                              0.00                0.00
   Soil NO3                                         74.81                5.94
   Soil NH4                                         23.95                7.67
   Soil Urea                                         0.00                0.00

   Added to / Removed from Soil:
   N in Harvest Residues from Previous Crop          0.00
   N from Organic Applications                       0.00
   N from senesced plant matter                     13.77
   Fertilizer N                                      3.00
   Leached NO3                                                           7.15
   N Denitrified                                                         1.74
   N Uptake From Soil                                                  191.38
   Ammonia volatilization                                                0.86

   Total N balance                               16761.58            16761.58

================================================================================

*DSSAT Cropping System Model Ver. 4.0.2.000               Aug 03, 2016; 14:28:52

*RUN   5        : UYMZ                    
 MODEL          : MZCER040 - Maize           
 EXPERIMENT     : UYMZ0119 MZ    late to create DSS                             
 TREATMENT  1   : UYMZ                    



                                         INITIAL Year/Doy      FINAL Year/Doy
                                                 1991/184            1992/006
SOIL N BALANCE                                  -----------kg N/ha-----------

   Soil Humus N                                  16646.04            16537.37
   Soil Litter N                                     0.00               12.73
   N in Surface Residue                              0.00                0.00
   Soil NO3                                         74.81                5.92
   Soil NH4                                         23.95                8.13
   Soil Urea                                         0.00                0.00

   Added to / Removed from Soil:
   N in Harvest Residues from Previous Crop          0.00
   N from Organic Applications                       0.00
   N from senesced plant matter                     17.60
   Fertilizer N                                      3.00
   Leached NO3                                                          31.17
   N Denitrified                                                         3.16
   N Uptake From Soil                                                  166.01
   Ammonia volatilization                                                0.92

   Total N balance                               16765.40            16765.40

================================================================================

*DSSAT Cropping System Model Ver. 4.0.2.000               Aug 03, 2016; 14:28:52

*RUN   6        : UYMZ                    
 MODEL          : MZCER040 - Maize           
 EXPERIMENT     : UYMZ0119 MZ    late to create DSS                             
 TREATMENT  1   : UYMZ                    



                                         INITIAL Year/Doy      FINAL Year/Doy
                                                 1992/184            1993/015
SOIL N BALANCE                                  -----------kg N/ha-----------

   Soil Humus N                                  16646.04            16536.92
   Soil Litter N                                     0.00               16.61
   N in Surface Residue                              0.00                0.00
   Soil NO3                                         74.81                7.06
   Soil NH4                                         23.95                7.87
   Soil Urea                                         0.00                0.00

   Added to / Removed from Soil:
   N in Harvest Residues from Previous Crop          0.00
   N from Organic Applications                       0.00
   N from senesced plant matter                     22.23
   Fertilizer N                                      3.00
   Leached NO3                                                           0.43
   N Denitrified                                                         0.08
   N Uptake From Soil                                                  199.71
   Ammonia volatilization                                                1.35

   Total N balance                               16770.03            16770.04

================================================================================

*DSSAT Cropping System Model Ver. 4.0.2.000               Aug 03, 2016; 14:28:52

*RUN   7        : UYMZ                    
 MODEL          : MZCER040 - Maize           
 EXPERIMENT     : UYMZ0119 MZ    late to create DSS                             
 TREATMENT  1   : UYMZ                    



                                         INITIAL Year/Doy      FINAL Year/Doy
                                                 1993/184            1994/013
SOIL N BALANCE                                  -----------kg N/ha-----------

   Soil Humus N                                  16646.04            16533.12
   Soil Litter N                                     0.00               11.68
   N in Surface Residue                              0.00                0.00
   Soil NO3                                         74.81                6.11
   Soil NH4                                         23.95                8.26
   Soil Urea                                         0.00                0.00

   Added to / Removed from Soil:
   N in Harvest Residues from Previous Crop          0.00
   N from Organic Applications                       0.00
   N from senesced plant matter                     16.72
   Fertilizer N                                      3.00
   Leached NO3                                                           5.80
   N Denitrified                                                         0.72
   N Uptake From Soil                                                  197.89
   Ammonia volatilization                                                0.93

   Total N balance                               16764.52            16764.52

================================================================================

*DSSAT Cropping System Model Ver. 4.0.2.000               Aug 03, 2016; 14:28:52

*RUN   8        : UYMZ                    
 MODEL          : MZCER040 - Maize           
 EXPERIMENT     : UYMZ0119 MZ    late to create DSS                             
 TREATMENT  1   : UYMZ                    



                                         INITIAL Year/Doy      FINAL Year/Doy
                                                 1994/184            1995/001
SOIL N BALANCE                                  -----------kg N/ha-----------

   Soil Humus N                                  16646.04            16540.84
   Soil Litter N                                     0.00               10.74
   N in Surface Residue                              0.00                0.00
   Soil NO3                                         74.81                5.97
   Soil NH4                                         23.95                5.89
   Soil Urea                                         0.00                0.00

   Added to / Removed from Soil:
   N in Harvest Residues from Previous Crop          0.00
   N from Organic Applications                       0.00
   N from senesced plant matter                     12.09
   Fertilizer N                                      3.00
   Leached NO3                                                          18.27
   N Denitrified                                                         2.87
   N Uptake From Soil                                                  174.38
   Ammonia volatilization                                                0.93

   Total N balance                               16759.89            16759.89

================================================================================

*DSSAT Cropping System Model Ver. 4.0.2.000               Aug 03, 2016; 14:28:52

*RUN   9        : UYMZ                    
 MODEL          : MZCER040 - Maize           
 EXPERIMENT     : UYMZ0119 MZ    late to create DSS                             
 TREATMENT  1   : UYMZ                    



                                         INITIAL Year/Doy      FINAL Year/Doy
                                                 1995/184            1996/008
SOIL N BALANCE                                  -----------kg N/ha-----------

   Soil Humus N                                  16646.04            16536.71
   Soil Litter N                                     0.00               14.56
   N in Surface Residue                              0.00                0.00
   Soil NO3                                         74.81                6.74
   Soil NH4                                         23.95                7.39
   Soil Urea                                         0.00                0.00

   Added to / Removed from Soil:
   N in Harvest Residues from Previous Crop          0.00
   N from Organic Applications                       0.00
   N from senesced plant matter                     19.29
   Fertilizer N                                      3.00
   Leached NO3                                                           2.63
   N Denitrified                                                         2.36
   N Uptake From Soil                                                  195.53
   Ammonia volatilization                                                1.18

   Total N balance                               16767.09            16767.09

================================================================================

*DSSAT Cropping System Model Ver. 4.0.2.000               Aug 03, 2016; 14:28:52

*RUN  10        : UYMZ                    
 MODEL          : MZCER040 - Maize           
 EXPERIMENT     : UYMZ0119 MZ    late to create DSS                             
 TREATMENT  1   : UYMZ                    



                                         INITIAL Year/Doy      FINAL Year/Doy
                                                 1996/184            1997/003
SOIL N BALANCE                                  -----------kg N/ha-----------

   Soil Humus N                                  16646.04            16537.56
   Soil Litter N                                     0.00                9.80
   N in Surface Residue                              0.00                0.00
   Soil NO3                                         74.81                6.51
   Soil NH4                                         23.95                6.86
   Soil Urea                                         0.00                0.00

   Added to / Removed from Soil:
   N in Harvest Residues from Previous Crop          0.00
   N from Organic Applications                       0.00
   N from senesced plant matter                     12.64
   Fertilizer N                                      3.00
   Leached NO3                                                           4.77
   N Denitrified                                                         0.47
   N Uptake From Soil                                                  193.20
   Ammonia volatilization                                                1.25

   Total N balance                               16760.44            16760.43

================================================================================

*DSSAT Cropping System Model Ver. 4.0.2.000               Aug 03, 2016; 14:28:52

*RUN  11        : UYMZ                    
 MODEL          : MZCER040 - Maize           
 EXPERIMENT     : UYMZ0119 MZ    late to create DSS                             
 TREATMENT  1   : UYMZ                    



                                         INITIAL Year/Doy      FINAL Year/Doy
                                                 1997/184            1998/002
SOIL N BALANCE                                  -----------kg N/ha-----------

   Soil Humus N                                  16646.04            16538.13
   Soil Litter N                                     0.00               11.63
   N in Surface Residue                              0.00                0.00
   Soil NO3                                         74.81                4.25
   Soil NH4                                         23.95               10.56
   Soil Urea                                         0.00                0.00

   Added to / Removed from Soil:
   N in Harvest Residues from Previous Crop          0.00
   N from Organic Applications                       0.00
   N from senesced plant matter                     16.91
   Fertilizer N                                      3.00
   Leached NO3                                                           6.06
   N Denitrified                                                         1.11
   N Uptake From Soil                                                  191.84
   Ammonia volatilization                                                1.15

   Total N balance                               16764.71            16764.72

================================================================================

*DSSAT Cropping System Model Ver. 4.0.2.000               Aug 03, 2016; 14:28:52

*RUN  12        : UYMZ                    
 MODEL          : MZCER040 - Maize           
 EXPERIMENT     : UYMZ0119 MZ    late to create DSS                             
 TREATMENT  1   : UYMZ                    



                                         INITIAL Year/Doy      FINAL Year/Doy
                                                 1998/184            1999/010
SOIL N BALANCE                                  -----------kg N/ha-----------

   Soil Humus N                                  16646.04            16539.33
   Soil Litter N                                     0.00               16.41
   N in Surface Residue                              0.00                0.00
   Soil NO3                                         74.81                6.34
   Soil NH4                                         23.95                6.59
   Soil Urea                                         0.00                0.00

   Added to / Removed from Soil:
   N in Harvest Residues from Previous Crop          0.00
   N from Organic Applications                       0.00
   N from senesced plant matter                     20.58
   Fertilizer N                                      3.00
   Leached NO3                                                           9.12
   N Denitrified                                                         3.38
   N Uptake From Soil                                                  186.43
   Ammonia volatilization                                                0.79

   Total N balance                               16768.38            16768.39

================================================================================

*DSSAT Cropping System Model Ver. 4.0.2.000               Aug 03, 2016; 14:28:52

*RUN  13        : UYMZ                    
 MODEL          : MZCER040 - Maize           
 EXPERIMENT     : UYMZ0119 MZ    late to create DSS                             
 TREATMENT  1   : UYMZ                    



                                         INITIAL Year/Doy      FINAL Year/Doy
                                                 1999/184            2000/006
SOIL N BALANCE                                  -----------kg N/ha-----------

   Soil Humus N                                  16646.04            16541.80
   Soil Litter N                                     0.00               13.86
   N in Surface Residue                              0.00                0.00
   Soil NO3                                         74.81                6.34
   Soil NH4                                         23.95                5.83
   Soil Urea                                         0.00                0.00

   Added to / Removed from Soil:
   N in Harvest Residues from Previous Crop          0.00
   N from Organic Applications                       0.00
   N from senesced plant matter                     17.33
   Fertilizer N                                      3.00
   Leached NO3                                                           2.88
   N Denitrified                                                         1.46
   N Uptake From Soil                                                  191.99
   Ammonia volatilization                                                0.97

   Total N balance                               16765.13            16765.14

================================================================================

*DSSAT Cropping System Model Ver. 4.0.2.000               Aug 03, 2016; 14:28:52

*RUN  14        : UYMZ                    
 MODEL          : MZCER040 - Maize           
 EXPERIMENT     : UYMZ0119 MZ    late to create DSS                             
 TREATMENT  1   : UYMZ                    



                                         INITIAL Year/Doy      FINAL Year/Doy
                                                 2000/184            2001/015
SOIL N BALANCE                                  -----------kg N/ha-----------

   Soil Humus N                                  16646.04            16533.74
   Soil Litter N                                     0.00               12.67
   N in Surface Residue                              0.00                0.00
   Soil NO3                                         74.81                5.57
   Soil NH4                                         23.95                8.76
   Soil Urea                                         0.00                0.00

   Added to / Removed from Soil:
   N in Harvest Residues from Previous Crop          0.00
   N from Organic Applications                       0.00
   N from senesced plant matter                     15.01
   Fertilizer N                                      3.00
   Leached NO3                                                          20.05
   N Denitrified                                                         3.53
   N Uptake From Soil                                                  177.37
   Ammonia volatilization                                                1.12

   Total N balance                               16762.81            16762.81
