*SOIL TEMPERATURE OUTPUT FILE (DAILY)

*DSSAT Cropping System Model Ver. 4.0.2.000               Jul 20, 2016; 12:14:04

*RUN   1        : UYMZ                    
 MODEL          : MZCER040 - Maize           
 EXPERIMENT     : UYMZ0060 MZ    late to create DSS                             
 TREATMENT  1   : UYMZ                    

@YEAR DOY   DAS  TS1D  TS2D  TS3D  TS4D  TS5D  TS6D  TS7D  TS8D  TS9D  TS10
 1990 191     0  14.7  15.2  15.9  16.6  17.1  17.5  17.7  17.7   0.0   0.0
 1990 192     1  14.8  15.2  15.9  16.6  17.0  17.5  17.7  17.7   0.0   0.0
 1990 193     2  14.7  15.2  15.9  16.5  17.0  17.5  17.6  17.7   0.0   0.0
 1990 194     3  15.0  15.4  16.0  16.7  17.1  17.5  17.7  17.7   0.0   0.0
 1990 195     4  15.2  15.6  16.2  16.7  17.2  17.6  17.7  17.7   0.0   0.0
 1990 196     5  16.1  16.4  16.8  17.2  17.5  17.8  17.8  17.8   0.0   0.0
 1990 197     6  15.9  16.2  16.6  17.1  17.4  17.7  17.8  17.8   0.0   0.0
 1990 198     7  15.8  16.1  16.5  17.0  17.3  17.7  17.8  17.8   0.0   0.0
 1990 199     8  14.4  14.9  15.6  16.3  16.8  17.3  17.6  17.6   0.0   0.0
 1990 200     9  12.6  13.3  14.3  15.3  16.1  16.9  17.3  17.4   0.0   0.0
 1990 201    10  10.5  11.5  12.9  14.3  15.3  16.3  16.9  17.2   0.0   0.0
 1990 202    11   9.0  10.2  11.8  13.5  14.7  15.9  16.7  17.0   0.0   0.0
 1990 203    12   7.4   8.8  10.7  12.6  14.1  15.5  16.4  16.8   0.0   0.0
 1990 204    13   7.5   8.9  10.8  12.7  14.1  15.6  16.5  16.8   0.0   0.0
 1990 205    14   8.5   9.7  11.5  13.2  14.5  15.8  16.6  16.9   0.0   0.0
 1990 206    15   8.5   9.7  11.4  13.1  14.4  15.8  16.6  16.9   0.0   0.0
 1990 207    16   9.2  10.3  11.9  13.5  14.7  15.9  16.7  17.0   0.0   0.0
 1990 208    17  10.5  11.4  12.8  14.1  15.2  16.2  16.9  17.1   0.0   0.0
 1990 209    18  10.2  11.2  12.6  14.0  15.1  16.2  16.8  17.1   0.0   0.0
 1990 210    19   9.8  10.8  12.3  13.8  14.9  16.0  16.8  17.0   0.0   0.0
 1990 211    20  10.6  11.5  12.8  14.2  15.2  16.2  16.9  17.1   0.0   0.0
 1990 212    21  10.9  11.8  13.0  14.3  15.3  16.3  16.9  17.2   0.0   0.0
 1990 213    22  11.2  12.0  13.2  14.4  15.4  16.4  17.0  17.2   0.0   0.0
 1990 214    23  12.7  13.3  14.2  15.1  15.9  16.7  17.2  17.3   0.0   0.0
 1990 215    24  14.3  14.6  15.3  15.9  16.5  17.1  17.4  17.5   0.0   0.0
 1990 216    25  16.0  16.1  16.4  16.8  17.1  17.5  17.7  17.7   0.0   0.0
 1990 217    26  18.1  18.0  17.9  17.9  17.9  18.0  18.0  17.9   0.0   0.0
 1990 218    27  19.5  19.2  18.8  18.6  18.5  18.3  18.2  18.1   0.0   0.0
 1990 219    28  20.9  20.3  19.7  19.2  18.9  18.6  18.4  18.2   0.0   0.0
 1990 220    29  21.7  21.0  20.2  19.6  19.2  18.8  18.5  18.3   0.0   0.0
 1990 221    30  21.7  21.0  20.2  19.6  19.2  18.8  18.5  18.3   0.0   0.0
 1990 222    31  21.2  20.6  19.9  19.3  19.0  18.7  18.4  18.2   0.0   0.0
 1990 223    32  21.7  21.0  20.2  19.6  19.2  18.8  18.5  18.3   0.0   0.0
 1990 224    33  22.1  21.3  20.4  19.7  19.3  18.9  18.5  18.3   0.0   0.0
 1990 225    34  22.6  21.7  20.8  20.0  19.5  19.0  18.6  18.4   0.0   0.0
 1990 226    35  23.2  22.3  21.2  20.3  19.7  19.1  18.7  18.4   0.0   0.0
 1990 227    36  22.3  21.5  20.6  19.8  19.3  18.9  18.5  18.3   0.0   0.0
 1990 228    37  20.8  20.2  19.5  19.0  18.8  18.5  18.3  18.1   0.0   0.0
 1990 229    38  19.6  19.1  18.7  18.4  18.3  18.2  18.1  18.0   0.0   0.0
 1990 230    39  18.3  18.0  17.8  17.7  17.8  17.8  17.9  17.8   0.0   0.0
 1990 231    40  17.5  17.4  17.3  17.3  17.5  17.6  17.7  17.8   0.0   0.0
 1990 232    41  18.4  18.1  17.8  17.7  17.7  17.8  17.9  17.8   0.0   0.0
 1990 233    42  18.7  18.3  18.0  17.9  17.8  17.9  17.9  17.9   0.0   0.0
 1990 234    43  18.2  17.9  17.7  17.6  17.6  17.7  17.8  17.8   0.0   0.0
 1990 235    44  17.4  17.2  17.1  17.2  17.3  17.5  17.7  17.7   0.0   0.0
 1990 236    45  16.6  16.5  16.6  16.8  17.0  17.3  17.5  17.6   0.0   0.0
 1990 237    46  16.9  16.8  16.8  16.9  17.1  17.4  17.6  17.6   0.0   0.0
 1990 238    47  17.8  17.6  17.4  17.3  17.4  17.6  17.7  17.7   0.0   0.0
 1990 239    48  17.5  17.3  17.1  17.2  17.3  17.5  17.6  17.7   0.0   0.0
 1990 240    49  16.6  16.5  16.5  16.7  16.9  17.2  17.5  17.6   0.0   0.0
 1990 241    50  16.0  16.0  16.1  16.4  16.7  17.1  17.4  17.5   0.0   0.0
 1990 242    51  15.5  15.6  15.8  16.1  16.5  16.9  17.3  17.4   0.0   0.0
 1990 243    52  13.1  13.5  14.1  14.9  15.5  16.3  16.9  17.1   0.0   0.0
 1990 244    53  11.9  12.4  13.2  14.2  15.0  16.0  16.7  17.0   0.0   0.0
 1990 245    54  11.9  12.4  13.3  14.2  15.0  16.0  16.7  17.0   0.0   0.0
 1990 246    55  12.4  12.8  13.6  14.4  15.2  16.1  16.7  17.0   0.0   0.0
 1990 247    56  11.5  12.0  12.9  14.0  14.8  15.9  16.6  16.9   0.0   0.0
 1990 248    57  12.6  13.0  13.7  14.5  15.3  16.1  16.8  17.0   0.0   0.0
 1990 249    58  13.9  14.1  14.6  15.2  15.7  16.4  16.9  17.2   0.0   0.0
 1990 250    59  15.0  15.0  15.3  15.7  16.1  16.7  17.1  17.3   0.0   0.0
 1990 251    60  14.7  14.8  15.1  15.5  16.0  16.6  17.0  17.2   0.0   0.0
 1990 252    61  16.1  16.0  16.0  16.2  16.5  16.9  17.2  17.4   0.0   0.0
 1990 253    62  17.6  17.3  17.0  17.0  17.1  17.3  17.5  17.5   0.0   0.0
 1990 254    63  18.6  18.2  17.7  17.5  17.5  17.5  17.6  17.7   0.0   0.0
 1990 255    64  18.3  17.9  17.5  17.3  17.3  17.4  17.6  17.6   0.0   0.0
 1990 256    65  17.8  17.5  17.2  17.1  17.1  17.3  17.5  17.5   0.0   0.0
 1990 257    66  16.2  16.1  16.1  16.2  16.5  16.9  17.2  17.4   0.0   0.0
 1990 258    67  14.7  14.8  15.0  15.4  15.9  16.5  16.9  17.2   0.0   0.0
 1990 259    68  14.5  14.6  14.9  15.3  15.8  16.4  16.9  17.1   0.0   0.0
 1990 260    69  15.1  15.1  15.3  15.6  16.0  16.5  17.0  17.2   0.0   0.0
 1990 261    70  16.1  16.0  16.0  16.1  16.4  16.8  17.1  17.3   0.0   0.0
 1990 262    71  16.8  16.6  16.5  16.5  16.6  16.9  17.2  17.4   0.0   0.0
 1990 263    72  16.8  16.6  16.5  16.5  16.6  16.9  17.2  17.4   0.0   0.0
 1990 264    73  16.8  16.5  16.4  16.4  16.6  16.9  17.2  17.3   0.0   0.0
 1990 265    74  17.0  16.7  16.5  16.5  16.6  16.9  17.2  17.4   0.0   0.0
 1990 266    75  16.4  16.2  16.1  16.2  16.4  16.8  17.1  17.3   0.0   0.0
 1990 267    76  15.9  15.8  15.8  15.9  16.2  16.6  17.0  17.2   0.0   0.0
 1990 268    77  15.6  15.5  15.6  15.8  16.1  16.5  17.0  17.2   0.0   0.0
 1990 269    78  15.6  15.5  15.5  15.7  16.0  16.5  16.9  17.2   0.0   0.0
 1990 270    79  16.4  16.2  16.1  16.2  16.4  16.7  17.1  17.2   0.0   0.0
 1990 271    80  17.7  17.3  16.9  16.8  16.8  17.0  17.2  17.4   0.0   0.0
 1990 272    81  18.9  18.4  17.8  17.4  17.3  17.3  17.4  17.5   0.0   0.0
 1990 273    82  20.5  19.7  18.8  18.2  17.9  17.7  17.7  17.7   0.0   0.0
 1990 274    83  21.9  20.9  19.8  18.9  18.4  18.0  17.9  17.8   0.0   0.0
 1990 275    84  22.1  21.1  20.0  19.0  18.5  18.1  17.9  17.8   0.0   0.0
 1990 276    85  23.2  22.1  20.7  19.6  18.9  18.4  18.1  18.0   0.0   0.0
 1990 277    86  24.7  23.3  21.7  20.3  19.4  18.7  18.3  18.1   0.0   0.0
 1990 278    87  24.0  22.8  21.2  20.0  19.2  18.5  18.2  18.0   0.0   0.0
 1990 279    88  23.0  21.9  20.5  19.5  18.8  18.3  18.0  17.9   0.0   0.0
 1990 280    89  22.5  21.5  20.2  19.2  18.6  18.1  17.9  17.8   0.0   0.0
 1990 281    90  21.4  20.5  19.4  18.6  18.1  17.8  17.7  17.7   0.0   0.0
 1990 282    91  20.0  19.3  18.5  17.9  17.6  17.5  17.5  17.5   0.0   0.0
 1990 283    92  20.3  19.6  18.7  18.1  17.7  17.5  17.5  17.6   0.0   0.0
 1990 284    93  20.2  19.4  18.6  18.0  17.6  17.5  17.5  17.5   0.0   0.0
 1990 285    94  19.9  19.2  18.4  17.8  17.5  17.4  17.4  17.5   0.0   0.0
 1990 286    95  20.1  19.4  18.6  17.9  17.6  17.4  17.5  17.5   0.0   0.0
 1990 287    96  20.3  19.5  18.6  18.0  17.6  17.5  17.5  17.5   0.0   0.0
 1990 288    97  20.0  19.3  18.4  17.8  17.5  17.4  17.4  17.5   0.0   0.0
 1990 289    98  19.8  19.2  18.3  17.8  17.5  17.3  17.4  17.4   0.0   0.0
 1990 290    99  19.9  19.2  18.4  17.8  17.5  17.3  17.4  17.4   0.0   0.0
 1990 291   100  20.4  19.7  18.7  18.0  17.7  17.5  17.5  17.5   0.0   0.0
 1990 292   101  20.6  19.8  18.9  18.1  17.7  17.5  17.5  17.5   0.0   0.0
 1990 293   102  21.2  20.3  19.2  18.4  17.9  17.6  17.6  17.6   0.0   0.0
 1990 294   103  21.8  20.9  19.7  18.7  18.2  17.8  17.6  17.6   0.0   0.0
 1990 295   104  22.7  21.7  20.3  19.2  18.5  18.0  17.8  17.7   0.0   0.0
 1990 296   105  22.9  21.8  20.4  19.3  18.6  18.0  17.8  17.7   0.0   0.0
 1990 297   106  22.7  21.6  20.3  19.2  18.5  18.0  17.8  17.7   0.0   0.0
 1990 298   107  22.7  21.6  20.2  19.1  18.5  18.0  17.7  17.7   0.0   0.0
 1990 299   108  23.2  22.1  20.6  19.4  18.7  18.1  17.8  17.7   0.0   0.0
 1990 300   109  23.8  22.6  21.0  19.7  18.9  18.2  17.9  17.8   0.0   0.0
 1990 301   110  23.5  22.3  20.8  19.5  18.8  18.1  17.8  17.8   0.0   0.0
 1990 302   111  24.3  23.0  21.3  19.9  19.1  18.3  18.0  17.8   0.0   0.0
 1990 303   112  25.4  23.9  22.1  20.5  19.5  18.6  18.1  17.9   0.0   0.0
 1990 304   113  24.8  23.5  21.7  20.2  19.3  18.4  18.0  17.9   0.0   0.0
 1990 305   114  24.2  22.9  21.3  19.9  19.0  18.3  17.9  17.8   0.0   0.0
 1990 306   115  24.7  23.3  21.6  20.1  19.2  18.4  18.0  17.8   0.0   0.0
 1990 307   116  24.8  23.5  21.7  20.2  19.2  18.4  18.0  17.8   0.0   0.0
 1990 308   117  23.6  22.4  20.8  19.6  18.8  18.1  17.8  17.7   0.0   0.0
 1990 309   118  22.7  21.7  20.3  19.2  18.4  17.9  17.7  17.6   0.0   0.0
 1990 310   119  22.0  21.0  19.8  18.8  18.1  17.7  17.5  17.5   0.0   0.0
 1990 311   120  21.4  20.5  19.4  18.5  17.9  17.5  17.4  17.4   0.0   0.0
 1990 312   121  19.6  19.0  18.2  17.6  17.2  17.1  17.1  17.2   0.0   0.0
 1990 313   122  19.5  18.9  18.1  17.5  17.2  17.0  17.1  17.2   0.0   0.0
 1990 314   123  20.4  19.6  18.7  17.9  17.5  17.3  17.2  17.3   0.0   0.0
 1990 315   124  21.6  20.7  19.5  18.6  18.0  17.6  17.4  17.4   0.0   0.0
 1990 316   125  21.7  20.8  19.6  18.6  18.0  17.6  17.4  17.4   0.0   0.0
 1990 317   126  24.7  23.4  21.6  20.1  19.2  18.3  17.9  17.8   0.0   0.0
 1990 318   127  26.7  25.1  23.0  21.2  19.9  18.8  18.2  18.0   0.0   0.0
 1990 319   128  26.5  25.0  22.9  21.1  19.9  18.8  18.2  18.0   0.0   0.0
 1990 320   129  25.6  24.2  22.2  20.6  19.5  18.5  18.0  17.8   0.0   0.0
 1990 321   130  26.0  24.6  22.6  20.9  19.7  18.7  18.1  17.9   0.0   0.0
 1990 322   131  25.2  23.9  22.0  20.5  19.4  18.5  18.0  17.8   0.0   0.0
 1990 323   132  25.5  24.1  22.2  20.6  19.5  18.5  18.0  17.8   0.0   0.0
 1990 324   133  26.3  24.8  22.8  21.0  19.8  18.7  18.1  17.9   0.0   0.0
 1990 325   134  27.7  26.0  23.8  21.7  20.4  19.1  18.4  18.1   0.0   0.0
 1990 326   135  28.2  26.5  24.1  22.0  20.5  19.2  18.4  18.1   0.0   0.0
 1990 327   136  28.0  26.3  23.9  21.9  20.5  19.1  18.4  18.1   0.0   0.0
 1990 328   137  27.2  25.5  23.4  21.4  20.1  18.9  18.2  18.0   0.0   0.0
 1990 329   138  27.3  25.7  23.5  21.5  20.2  18.9  18.3  18.0   0.0   0.0
 1990 330   139  26.6  25.0  23.0  21.1  19.9  18.7  18.1  17.9   0.0   0.0
 1990 331   140  25.4  24.0  22.2  20.5  19.4  18.5  17.9  17.8   0.0   0.0
 1990 332   141  24.7  23.4  21.7  20.2  19.2  18.3  17.8  17.7   0.0   0.0
 1990 333   142  24.4  23.2  21.5  20.0  19.1  18.2  17.8  17.6   0.0   0.0
 1990 334   143  23.8  22.7  21.1  19.8  18.8  18.1  17.7  17.6   0.0   0.0
 1990 335   144  24.0  22.8  21.2  19.9  18.9  18.1  17.7  17.6   0.0   0.0
 1990 336   145  24.1  22.9  21.3  19.9  18.9  18.1  17.7  17.6   0.0   0.0
 1990 337   146  23.8  22.7  21.1  19.8  18.8  18.0  17.7  17.6   0.0   0.0
 1990 338   147  23.9  22.7  21.2  19.8  18.9  18.1  17.7  17.6   0.0   0.0
 1990 339   148  24.9  23.6  21.8  20.3  19.2  18.3  17.8  17.7   0.0   0.0
 1990 340   149  24.8  23.5  21.8  20.3  19.2  18.3  17.8  17.7   0.0   0.0
 1990 341   150  25.4  24.1  22.2  20.6  19.5  18.5  17.9  17.7   0.0   0.0
 1990 342   151  25.8  24.4  22.6  20.9  19.7  18.6  18.0  17.8   0.0   0.0
 1990 343   152  24.3  23.1  21.5  20.1  19.1  18.2  17.8  17.6   0.0   0.0
 1990 344   153  22.1  21.2  20.0  19.0  18.3  17.7  17.4  17.4   0.0   0.0
 1990 345   154  21.9  21.1  19.9  18.9  18.2  17.6  17.4  17.3   0.0   0.0
 1990 346   155  21.1  20.3  19.3  18.5  17.9  17.4  17.2  17.2   0.0   0.0
 1990 347   156  20.7  20.0  19.1  18.3  17.7  17.3  17.2  17.2   0.0   0.0
 1990 348   157  21.2  20.4  19.4  18.5  17.9  17.4  17.3  17.2   0.0   0.0
 1990 349   158  22.7  21.8  20.5  19.3  18.5  17.8  17.5  17.4   0.0   0.0
 1990 350   159  23.7  22.7  21.2  19.9  18.9  18.1  17.7  17.5   0.0   0.0
 1990 351   160  25.2  24.0  22.2  20.6  19.5  18.5  17.9  17.7   0.0   0.0
 1990 352   161  25.8  24.4  22.6  20.9  19.7  18.6  18.0  17.8   0.0   0.0
 1990 353   162  26.5  25.1  23.1  21.4  20.1  18.8  18.1  17.9   0.0   0.0
 1990 354   163  26.5  25.1  23.2  21.4  20.1  18.8  18.1  17.9   0.0   0.0
 1990 355   164  26.4  25.0  23.1  21.3  20.0  18.8  18.1  17.8   0.0   0.0
 1990 356   165  25.8  24.5  22.6  21.0  19.8  18.6  18.0  17.8   0.0   0.0
 1990 357   166  26.0  24.7  22.9  21.2  19.9  18.7  18.1  17.8   0.0   0.0
 1990 358   167  25.6  24.3  22.6  20.9  19.8  18.6  18.0  17.8   0.0   0.0
 1990 359   168  25.3  24.1  22.4  20.8  19.7  18.6  17.9  17.7   0.0   0.0
 1990 360   169  25.6  24.4  22.6  21.0  19.8  18.6  18.0  17.8   0.0   0.0
 1990 361   170  26.9  25.5  23.5  21.6  20.3  19.0  18.2  17.9   0.0   0.0
 1990 362   171  25.9  24.6  22.8  21.1  19.9  18.7  18.0  17.8   0.0   0.0
 1990 363   172  25.8  24.6  22.8  21.1  19.9  18.7  18.0  17.8   0.0   0.0
 1990 364   173  26.1  24.8  23.0  21.3  20.0  18.8  18.1  17.8   0.0   0.0
 1990 365   174  25.8  24.6  22.8  21.1  19.9  18.7  18.0  17.8   0.0   0.0
 1991 001   175  25.7  24.4  22.6  21.0  19.8  18.6  18.0  17.7   0.0   0.0
 1991 002   176  27.0  25.5  23.5  21.7  20.3  19.0  18.2  17.9   0.0   0.0
 1991 003   177  28.1  26.5  24.3  22.2  20.7  19.2  18.4  18.0   0.0   0.0
 1991 004   178  28.4  26.8  24.5  22.4  20.9  19.3  18.4  18.1   0.0   0.0
 1991 005   179  28.2  26.6  24.4  22.3  20.8  19.3  18.4  18.0   0.0   0.0
 1991 006   180  28.1  26.5  24.3  22.3  20.8  19.3  18.4  18.0   0.0   0.0
 1991 007   181  28.7  27.0  24.7  22.6  21.0  19.4  18.5  18.1   0.0   0.0
 1991 008   182  29.7  27.9  25.4  23.1  21.4  19.7  18.6  18.2   0.0   0.0
 1991 009   183  29.0  27.3  24.9  22.7  21.1  19.5  18.5  18.1   0.0   0.0

*DSSAT Cropping System Model Ver. 4.0.2.000               Jul 20, 2016; 12:14:04

*RUN   2        : UYMZ                    
 MODEL          : MZCER040 - Maize           
 EXPERIMENT     : UYMZ0060 MZ    late to create DSS                             
 TREATMENT  1   : UYMZ                    

@YEAR DOY   DAS  TS1D  TS2D  TS3D  TS4D  TS5D  TS6D  TS7D  TS8D  TS9D  TS10
 1991 191     0  18.2  18.2  18.3  18.3  18.4  18.3  18.2  18.1   0.0   0.0
 1991 192     1  15.9  16.2  16.7  17.2  17.5  17.8  17.8  17.8   0.0   0.0
 1991 193     2  13.3  13.9  14.9  15.8  16.5  17.1  17.4  17.5   0.0   0.0
 1991 194     3  10.7  11.6  13.1  14.4  15.4  16.4  17.0  17.2   0.0   0.0
 1991 195     4   8.2   9.5  11.4  13.2  14.5  15.8  16.6  16.9   0.0   0.0
 1991 196     5   7.8   9.2  11.1  13.0  14.3  15.7  16.5  16.9   0.0   0.0
 1991 197     6   8.8  10.0  11.7  13.4  14.7  15.9  16.7  17.0   0.0   0.0
 1991 198     7  11.0  12.0  13.3  14.6  15.5  16.5  17.0  17.2   0.0   0.0
 1991 199     8  12.6  13.3  14.3  15.4  16.1  16.9  17.3  17.4   0.0   0.0
 1991 200     9  13.7  14.2  15.0  15.9  16.5  17.1  17.4  17.5   0.0   0.0
 1991 201    10  15.8  16.1  16.5  16.9  17.3  17.6  17.8  17.8   0.0   0.0
 1991 202    11  15.7  15.9  16.4  16.8  17.2  17.6  17.7  17.7   0.0   0.0
 1991 203    12  13.7  14.2  15.0  15.8  16.4  17.1  17.4  17.5   0.0   0.0
 1991 204    13  12.7  13.3  14.3  15.2  16.0  16.8  17.2  17.4   0.0   0.0
 1991 205    14  12.6  13.3  14.2  15.2  16.0  16.7  17.2  17.4   0.0   0.0
 1991 206    15  11.4  12.2  13.4  14.6  15.5  16.4  17.0  17.2   0.0   0.0
 1991 207    16  13.0  13.6  14.5  15.4  16.1  16.8  17.3  17.4   0.0   0.0
 1991 208    17  16.0  16.2  16.5  16.9  17.3  17.6  17.7  17.7   0.0   0.0
 1991 209    18  18.9  18.7  18.5  18.4  18.4  18.3  18.2  18.1   0.0   0.0
 1991 210    19  20.9  20.4  19.8  19.4  19.1  18.8  18.5  18.3   0.0   0.0
 1991 211    20  21.4  20.9  20.2  19.7  19.3  18.9  18.6  18.4   0.0   0.0
 1991 212    21  20.1  19.7  19.3  19.0  18.8  18.6  18.3  18.2   0.0   0.0
 1991 213    22  16.7  16.8  17.0  17.2  17.4  17.7  17.8  17.8   0.0   0.0
 1991 214    23  13.6  14.0  14.8  15.6  16.2  16.9  17.3  17.4   0.0   0.0
 1991 215    24  10.9  11.7  12.9  14.2  15.1  16.2  16.8  17.1   0.0   0.0
 1991 216    25   9.3  10.3  11.8  13.3  14.5  15.7  16.6  16.9   0.0   0.0
 1991 217    26   9.2  10.2  11.7  13.2  14.4  15.7  16.5  16.9   0.0   0.0
 1991 218    27   9.4  10.4  11.9  13.3  14.5  15.7  16.6  16.9   0.0   0.0
 1991 219    28  10.2  11.1  12.4  13.7  14.8  15.9  16.7  17.0   0.0   0.0
 1991 220    29  11.1  11.9  13.0  14.2  15.1  16.2  16.8  17.1   0.0   0.0
 1991 221    30  12.2  12.8  13.7  14.7  15.5  16.4  17.0  17.2   0.0   0.0
 1991 222    31  11.8  12.5  13.5  14.5  15.4  16.3  16.9  17.2   0.0   0.0
 1991 223    32  12.5  13.0  13.9  14.9  15.6  16.5  17.0  17.2   0.0   0.0
 1991 224    33  12.7  13.3  14.1  15.0  15.7  16.5  17.0  17.3   0.0   0.0
 1991 225    34  13.0  13.5  14.3  15.1  15.8  16.6  17.1  17.3   0.0   0.0
 1991 226    35  14.6  14.9  15.3  15.9  16.4  17.0  17.3  17.5   0.0   0.0
 1991 227    36  16.9  16.9  16.9  17.1  17.3  17.5  17.7  17.7   0.0   0.0
 1991 228    37  19.5  19.1  18.6  18.4  18.3  18.2  18.1  18.0   0.0   0.0
 1991 229    38  21.4  20.7  20.0  19.4  19.0  18.6  18.4  18.2   0.0   0.0
 1991 230    39  22.5  21.7  20.7  19.9  19.4  18.9  18.5  18.3   0.0   0.0
 1991 231    40  22.5  21.7  20.7  19.9  19.4  18.9  18.5  18.3   0.0   0.0
 1991 232    41  22.4  21.6  20.6  19.8  19.3  18.9  18.5  18.3   0.0   0.0
 1991 233    42  22.2  21.4  20.5  19.7  19.2  18.8  18.5  18.3   0.0   0.0
 1991 234    43  22.5  21.6  20.6  19.8  19.3  18.8  18.5  18.3   0.0   0.0
 1991 235    44  22.4  21.5  20.5  19.7  19.2  18.8  18.5  18.3   0.0   0.0
 1991 236    45  21.7  20.9  20.0  19.4  19.0  18.6  18.3  18.2   0.0   0.0
 1991 237    46  21.6  20.8  20.0  19.3  18.9  18.5  18.3  18.2   0.0   0.0
 1991 238    47  20.1  19.6  19.0  18.5  18.3  18.2  18.1  18.0   0.0   0.0
 1991 239    48  18.3  18.0  17.7  17.6  17.6  17.7  17.8  17.8   0.0   0.0
 1991 240    49  17.9  17.7  17.4  17.4  17.4  17.6  17.7  17.7   0.0   0.0
 1991 241    50  18.2  17.9  17.6  17.5  17.5  17.6  17.7  17.7   0.0   0.0
 1991 242    51  18.2  17.9  17.6  17.5  17.5  17.6  17.7  17.7   0.0   0.0
 1991 243    52  18.1  17.8  17.5  17.4  17.5  17.6  17.7  17.7   0.0   0.0
 1991 244    53  18.1  17.8  17.5  17.4  17.4  17.6  17.7  17.7   0.0   0.0
 1991 245    54  17.5  17.3  17.1  17.1  17.2  17.4  17.6  17.6   0.0   0.0
 1991 246    55  17.4  17.2  17.0  17.0  17.1  17.3  17.5  17.6   0.0   0.0
 1991 247    56  17.8  17.5  17.2  17.2  17.2  17.4  17.6  17.6   0.0   0.0
 1991 248    57  19.6  19.1  18.5  18.1  17.9  17.9  17.9  17.8   0.0   0.0
 1991 249    58  20.9  20.2  19.4  18.8  18.4  18.2  18.0  18.0   0.0   0.0
 1991 250    59  21.0  20.3  19.4  18.8  18.5  18.2  18.1  18.0   0.0   0.0
 1991 251    60  20.0  19.4  18.8  18.3  18.1  17.9  17.9  17.9   0.0   0.0
 1991 252    61  18.9  18.5  18.0  17.7  17.6  17.6  17.7  17.7   0.0   0.0
 1991 253    62  17.9  17.6  17.3  17.2  17.2  17.4  17.5  17.6   0.0   0.0
 1991 254    63  18.3  17.9  17.6  17.4  17.3  17.5  17.6  17.6   0.0   0.0
 1991 255    64  20.2  19.5  18.8  18.3  18.0  17.9  17.9  17.8   0.0   0.0
 1991 256    65  22.6  21.6  20.4  19.5  19.0  18.5  18.2  18.1   0.0   0.0
 1991 257    66  22.6  21.7  20.5  19.5  19.0  18.5  18.2  18.1   0.0   0.0
 1991 258    67  21.0  20.3  19.4  18.7  18.3  18.1  18.0  17.9   0.0   0.0
 1991 259    68  20.5  19.8  19.0  18.4  18.1  17.9  17.9  17.8   0.0   0.0
 1991 260    69  19.4  18.8  18.2  17.8  17.7  17.6  17.7  17.7   0.0   0.0
 1991 261    70  17.6  17.3  17.0  16.9  17.0  17.2  17.4  17.5   0.0   0.0
 1991 262    71  17.4  17.1  16.8  16.8  16.8  17.1  17.3  17.4   0.0   0.0
 1991 263    72  18.9  18.4  17.8  17.5  17.4  17.4  17.5  17.6   0.0   0.0
 1991 264    73  19.5  19.0  18.3  17.8  17.7  17.6  17.6  17.7   0.0   0.0
 1991 265    74  19.5  18.9  18.2  17.8  17.6  17.6  17.6  17.6   0.0   0.0
 1991 266    75  18.9  18.4  17.8  17.5  17.4  17.4  17.5  17.6   0.0   0.0
 1991 267    76  19.0  18.5  17.9  17.5  17.4  17.4  17.5  17.6   0.0   0.0
 1991 268    77  19.0  18.5  17.9  17.5  17.4  17.4  17.5  17.6   0.0   0.0
 1991 269    78  18.6  18.1  17.6  17.3  17.2  17.3  17.4  17.5   0.0   0.0
 1991 270    79  19.7  19.1  18.4  17.9  17.6  17.6  17.6  17.6   0.0   0.0
 1991 271    80  19.8  19.2  18.4  17.9  17.7  17.6  17.6  17.6   0.0   0.0
 1991 272    81  19.7  19.1  18.3  17.8  17.6  17.5  17.6  17.6   0.0   0.0
 1991 273    82  19.6  19.0  18.2  17.8  17.5  17.5  17.5  17.6   0.0   0.0
 1991 274    83  18.7  18.2  17.7  17.3  17.2  17.3  17.4  17.5   0.0   0.0
 1991 275    84  17.2  16.9  16.6  16.5  16.6  16.8  17.1  17.3   0.0   0.0
 1991 276    85  17.5  17.2  16.8  16.7  16.7  16.9  17.2  17.3   0.0   0.0
 1991 277    86  18.1  17.6  17.2  16.9  16.9  17.0  17.2  17.4   0.0   0.0
 1991 278    87  17.0  16.7  16.5  16.4  16.5  16.8  17.1  17.2   0.0   0.0
 1991 279    88  16.0  15.8  15.7  15.8  16.1  16.5  16.9  17.1   0.0   0.0
 1991 280    89  15.0  15.0  15.1  15.4  15.7  16.2  16.7  17.0   0.0   0.0
 1991 281    90  14.5  14.5  14.7  15.1  15.5  16.1  16.6  16.9   0.0   0.0
 1991 282    91  14.4  14.4  14.6  15.0  15.4  16.0  16.6  16.9   0.0   0.0
 1991 283    92  16.0  15.8  15.7  15.8  16.0  16.4  16.8  17.1   0.0   0.0
 1991 284    93  18.2  17.8  17.3  17.0  16.9  17.0  17.2  17.3   0.0   0.0
 1991 285    94  21.1  20.3  19.2  18.4  18.0  17.7  17.6  17.6   0.0   0.0
 1991 286    95  24.2  22.9  21.3  20.0  19.1  18.5  18.1  18.0   0.0   0.0
 1991 287    96  26.2  24.7  22.7  21.0  19.9  19.0  18.4  18.2   0.0   0.0
 1991 288    97  26.4  24.9  22.8  21.1  20.0  19.0  18.4  18.2   0.0   0.0
 1991 289    98  25.1  23.7  22.0  20.5  19.5  18.7  18.2  18.1   0.0   0.0
 1991 290    99  22.7  21.7  20.3  19.3  18.6  18.1  17.8  17.8   0.0   0.0
 1991 291   100  20.6  19.8  18.9  18.1  17.7  17.5  17.5  17.5   0.0   0.0
 1991 292   101  19.4  18.8  18.0  17.5  17.2  17.2  17.3  17.4   0.0   0.0
 1991 293   102  19.7  19.0  18.2  17.6  17.4  17.2  17.3  17.4   0.0   0.0
 1991 294   103  21.8  20.9  19.7  18.7  18.2  17.8  17.6  17.6   0.0   0.0
 1991 295   104  24.4  23.1  21.5  20.1  19.2  18.4  18.1  17.9   0.0   0.0
 1991 296   105  24.1  22.9  21.2  19.9  19.0  18.3  18.0  17.9   0.0   0.0
 1991 297   106  22.6  21.6  20.2  19.1  18.5  18.0  17.7  17.7   0.0   0.0
 1991 298   107  21.7  20.8  19.6  18.7  18.1  17.7  17.6  17.6   0.0   0.0
 1991 299   108  20.9  20.1  19.0  18.2  17.8  17.5  17.4  17.5   0.0   0.0
 1991 300   109  19.6  18.9  18.1  17.6  17.3  17.2  17.2  17.3   0.0   0.0
 1991 301   110  19.7  19.0  18.2  17.6  17.3  17.2  17.2  17.3   0.0   0.0
 1991 302   111  19.8  19.2  18.3  17.7  17.4  17.2  17.3  17.3   0.0   0.0
 1991 303   112  19.4  18.8  18.0  17.5  17.2  17.1  17.2  17.3   0.0   0.0
 1991 304   113  18.5  18.0  17.4  17.0  16.8  16.8  17.0  17.2   0.0   0.0
 1991 305   114  18.3  17.9  17.3  16.9  16.8  16.8  17.0  17.1   0.0   0.0
 1991 306   115  18.8  18.3  17.6  17.2  16.9  16.9  17.1  17.2   0.0   0.0
 1991 307   116  19.8  19.1  18.3  17.6  17.3  17.2  17.2  17.3   0.0   0.0
 1991 308   117  21.2  20.3  19.2  18.3  17.8  17.5  17.4  17.4   0.0   0.0
 1991 309   118  22.2  21.2  19.9  18.9  18.2  17.7  17.6  17.5   0.0   0.0
 1991 310   119  22.6  21.5  20.2  19.1  18.4  17.8  17.6  17.6   0.0   0.0
 1991 311   120  22.7  21.6  20.2  19.1  18.4  17.8  17.6  17.6   0.0   0.0
 1991 312   121  22.4  21.4  20.1  19.0  18.3  17.8  17.6  17.5   0.0   0.0
 1991 313   122  22.2  21.2  19.9  18.9  18.2  17.7  17.5  17.5   0.0   0.0
 1991 314   123  22.0  21.1  19.8  18.8  18.1  17.7  17.5  17.5   0.0   0.0
 1991 315   124  21.2  20.3  19.2  18.3  17.8  17.4  17.4  17.4   0.0   0.0
 1991 316   125  20.5  19.7  18.8  18.0  17.5  17.3  17.2  17.3   0.0   0.0
 1991 317   126  20.3  19.5  18.6  17.9  17.5  17.2  17.2  17.3   0.0   0.0
 1991 318   127  19.3  18.7  18.0  17.4  17.1  17.0  17.1  17.2   0.0   0.0
 1991 319   128  18.7  18.2  17.5  17.1  16.9  16.8  17.0  17.1   0.0   0.0
 1991 320   129  19.4  18.7  18.0  17.4  17.1  17.0  17.0  17.1   0.0   0.0
 1991 321   130  20.0  19.3  18.4  17.7  17.4  17.1  17.1  17.2   0.0   0.0
 1991 322   131  21.2  20.4  19.2  18.4  17.8  17.4  17.3  17.3   0.0   0.0
 1991 323   132  21.9  20.9  19.7  18.7  18.0  17.6  17.4  17.4   0.0   0.0
 1991 324   133  22.4  21.4  20.1  19.0  18.3  17.7  17.5  17.5   0.0   0.0
 1991 325   134  23.6  22.4  20.9  19.6  18.7  18.0  17.7  17.6   0.0   0.0
 1991 326   135  25.5  24.1  22.2  20.5  19.4  18.5  18.0  17.8   0.0   0.0
 1991 327   136  27.1  25.5  23.3  21.3  20.0  18.8  18.2  18.0   0.0   0.0
 1991 328   137  26.7  25.1  23.0  21.1  19.9  18.7  18.1  17.9   0.0   0.0
 1991 329   138  25.6  24.2  22.3  20.6  19.5  18.5  18.0  17.8   0.0   0.0
 1991 330   139  24.0  22.8  21.2  19.8  18.9  18.1  17.7  17.6   0.0   0.0
 1991 331   140  22.1  21.2  20.0  18.9  18.2  17.7  17.4  17.4   0.0   0.0
 1991 332   141  20.9  20.1  19.1  18.3  17.7  17.3  17.2  17.2   0.0   0.0
 1991 333   142  21.9  21.0  19.8  18.8  18.1  17.6  17.4  17.4   0.0   0.0
 1991 334   143  23.8  22.7  21.1  19.8  18.9  18.1  17.7  17.6   0.0   0.0
 1991 335   144  25.4  24.0  22.2  20.6  19.5  18.5  17.9  17.8   0.0   0.0
 1991 336   145  26.7  25.1  23.1  21.3  20.0  18.8  18.1  17.9   0.0   0.0
 1991 337   146  26.5  25.0  23.0  21.2  19.9  18.7  18.1  17.9   0.0   0.0
 1991 338   147  27.6  26.0  23.7  21.7  20.3  19.0  18.3  18.0   0.0   0.0
 1991 339   148  27.3  25.7  23.5  21.6  20.2  18.9  18.2  18.0   0.0   0.0
 1991 340   149  28.1  26.4  24.1  22.0  20.5  19.2  18.4  18.0   0.0   0.0
 1991 341   150  27.6  26.0  23.8  21.8  20.4  19.0  18.3  18.0   0.0   0.0
 1991 342   151  28.2  26.5  24.1  22.0  20.6  19.2  18.4  18.0   0.0   0.0
 1991 343   152  26.6  25.1  23.1  21.3  20.0  18.8  18.1  17.9   0.0   0.0
 1991 344   153  26.6  25.1  23.1  21.3  20.0  18.8  18.1  17.9   0.0   0.0
 1991 345   154  25.7  24.4  22.5  20.8  19.7  18.6  18.0  17.8   0.0   0.0
 1991 346   155  24.9  23.6  21.9  20.4  19.3  18.4  17.8  17.7   0.0   0.0
 1991 347   156  24.6  23.4  21.7  20.3  19.2  18.3  17.8  17.6   0.0   0.0
 1991 348   157  24.4  23.2  21.6  20.2  19.2  18.2  17.8  17.6   0.0   0.0
 1991 349   158  23.5  22.5  21.1  19.8  18.9  18.0  17.6  17.5   0.0   0.0
 1991 350   159  23.4  22.4  21.0  19.7  18.8  18.0  17.6  17.5   0.0   0.0
 1991 351   160  24.3  23.1  21.6  20.2  19.2  18.2  17.8  17.6   0.0   0.0
 1991 352   161  24.8  23.6  21.9  20.4  19.4  18.4  17.8  17.6   0.0   0.0
 1991 353   162  26.4  25.0  23.0  21.3  20.0  18.8  18.1  17.8   0.0   0.0
 1991 354   163  28.0  26.4  24.2  22.2  20.7  19.2  18.4  18.0   0.0   0.0
 1991 355   164  29.2  27.4  25.0  22.8  21.1  19.5  18.6  18.2   0.0   0.0
 1991 356   165  29.0  27.3  24.9  22.7  21.1  19.5  18.5  18.1   0.0   0.0
 1991 357   166  28.8  27.1  24.7  22.6  21.0  19.4  18.5  18.1   0.0   0.0
 1991 358   167  28.8  27.2  24.8  22.6  21.1  19.5  18.5  18.1   0.0   0.0
 1991 359   168  27.8  26.3  24.1  22.1  20.7  19.2  18.4  18.0   0.0   0.0
 1991 360   169  26.1  24.8  22.9  21.2  20.0  18.8  18.1  17.8   0.0   0.0
 1991 361   170  25.8  24.5  22.7  21.1  19.9  18.7  18.0  17.8   0.0   0.0
 1991 362   171  25.3  24.1  22.4  20.8  19.7  18.6  17.9  17.7   0.0   0.0
 1991 363   172  25.0  23.8  22.2  20.7  19.6  18.5  17.9  17.7   0.0   0.0
 1991 364   173  25.8  24.5  22.7  21.1  19.9  18.7  18.0  17.8   0.0   0.0
 1991 365   174  27.5  26.0  23.9  22.0  20.6  19.1  18.3  18.0   0.0   0.0
 1992 001   175  27.9  26.4  24.2  22.2  20.7  19.2  18.4  18.0   0.0   0.0
 1992 002   176  28.2  26.6  24.4  22.3  20.8  19.3  18.4  18.0   0.0   0.0
 1992 003   177  27.1  25.7  23.7  21.8  20.4  19.0  18.2  17.9   0.0   0.0
 1992 004   178  26.5  25.2  23.3  21.5  20.2  18.9  18.2  17.9   0.0   0.0
 1992 005   179  26.0  24.7  22.9  21.2  20.0  18.8  18.1  17.8   0.0   0.0
 1992 006   180  25.8  24.6  22.8  21.2  19.9  18.7  18.0  17.8   0.0   0.0

*DSSAT Cropping System Model Ver. 4.0.2.000               Jul 20, 2016; 12:14:04

*RUN   3        : UYMZ                    
 MODEL          : MZCER040 - Maize           
 EXPERIMENT     : UYMZ0060 MZ    late to create DSS                             
 TREATMENT  1   : UYMZ                    

@YEAR DOY   DAS  TS1D  TS2D  TS3D  TS4D  TS5D  TS6D  TS7D  TS8D  TS9D  TS10
 1992 191     0  14.2  14.8  15.5  16.3  16.9  17.4  17.6  17.6   0.0   0.0
 1992 192     1  15.4  15.8  16.3  16.9  17.3  17.6  17.8  17.7   0.0   0.0
 1992 193     2  16.8  17.0  17.3  17.6  17.8  18.0  18.0  17.9   0.0   0.0
 1992 194     3  18.4  18.3  18.3  18.4  18.4  18.4  18.2  18.1   0.0   0.0
 1992 195     4  20.1  19.8  19.5  19.2  19.0  18.8  18.5  18.2   0.0   0.0
 1992 196     5  19.5  19.3  19.1  18.9  18.8  18.6  18.4  18.2   0.0   0.0
 1992 197     6  17.0  17.1  17.3  17.6  17.8  18.0  18.0  17.9   0.0   0.0
 1992 198     7  13.8  14.3  15.2  16.0  16.6  17.2  17.5  17.5   0.0   0.0
 1992 199     8  10.8  11.8  13.1  14.4  15.4  16.4  17.0  17.2   0.0   0.0
 1992 200     9   7.7   9.0  11.0  12.8  14.2  15.6  16.5  16.8   0.0   0.0
 1992 201    10   6.7   8.2  10.3  12.3  13.8  15.4  16.3  16.7   0.0   0.0
 1992 202    11   7.9   9.2  11.1  12.9  14.2  15.6  16.5  16.9   0.0   0.0
 1992 203    12   8.7   9.9  11.6  13.3  14.5  15.8  16.6  16.9   0.0   0.0
 1992 204    13   8.7   9.9  11.6  13.3  14.5  15.8  16.6  16.9   0.0   0.0
 1992 205    14   8.8  10.0  11.7  13.3  14.6  15.8  16.6  16.9   0.0   0.0
 1992 206    15   8.7   9.9  11.6  13.2  14.5  15.8  16.6  16.9   0.0   0.0
 1992 207    16   8.6   9.8  11.5  13.2  14.4  15.8  16.6  16.9   0.0   0.0
 1992 208    17   9.1  10.2  11.8  13.4  14.6  15.9  16.6  17.0   0.0   0.0
 1992 209    18  10.2  11.1  12.6  13.9  15.0  16.1  16.8  17.1   0.0   0.0
 1992 210    19  10.6  11.5  12.8  14.1  15.1  16.2  16.9  17.1   0.0   0.0
 1992 211    20  11.9  12.6  13.7  14.8  15.6  16.5  17.1  17.3   0.0   0.0
 1992 212    21  11.8  12.5  13.6  14.7  15.6  16.5  17.0  17.2   0.0   0.0
 1992 213    22  11.2  12.0  13.2  14.4  15.4  16.3  16.9  17.2   0.0   0.0
 1992 214    23  10.3  11.2  12.6  13.9  15.0  16.1  16.8  17.1   0.0   0.0
 1992 215    24  10.5  11.3  12.7  14.0  15.0  16.1  16.8  17.1   0.0   0.0
 1992 216    25   9.8  10.8  12.2  13.6  14.8  15.9  16.7  17.0   0.0   0.0
 1992 217    26   9.5  10.5  11.9  13.4  14.6  15.8  16.6  16.9   0.0   0.0
 1992 218    27  10.4  11.3  12.6  13.9  15.0  16.1  16.8  17.1   0.0   0.0
 1992 219    28  13.2  13.7  14.5  15.3  16.0  16.7  17.2  17.4   0.0   0.0
 1992 220    29  14.7  14.9  15.5  16.0  16.5  17.1  17.4  17.5   0.0   0.0
 1992 221    30  14.4  14.7  15.3  15.9  16.4  17.0  17.4  17.5   0.0   0.0
 1992 222    31  14.4  14.7  15.3  15.9  16.4  17.0  17.3  17.5   0.0   0.0
 1992 223    32  14.4  14.7  15.2  15.9  16.4  17.0  17.3  17.5   0.0   0.0
 1992 224    33  12.8  13.3  14.1  15.0  15.7  16.6  17.1  17.3   0.0   0.0
 1992 225    34  12.1  12.7  13.7  14.7  15.5  16.4  17.0  17.2   0.0   0.0
 1992 226    35  13.2  13.7  14.4  15.2  15.9  16.6  17.1  17.3   0.0   0.0
 1992 227    36  14.3  14.6  15.1  15.7  16.3  16.9  17.3  17.4   0.0   0.0
 1992 228    37  14.8  15.0  15.4  16.0  16.5  17.0  17.3  17.5   0.0   0.0
 1992 229    38  16.0  16.1  16.3  16.6  16.9  17.3  17.5  17.6   0.0   0.0
 1992 230    39  17.2  17.1  17.1  17.2  17.4  17.6  17.7  17.7   0.0   0.0
 1992 231    40  17.9  17.7  17.5  17.5  17.6  17.7  17.8  17.8   0.0   0.0
 1992 232    41  18.2  18.0  17.7  17.7  17.7  17.8  17.8  17.8   0.0   0.0
 1992 233    42  18.4  18.1  17.9  17.8  17.8  17.8  17.9  17.8   0.0   0.0
 1992 234    43  18.7  18.3  18.0  17.8  17.8  17.9  17.9  17.9   0.0   0.0
 1992 235    44  18.3  18.0  17.8  17.7  17.7  17.8  17.8  17.8   0.0   0.0
 1992 236    45  18.2  17.9  17.6  17.6  17.6  17.7  17.8  17.8   0.0   0.0
 1992 237    46  18.4  18.1  17.8  17.7  17.7  17.8  17.8  17.8   0.0   0.0
 1992 238    47  18.9  18.5  18.1  17.9  17.8  17.8  17.9  17.8   0.0   0.0
 1992 239    48  18.4  18.1  17.8  17.6  17.6  17.7  17.8  17.8   0.0   0.0
 1992 240    49  19.1  18.7  18.2  18.0  17.9  17.9  17.9  17.9   0.0   0.0
 1992 241    50  19.1  18.6  18.2  17.9  17.9  17.8  17.9  17.8   0.0   0.0
 1992 242    51  19.6  19.1  18.5  18.2  18.0  18.0  17.9  17.9   0.0   0.0
 1992 243    52  19.6  19.1  18.5  18.2  18.0  18.0  17.9  17.9   0.0   0.0
 1992 244    53  18.6  18.2  17.9  17.7  17.6  17.7  17.8  17.8   0.0   0.0
 1992 245    54  16.7  16.6  16.5  16.7  16.9  17.2  17.4  17.5   0.0   0.0
 1992 246    55  15.8  15.8  15.9  16.2  16.5  17.0  17.3  17.4   0.0   0.0
 1992 247    56  14.6  14.8  15.1  15.6  16.0  16.6  17.1  17.3   0.0   0.0
 1992 248    57  14.2  14.4  14.8  15.3  15.9  16.5  17.0  17.2   0.0   0.0
 1992 249    58  15.3  15.3  15.5  15.9  16.3  16.8  17.2  17.3   0.0   0.0
 1992 250    59  16.3  16.2  16.2  16.4  16.6  17.0  17.3  17.4   0.0   0.0
 1992 251    60  17.5  17.2  17.0  17.0  17.1  17.3  17.5  17.6   0.0   0.0
 1992 252    61  18.0  17.7  17.3  17.2  17.3  17.4  17.6  17.6   0.0   0.0
 1992 253    62  18.3  17.9  17.5  17.3  17.3  17.5  17.6  17.6   0.0   0.0
 1992 254    63  18.4  18.0  17.6  17.4  17.4  17.5  17.6  17.6   0.0   0.0
 1992 255    64  18.8  18.3  17.9  17.6  17.5  17.6  17.6  17.7   0.0   0.0
 1992 256    65  18.7  18.2  17.8  17.5  17.5  17.5  17.6  17.6   0.0   0.0
 1992 257    66  18.1  17.7  17.4  17.2  17.2  17.4  17.5  17.6   0.0   0.0
 1992 258    67  18.0  17.6  17.3  17.1  17.1  17.3  17.5  17.5   0.0   0.0
 1992 259    68  18.0  17.6  17.2  17.1  17.1  17.3  17.5  17.5   0.0   0.0
 1992 260    69  18.1  17.7  17.3  17.2  17.2  17.3  17.5  17.5   0.0   0.0
 1992 261    70  19.3  18.7  18.1  17.7  17.6  17.6  17.6  17.7   0.0   0.0
 1992 262    71  19.5  18.9  18.3  17.8  17.7  17.6  17.7  17.7   0.0   0.0
 1992 263    72  19.5  18.9  18.3  17.8  17.7  17.6  17.6  17.7   0.0   0.0
 1992 264    73  20.2  19.5  18.7  18.1  17.9  17.8  17.7  17.7   0.0   0.0
 1992 265    74  21.5  20.6  19.6  18.8  18.4  18.1  17.9  17.9   0.0   0.0
 1992 266    75  19.3  18.7  18.1  17.7  17.5  17.5  17.6  17.6   0.0   0.0
 1992 267    76  19.3  18.7  18.1  17.7  17.5  17.5  17.6  17.6   0.0   0.0
 1992 268    77  18.3  17.9  17.4  17.2  17.1  17.2  17.4  17.5   0.0   0.0
 1992 269    78  16.2  16.0  16.0  16.1  16.3  16.7  17.0  17.2   0.0   0.0
 1992 270    79  13.4  13.6  14.0  14.6  15.2  16.0  16.6  16.9   0.0   0.0
 1992 271    80  14.3  14.4  14.6  15.1  15.5  16.2  16.7  17.0   0.0   0.0
 1992 272    81  15.0  15.0  15.1  15.4  15.8  16.3  16.8  17.1   0.0   0.0
 1992 273    82  16.6  16.4  16.2  16.2  16.4  16.7  17.1  17.2   0.0   0.0
 1992 274    83  19.1  18.5  17.9  17.5  17.3  17.3  17.4  17.5   0.0   0.0
 1992 275    84  21.1  20.3  19.3  18.5  18.1  17.8  17.7  17.7   0.0   0.0
 1992 276    85  21.6  20.7  19.6  18.7  18.3  17.9  17.8  17.8   0.0   0.0
 1992 277    86  21.5  20.6  19.5  18.7  18.2  17.9  17.8  17.7   0.0   0.0
 1992 278    87  21.8  20.9  19.7  18.8  18.3  18.0  17.8  17.8   0.0   0.0
 1992 279    88  20.4  19.6  18.7  18.1  17.8  17.6  17.6  17.6   0.0   0.0
 1992 280    89  18.9  18.3  17.7  17.3  17.2  17.2  17.3  17.4   0.0   0.0
 1992 281    90  17.8  17.4  16.9  16.7  16.7  16.9  17.1  17.3   0.0   0.0
 1992 282    91  17.4  17.0  16.7  16.5  16.6  16.8  17.1  17.2   0.0   0.0
 1992 283    92  16.7  16.5  16.2  16.2  16.3  16.6  17.0  17.2   0.0   0.0
 1992 284    93  18.0  17.6  17.1  16.8  16.8  16.9  17.2  17.3   0.0   0.0
 1992 285    94  19.7  19.0  18.2  17.7  17.4  17.4  17.4  17.5   0.0   0.0
 1992 286    95  21.3  20.5  19.4  18.5  18.1  17.7  17.7  17.6   0.0   0.0
 1992 287    96  22.6  21.6  20.2  19.2  18.5  18.0  17.8  17.8   0.0   0.0
 1992 288    97  24.2  22.9  21.3  20.0  19.1  18.4  18.1  17.9   0.0   0.0
 1992 289    98  24.9  23.5  21.7  20.3  19.4  18.6  18.2  18.0   0.0   0.0
 1992 290    99  24.1  22.8  21.2  19.9  19.0  18.4  18.0  17.9   0.0   0.0
 1992 291   100  23.5  22.4  20.8  19.6  18.8  18.2  17.9  17.8   0.0   0.0
 1992 292   101  22.8  21.7  20.3  19.2  18.5  18.0  17.8  17.7   0.0   0.0
 1992 293   102  20.9  20.1  19.0  18.2  17.8  17.6  17.5  17.5   0.0   0.0
 1992 294   103  19.1  18.5  17.8  17.3  17.1  17.1  17.2  17.3   0.0   0.0
 1992 295   104  19.1  18.5  17.8  17.3  17.1  17.1  17.2  17.3   0.0   0.0
 1992 296   105  19.6  19.0  18.2  17.6  17.3  17.2  17.3  17.4   0.0   0.0
 1992 297   106  20.7  19.9  18.9  18.1  17.7  17.5  17.4  17.5   0.0   0.0
 1992 298   107  22.9  21.8  20.4  19.2  18.5  18.0  17.8  17.7   0.0   0.0
 1992 299   108  24.2  22.9  21.2  19.9  19.0  18.3  18.0  17.8   0.0   0.0
 1992 300   109  25.4  24.0  22.1  20.5  19.5  18.6  18.1  18.0   0.0   0.0
 1992 301   110  26.6  25.0  22.9  21.1  19.9  18.9  18.3  18.1   0.0   0.0
 1992 302   111  24.4  23.1  21.4  20.0  19.1  18.3  18.0  17.8   0.0   0.0
 1992 303   112  22.8  21.7  20.3  19.1  18.4  17.9  17.7  17.6   0.0   0.0
 1992 304   113  22.0  21.0  19.8  18.8  18.2  17.7  17.6  17.6   0.0   0.0
 1992 305   114  21.3  20.4  19.2  18.4  17.9  17.5  17.5  17.5   0.0   0.0
 1992 306   115  20.7  19.9  18.8  18.1  17.6  17.4  17.4  17.4   0.0   0.0
 1992 307   116  23.4  22.2  20.7  19.4  18.6  18.0  17.8  17.7   0.0   0.0
 1992 308   117  23.2  22.1  20.6  19.3  18.6  18.0  17.7  17.7   0.0   0.0
 1992 309   118  22.0  21.0  19.7  18.7  18.1  17.7  17.5  17.5   0.0   0.0
 1992 310   119  20.6  19.8  18.8  18.0  17.6  17.3  17.3  17.4   0.0   0.0
 1992 311   120  19.1  18.5  17.8  17.3  17.0  17.0  17.1  17.2   0.0   0.0
 1992 312   121  17.5  17.1  16.7  16.4  16.4  16.6  16.8  17.0   0.0   0.0
 1992 313   122  18.3  17.8  17.3  16.9  16.7  16.8  16.9  17.1   0.0   0.0
 1992 314   123  21.0  20.2  19.1  18.2  17.7  17.4  17.4  17.4   0.0   0.0
 1992 315   124  22.2  21.2  19.9  18.8  18.2  17.7  17.5  17.5   0.0   0.0
 1992 316   125  23.8  22.6  21.0  19.6  18.8  18.1  17.8  17.7   0.0   0.0
 1992 317   126  25.4  23.9  22.0  20.4  19.3  18.4  18.0  17.8   0.0   0.0
 1992 318   127  26.0  24.5  22.4  20.7  19.6  18.6  18.1  17.9   0.0   0.0
 1992 319   128  26.1  24.6  22.5  20.8  19.6  18.6  18.1  17.9   0.0   0.0
 1992 320   129  26.9  25.2  23.0  21.2  19.9  18.8  18.2  18.0   0.0   0.0
 1992 321   130  25.7  24.2  22.3  20.6  19.5  18.5  18.0  17.8   0.0   0.0
 1992 322   131  24.2  22.9  21.3  19.8  18.9  18.1  17.8  17.7   0.0   0.0
 1992 323   132  23.4  22.2  20.7  19.4  18.6  17.9  17.6  17.6   0.0   0.0
 1992 324   133  23.0  21.9  20.4  19.2  18.4  17.8  17.6  17.5   0.0   0.0
 1992 325   134  23.6  22.4  20.8  19.5  18.7  18.0  17.7  17.6   0.0   0.0
 1992 326   135  23.5  22.3  20.8  19.5  18.6  18.0  17.6  17.6   0.0   0.0
 1992 327   136  23.1  22.0  20.5  19.3  18.5  17.9  17.6  17.5   0.0   0.0
 1992 328   137  22.4  21.4  20.0  18.9  18.2  17.7  17.5  17.4   0.0   0.0
 1992 329   138  21.9  20.9  19.7  18.7  18.0  17.5  17.4  17.4   0.0   0.0
 1992 330   139  20.9  20.1  19.0  18.2  17.7  17.3  17.2  17.3   0.0   0.0
 1992 331   140  21.7  20.8  19.6  18.6  18.0  17.5  17.4  17.4   0.0   0.0
 1992 332   141  23.2  22.1  20.6  19.3  18.5  17.9  17.6  17.5   0.0   0.0
 1992 333   142  24.5  23.2  21.5  20.0  19.0  18.2  17.8  17.6   0.0   0.0
 1992 334   143  25.2  23.8  22.0  20.4  19.3  18.3  17.9  17.7   0.0   0.0
 1992 335   144  26.0  24.5  22.5  20.8  19.6  18.5  18.0  17.8   0.0   0.0
 1992 336   145  25.9  24.4  22.5  20.8  19.6  18.5  18.0  17.8   0.0   0.0
 1992 337   146  25.5  24.1  22.2  20.5  19.4  18.4  17.9  17.7   0.0   0.0
 1992 338   147  25.5  24.1  22.2  20.5  19.4  18.4  17.9  17.7   0.0   0.0
 1992 339   148  25.5  24.1  22.2  20.6  19.4  18.4  17.9  17.7   0.0   0.0
 1992 340   149  25.4  24.0  22.2  20.5  19.4  18.4  17.9  17.7   0.0   0.0
 1992 341   150  26.3  24.8  22.8  21.0  19.7  18.6  18.0  17.8   0.0   0.0
 1992 342   151  26.6  25.1  23.0  21.1  19.9  18.7  18.1  17.8   0.0   0.0
 1992 343   152  26.7  25.2  23.1  21.2  19.9  18.7  18.1  17.8   0.0   0.0
 1992 344   153  26.2  24.8  22.7  21.0  19.7  18.6  18.0  17.8   0.0   0.0
 1992 345   154  26.2  24.7  22.7  20.9  19.7  18.6  18.0  17.8   0.0   0.0
 1992 346   155  25.6  24.2  22.3  20.7  19.5  18.4  17.9  17.7   0.0   0.0
 1992 347   156  25.8  24.4  22.5  20.8  19.6  18.5  17.9  17.7   0.0   0.0
 1992 348   157  26.3  24.8  22.8  21.0  19.8  18.6  18.0  17.8   0.0   0.0
 1992 349   158  26.8  25.2  23.1  21.2  19.9  18.7  18.1  17.8   0.0   0.0
 1992 350   159  27.0  25.4  23.3  21.4  20.0  18.8  18.1  17.8   0.0   0.0
 1992 351   160  27.5  25.9  23.7  21.6  20.2  18.9  18.2  17.9   0.0   0.0
 1992 352   161  27.5  25.9  23.7  21.6  20.2  18.9  18.2  17.9   0.0   0.0
 1992 353   162  27.5  25.9  23.7  21.7  20.2  18.9  18.2  17.9   0.0   0.0
 1992 354   163  27.7  26.0  23.8  21.7  20.3  18.9  18.2  17.9   0.0   0.0
 1992 355   164  28.7  26.9  24.5  22.3  20.7  19.2  18.3  18.0   0.0   0.0
 1992 356   165  29.3  27.4  24.9  22.6  20.9  19.3  18.4  18.1   0.0   0.0
 1992 357   166  29.5  27.6  25.0  22.7  21.0  19.4  18.5  18.1   0.0   0.0
 1992 358   167  28.8  27.1  24.6  22.4  20.8  19.2  18.4  18.0   0.0   0.0
 1992 359   168  28.7  27.0  24.5  22.3  20.7  19.2  18.4  18.0   0.0   0.0
 1992 360   169  27.5  25.9  23.7  21.8  20.3  19.0  18.2  17.9   0.0   0.0
 1992 361   170  26.6  25.2  23.2  21.3  20.0  18.8  18.1  17.8   0.0   0.0
 1992 362   171  26.7  25.2  23.2  21.4  20.0  18.8  18.1  17.8   0.0   0.0
 1992 363   172  27.6  26.0  23.8  21.8  20.4  19.0  18.2  17.9   0.0   0.0
 1992 364   173  26.9  25.5  23.4  21.5  20.1  18.8  18.1  17.8   0.0   0.0
 1992 365   174  26.2  24.8  22.9  21.1  19.9  18.7  18.0  17.8   0.0   0.0
 1992 366   175  24.9  23.7  22.0  20.5  19.4  18.4  17.8  17.6   0.0   0.0
 1993 001   176  23.6  22.6  21.1  19.8  18.9  18.1  17.6  17.5   0.0   0.0
 1993 002   177  21.7  20.9  19.9  18.9  18.3  17.6  17.4  17.3   0.0   0.0
 1993 003   178  21.0  20.4  19.5  18.6  18.0  17.5  17.3  17.2   0.0   0.0
 1993 004   179  21.8  21.1  20.0  19.1  18.3  17.7  17.4  17.3   0.0   0.0
 1993 005   180  23.7  22.7  21.3  20.0  19.1  18.2  17.7  17.5   0.0   0.0
 1993 006   181  25.7  24.5  22.7  21.1  19.9  18.7  18.0  17.8   0.0   0.0
 1993 007   182  26.7  25.3  23.4  21.6  20.3  19.0  18.2  17.9   0.0   0.0
 1993 008   183  27.6  26.1  24.0  22.1  20.6  19.2  18.3  18.0   0.0   0.0
 1993 009   184  27.5  26.1  24.0  22.1  20.6  19.2  18.3  18.0   0.0   0.0
 1993 010   185  27.6  26.2  24.1  22.1  20.7  19.2  18.4  18.0   0.0   0.0
 1993 011   186  27.7  26.2  24.1  22.2  20.7  19.2  18.4  18.0   0.0   0.0
 1993 012   187  28.9  27.2  24.9  22.8  21.2  19.5  18.5  18.1   0.0   0.0
 1993 013   188  30.0  28.2  25.7  23.4  21.6  19.8  18.7  18.3   0.0   0.0
 1993 014   189  30.5  28.7  26.1  23.6  21.8  20.0  18.8  18.3   0.0   0.0
