*SIMULATION OVERVIEW FILE

*DSSAT Cropping System Model Ver. 4.0.2.000               Aug 11, 2016; 20:55:36
                                                                                
*RUN   1        : UYMZ                                                          
 MODEL          : MZCER040 - MAIZE                                              
 EXPERIMENT     : UYMZ0184 SN late to create DSS                                
 TREATMENT  1   : UYMZ                                                          
                                                                                
 CROP           : MAIZE          CULTIVAR : CMEDIO UY        ECOTYPE :IB0001    
 STARTING DATE  : AUG 11 1992                                                   
 PLANTING DATE  : AUG 14 1992    PLANTS/m2 :  7.0     ROW SPACING :  15.cm      
 WEATHER        : UYTA   1992                                                   
 SOIL           : UYSS0N2002     TEXTURE :       -  N20-02    SNIA CLAY RISS    
 SOIL INITIAL C : DEPTH:125cm EXTR. H2O:186.3mm  NO3: 74.8kg/ha  NH4: 23.9kg/ha 
 WATER BALANCE  : AUTOMATIC IRRIGATION - REFILL PROFILE                         
 IRRIGATION     : AUTOMATIC - PLANTING -> MATURITY [ SOIL DEPTH:30.00m 50.%]    
 NITROGEN BAL.  : SOIL-N & N-UPTAKE SIMULATION; NO N-FIXATION                   
 N-FERTILIZER   :        2 kg/ha IN     2 APPLICATIONS                          
 RESIDUE/MANURE : INITIAL :     0 kg/ha ;       0 kg/ha IN     0 APPLICATIONS   
 ENVIRONM. OPT. : DAYL=    0.00  SRAD=    0.00  TMAX=    0.00  TMIN=    0.00    
                  RAIN=    0.00  CO2 = R330.00  DEW =    0.00  WIND=    0.00    
 SIMULATION OPT : WATER   :Y  NITROGEN:Y  N-FIX:N  PHOSPH :N  PESTS  :N         
                  PHOTO   :C  ET      :R  INFIL:S  HYDROL :R  SOM    :G         
 MANAGEMENT OPT : PLANTING:R  IRRIG   :A  FERT :D  RESIDUE:N  HARVEST:M  WTH:M  
                                                                                
*SUMMARY OF SOIL AND GENETIC INPUT PARAMETERS                                   
                                                                                
   SOIL LOWER UPPER   SAT  EXTR  INIT   ROOT   BULK     pH    NO3    NH4    ORG 
  DEPTH LIMIT LIMIT    SW    SW    SW   DIST   DENS                          C  
   cm   cm3/cm3    cm3/cm3    cm3/cm3         g/cm3         ugN/g  ugN/g     %  
------------------------------------------------------------------------------- 
  0-  5 0.331 0.542 0.585 0.211 0.394   1.00   1.11   6.50  15.00   1.50   2.74 
  5- 15 0.331 0.542 0.585 0.211 0.394   1.00   1.11   6.50  15.00   1.50   2.74 
 15- 30 0.331 0.542 0.585 0.211 0.394   1.00   1.11   6.50  15.00   1.50   2.74 
 30- 45 0.290 0.438 0.491 0.148 0.334   0.43   1.26   6.50   8.50   1.50   1.07 
 45- 60 0.292 0.431 0.480 0.138 0.375   0.39   1.29   6.27   4.53   1.50   0.90 
 60- 90 0.293 0.419 0.466 0.126 0.419   0.32   1.34   6.00   0.00   1.50   0.64 
 90-108 0.286 0.408 0.460 0.122 0.408   0.23   1.36   6.00   0.00   1.50   0.35 
108-125 0.276 0.395 0.456 0.119 0.395   0.12   1.38   6.00   0.00   1.50   0.14 
                                                                                
TOT-125  37.3  55.9  62.1  18.6  49.1  <--cm   -  kg/ha-->   74.8   23.9 166127 
SOIL ALBEDO    : 0.09      EVAPORATION LIMIT : 6.00         MIN. FACTOR  : 1.00 
RUNOFF CURVE # :10.00      DRAINAGE RATE     : 0.40         FERT. FACTOR : 1.00 
                                                                                
 MAIZE      CULTIVAR :UY0370-CMEDIO UY          ECOTYPE :IB0001                 
 P1     : 280.00  P2     : 0.0000  P5     : 750.00                              
 G2     : 800.00  G3     :  7.500  PHINT  : 38.900                              
                                                                                
                                                                                
                                                                                
*SIMULATED CROP AND SOIL STATUS AT MAIN DEVELOPMENT STAGES

 RUN NO.     1     UYMZ                    

        CROP GROWTH   BIOMASS         LEAF   CROP N     STRESS  
   DATE  AGE STAGE      kg/ha    LAI   NUM  kg/ha  %   H2O    N 
 ------  --- ---------- -----  -----  ----  ---  ---  ----  ----
 11 AUG    0 Start Sim      0   0.00   0.0    0  0.0  0.00  0.00
 14 AUG    0 Sowing         0   0.00   0.0    0  0.0  0.00  0.00
 15 AUG    1 Germinate      0   0.00   0.0    0  0.0  0.00  0.00
 23 AUG    9 Emergence     28   0.00   1.8    1  4.4  0.00  0.00
  1 OCT   48 End Juveni   331   0.49   9.7   12  3.7  0.00  0.00
  5 OCT   52 Floral Ini   490   0.73  10.6   18  3.7  0.00  0.01
 30 NOV  108 75% Silkin  8313   3.32  22.1  105  1.3  0.00  0.05
 13 DEC  121 Beg Gr Fil 10518   2.90  22.1  112  1.1  0.00  0.08
 19 JAN  158 End Gr Fil 18037   1.09  22.1  129  0.7  0.00  0.29
 21 JAN  160 Maturity   18037   1.09  22.1  129  0.7  0.00  0.54
 21 JAN  160 Harvest    18037   1.09  22.1  129  0.7  0.00  0.00


*MAIN GROWTH AND DEVELOPMENT VARIABLES

@     VARIABLE                          SIMULATED     MEASURED
      --------                          ---------     --------
      Anthesis day (dap)                      108          -99
      Physiological maturity day (dap)        160          -99
      Yield at harvest maturity (kg [dm]/    9098          -99
      Number at maturity (no/m2)             3583          -99
      Unit wt at maturity (g [dm]/unit)    0.2540          -99
      Number at maturity (no/unit)          511.8          -99
      Tops weight at maturity (kg [dm]/ha   18037          -99
      By-product produced (stalk) at matu    9017          -99
      Leaf area index, maximum               3.45          -99
      Harvest index at maturity             0.504          -99
      Grain N at maturity (kg/ha)              94          -99
      Tops N at maturity (kg/ha)              129          -99
      Stem N at maturity (kg/ha)               35          -99
      Grain N at maturity (%)                 1.0          -99
      Tops weight at anthesis (kg [dm]/ha    8130          -99
      Tops N at anthesis (kg/ha)              105          -99
      Leaf number per stem at maturity      22.14          -99


*ENVIRONMENTAL AND STRESS FACTORS

 |-----Development Phase------|-------------Environment--------------|---------Stress----------|
                              |--------Average-------|---Cumulative--|  (0=Min, 1=Max Stress)  |
                         Time  Temp  Temp Solar Photop         Evapo |----Water---|--Nitrogen--|
                         Span   Max   Min   Rad  [day]   Rain  Trans  Photo         Photo
                         days    øC    øC MJ/m2     hr     mm     mm  synth Growth  synth Growth
------------------------------------------------------------------------------------------------
 Emergence-End Juvenile    39  19.7   8.9  15.1  11.68   61.6   64.0  0.000  0.000  0.002  0.001
 End Juvenil-Floral Init    4  23.7  11.4  16.2  12.39    2.0    8.2  0.000  0.000  0.001  0.000
 Floral Init-End Lf Grow   56  23.8  10.6  22.7  13.27  107.6  253.5  0.000  0.000  0.119  0.048
 End Lf Grth-Beg Grn Fil   13  27.4  15.0  24.4  13.99   64.0   72.2  0.000  0.000  0.215  0.086
 Grain Filling Phase       37  28.3  17.6  22.3  14.00  297.1  188.1  0.000  0.000  0.527  0.279

                     Maize YIELD :     9098 kg/ha    [Dry weight] 

************************************************************************************************

*DSSAT Cropping System Model Ver. 4.0.2.000               Aug 11, 2016; 20:55:36
                                                                                
*RUN   2        : UYMZ                                                          
 MODEL          : MZCER040 - MAIZE                                              
 EXPERIMENT     : UYMZ0184 SN late to create DSS                                
 TREATMENT  1   : UYMZ                                                          
                                                                                
 CROP           : MAIZE          CULTIVAR : CMEDIO UY        ECOTYPE :IB0001    
 STARTING DATE  : AUG 11 1992                                                   
 PLANTING DATE  : AUG 14 1992    PLANTS/m2 :  7.0     ROW SPACING :  15.cm      
 WEATHER        : UYTA   1992                                                   
 SOIL           : UYSS0N2002     TEXTURE :       -  N20-02    SNIA CLAY RISS    
 SOIL INITIAL C : DEPTH:125cm EXTR. H2O:186.3mm  NO3: 74.8kg/ha  NH4: 23.9kg/ha 
 WATER BALANCE  : AUTOMATIC IRRIGATION - REFILL PROFILE                         
 IRRIGATION     : AUTOMATIC - PLANTING -> MATURITY [ SOIL DEPTH:30.00m 50.%]    
 NITROGEN BAL.  : SOIL-N & N-UPTAKE SIMULATION; NO N-FIXATION                   
 N-FERTILIZER   :        2 kg/ha IN     2 APPLICATIONS                          
 RESIDUE/MANURE : INITIAL :     0 kg/ha ;       0 kg/ha IN     0 APPLICATIONS   
 ENVIRONM. OPT. : DAYL=    0.00  SRAD=    0.00  TMAX=    0.00  TMIN=    0.00    
                  RAIN=    0.00  CO2 = R330.00  DEW =    0.00  WIND=    0.00    
 SIMULATION OPT : WATER   :Y  NITROGEN:Y  N-FIX:N  PHOSPH :N  PESTS  :N         
                  PHOTO   :C  ET      :R  INFIL:S  HYDROL :R  SOM    :G         
 MANAGEMENT OPT : PLANTING:R  IRRIG   :A  FERT :D  RESIDUE:N  HARVEST:M  WTH:M  
                                                                                
*SUMMARY OF SOIL AND GENETIC INPUT PARAMETERS                                   
                                                                                
   SOIL LOWER UPPER   SAT  EXTR  INIT   ROOT   BULK     pH    NO3    NH4    ORG 
  DEPTH LIMIT LIMIT    SW    SW    SW   DIST   DENS                          C  
   cm   cm3/cm3    cm3/cm3    cm3/cm3         g/cm3         ugN/g  ugN/g     %  
------------------------------------------------------------------------------- 
  0-  5 0.331 0.542 0.585 0.211 0.394   1.00   1.11   6.50  15.00   1.50   2.74 
  5- 15 0.331 0.542 0.585 0.211 0.394   1.00   1.11   6.50  15.00   1.50   2.74 
 15- 30 0.331 0.542 0.585 0.211 0.394   1.00   1.11   6.50  15.00   1.50   2.74 
 30- 45 0.290 0.438 0.491 0.148 0.334   0.43   1.26   6.50   8.50   1.50   1.07 
 45- 60 0.292 0.431 0.480 0.138 0.375   0.39   1.29   6.27   4.53   1.50   0.90 
 60- 90 0.293 0.419 0.466 0.126 0.419   0.32   1.34   6.00   0.00   1.50   0.64 
 90-108 0.286 0.408 0.460 0.122 0.408   0.23   1.36   6.00   0.00   1.50   0.35 
108-125 0.276 0.395 0.456 0.119 0.395   0.12   1.38   6.00   0.00   1.50   0.14 
                                                                                
TOT-125  37.3  55.9  62.1  18.6  49.1  <--cm   -  kg/ha-->   74.8   23.9 166127 
SOIL ALBEDO    : 0.09      EVAPORATION LIMIT : 6.00         MIN. FACTOR  : 1.00 
RUNOFF CURVE # :10.00      DRAINAGE RATE     : 0.40         FERT. FACTOR : 1.00 
                                                                                
 MAIZE      CULTIVAR :UY0370-CMEDIO UY          ECOTYPE :IB0001                 
 P1     : 280.00  P2     : 0.0000  P5     : 750.00                              
 G2     : 800.00  G3     :  7.500  PHINT  : 38.900                              
                                                                                
                                                                                
                                                                                
*SIMULATED CROP AND SOIL STATUS AT MAIN DEVELOPMENT STAGES

 RUN NO.     2     UYMZ                    

        CROP GROWTH   BIOMASS         LEAF   CROP N     STRESS  
   DATE  AGE STAGE      kg/ha    LAI   NUM  kg/ha  %   H2O    N 
 ------  --- ---------- -----  -----  ----  ---  ---  ----  ----
 12 AUG    0 Start Sim      0   0.00   0.0    0  0.0  0.00  0.00
 15 AUG    0 Sowing         0   0.00   0.0    0  0.0  0.00  0.00
 16 AUG    1 Germinate      0   0.00   0.0    0  0.0  0.00  0.00
 27 AUG   12 Emergence     28   0.00   2.0    1  4.4  0.00  0.00
  7 OCT   53 End Juveni   361   0.66   9.9   14  3.8  0.00  0.00
 11 OCT   57 Floral Ini   679   1.09  11.5   25  3.7  0.00  0.01
  3 DEC  110 75% Silkin  8912   4.09  24.0  118  1.3  0.00  0.05
 15 DEC  122 Beg Gr Fil 10976   3.66  24.0  123  1.1  0.00  0.07
 24 JAN  162 End Gr Fil 19265   1.52  24.0  142  0.7  0.00  0.23
 26 JAN  164 Maturity   19265   1.52  24.0  142  0.7  0.00  0.53
 26 JAN  164 Harvest    19265   1.52  24.0  142  0.7  0.00  0.00


*MAIN GROWTH AND DEVELOPMENT VARIABLES

@     VARIABLE                          SIMULATED     MEASURED
      --------                          ---------     --------
      Anthesis day (dap)                      110          -99
      Physiological maturity day (dap)        164          -99
      Yield at harvest maturity (kg [dm]/    8633          -99
      Number at maturity (no/m2)             3301          -99
      Unit wt at maturity (g [dm]/unit)    0.2616          -99
      Number at maturity (no/unit)          471.5          -99
      Tops weight at maturity (kg [dm]/ha   19265          -99
      By-product produced (stalk) at matu   10720          -99
      Leaf area index, maximum               4.34          -99
      Harvest index at maturity             0.448          -99
      Grain N at maturity (kg/ha)              96          -99
      Tops N at maturity (kg/ha)              142          -99
      Stem N at maturity (kg/ha)               46          -99
      Grain N at maturity (%)                 1.1          -99
      Tops weight at anthesis (kg [dm]/ha    8718          -99
      Tops N at anthesis (kg/ha)              117          -99
      Leaf number per stem at maturity      24.03          -99


*ENVIRONMENTAL AND STRESS FACTORS

 |-----Development Phase------|-------------Environment--------------|---------Stress----------|
                              |--------Average-------|---Cumulative--|  (0=Min, 1=Max Stress)  |
                         Time  Temp  Temp Solar Photop         Evapo |----Water---|--Nitrogen--|
                         Span   Max   Min   Rad  [day]   Rain  Trans  Photo         Photo
                         days    øC    øC MJ/m2     hr     mm     mm  synth Growth  synth Growth
------------------------------------------------------------------------------------------------
 Emergence-End Juvenile    41  19.5   9.5  13.7  11.81   89.5   66.6  0.000  0.000  0.002  0.001
 End Juvenil-Floral Init    4  25.1   9.5  21.6  12.55    0.0   12.3  0.000  0.000  0.002  0.001
 Floral Init-End Lf Grow   53  24.0  13.8  18.2  13.36  271.5  205.0  0.000  0.000  0.123  0.049
 End Lf Grth-Beg Grn Fil   12  27.4  16.6  21.8  14.00  162.1   57.1  0.000  0.000  0.193  0.077
 Grain Filling Phase       40  27.6  15.6  26.7  13.97  122.0  234.7  0.000  0.000  0.440  0.214

                     Maize YIELD :     8633 kg/ha    [Dry weight] 

************************************************************************************************

*DSSAT Cropping System Model Ver. 4.0.2.000               Aug 11, 2016; 20:55:36
                                                                                
*RUN   3        : UYMZ                                                          
 MODEL          : MZCER040 - MAIZE                                              
 EXPERIMENT     : UYMZ0184 SN late to create DSS                                
 TREATMENT  1   : UYMZ                                                          
                                                                                
 CROP           : MAIZE          CULTIVAR : CMEDIO UY        ECOTYPE :IB0001    
 STARTING DATE  : AUG 11 1992                                                   
 PLANTING DATE  : AUG 14 1992    PLANTS/m2 :  7.0     ROW SPACING :  15.cm      
 WEATHER        : UYTA   1992                                                   
 SOIL           : UYSS0N2002     TEXTURE :       -  N20-02    SNIA CLAY RISS    
 SOIL INITIAL C : DEPTH:125cm EXTR. H2O:186.3mm  NO3: 74.8kg/ha  NH4: 23.9kg/ha 
 WATER BALANCE  : AUTOMATIC IRRIGATION - REFILL PROFILE                         
 IRRIGATION     : AUTOMATIC - PLANTING -> MATURITY [ SOIL DEPTH:30.00m 50.%]    
 NITROGEN BAL.  : SOIL-N & N-UPTAKE SIMULATION; NO N-FIXATION                   
 N-FERTILIZER   :        2 kg/ha IN     2 APPLICATIONS                          
 RESIDUE/MANURE : INITIAL :     0 kg/ha ;       0 kg/ha IN     0 APPLICATIONS   
 ENVIRONM. OPT. : DAYL=    0.00  SRAD=    0.00  TMAX=    0.00  TMIN=    0.00    
                  RAIN=    0.00  CO2 = R330.00  DEW =    0.00  WIND=    0.00    
 SIMULATION OPT : WATER   :Y  NITROGEN:Y  N-FIX:N  PHOSPH :N  PESTS  :N         
                  PHOTO   :C  ET      :R  INFIL:S  HYDROL :R  SOM    :G         
 MANAGEMENT OPT : PLANTING:R  IRRIG   :A  FERT :D  RESIDUE:N  HARVEST:M  WTH:M  
                                                                                
*SUMMARY OF SOIL AND GENETIC INPUT PARAMETERS                                   
                                                                                
   SOIL LOWER UPPER   SAT  EXTR  INIT   ROOT   BULK     pH    NO3    NH4    ORG 
  DEPTH LIMIT LIMIT    SW    SW    SW   DIST   DENS                          C  
   cm   cm3/cm3    cm3/cm3    cm3/cm3         g/cm3         ugN/g  ugN/g     %  
------------------------------------------------------------------------------- 
  0-  5 0.331 0.542 0.585 0.211 0.394   1.00   1.11   6.50  15.00   1.50   2.74 
  5- 15 0.331 0.542 0.585 0.211 0.394   1.00   1.11   6.50  15.00   1.50   2.74 
 15- 30 0.331 0.542 0.585 0.211 0.394   1.00   1.11   6.50  15.00   1.50   2.74 
 30- 45 0.290 0.438 0.491 0.148 0.334   0.43   1.26   6.50   8.50   1.50   1.07 
 45- 60 0.292 0.431 0.480 0.138 0.375   0.39   1.29   6.27   4.53   1.50   0.90 
 60- 90 0.293 0.419 0.466 0.126 0.419   0.32   1.34   6.00   0.00   1.50   0.64 
 90-108 0.286 0.408 0.460 0.122 0.408   0.23   1.36   6.00   0.00   1.50   0.35 
108-125 0.276 0.395 0.456 0.119 0.395   0.12   1.38   6.00   0.00   1.50   0.14 
                                                                                
TOT-125  37.3  55.9  62.1  18.6  49.1  <--cm   -  kg/ha-->   74.8   23.9 166127 
SOIL ALBEDO    : 0.09      EVAPORATION LIMIT : 6.00         MIN. FACTOR  : 1.00 
RUNOFF CURVE # :10.00      DRAINAGE RATE     : 0.40         FERT. FACTOR : 1.00 
                                                                                
 MAIZE      CULTIVAR :UY0370-CMEDIO UY          ECOTYPE :IB0001                 
 P1     : 280.00  P2     : 0.0000  P5     : 750.00                              
 G2     : 800.00  G3     :  7.500  PHINT  : 38.900                              
                                                                                
                                                                                
                                                                                
*SIMULATED CROP AND SOIL STATUS AT MAIN DEVELOPMENT STAGES

 RUN NO.     3     UYMZ                    

        CROP GROWTH   BIOMASS         LEAF   CROP N     STRESS  
   DATE  AGE STAGE      kg/ha    LAI   NUM  kg/ha  %   H2O    N 
 ------  --- ---------- -----  -----  ----  ---  ---  ----  ----
 12 AUG    0 Start Sim      0   0.00   0.0    0  0.0  0.00  0.00
 15 AUG    0 Sowing         0   0.00   0.0    0  0.0  0.00  0.00
 16 AUG    1 Germinate      0   0.00   0.0    0  0.0  0.00  0.00
 29 AUG   14 Emergence     28   0.00   1.9    1  4.4  0.00  0.00
  2 OCT   48 End Juveni   354   0.62   9.8   13  3.7  0.00  0.00
  6 OCT   52 Floral Ini   517   0.86  10.7   19  3.7  0.00  0.01
 28 NOV  105 75% Silkin  8463   3.50  22.4  108  1.3  0.00  0.05
 11 DEC  118 Beg Gr Fil 10813   3.07  22.4  115  1.1  0.00  0.08
 12 JAN  150 End Gr Fil 18573   1.34  22.4  131  0.7  0.00  0.29
 14 JAN  152 Maturity   18573   1.34  22.4  131  0.7  0.00  0.55
 14 JAN  152 Harvest    18573   1.34  22.4  131  0.7  0.00  0.00


*MAIN GROWTH AND DEVELOPMENT VARIABLES

@     VARIABLE                          SIMULATED     MEASURED
      --------                          ---------     --------
      Anthesis day (dap)                      105          -99
      Physiological maturity day (dap)        152          -99
      Yield at harvest maturity (kg [dm]/    8706          -99
      Number at maturity (no/m2)             3769          -99
      Unit wt at maturity (g [dm]/unit)    0.2310          -99
      Number at maturity (no/unit)          538.4          -99
      Tops weight at maturity (kg [dm]/ha   18573          -99
      By-product produced (stalk) at matu    9950          -99
      Leaf area index, maximum               3.72          -99
      Harvest index at maturity             0.469          -99
      Grain N at maturity (kg/ha)              92          -99
      Tops N at maturity (kg/ha)              131          -99
      Stem N at maturity (kg/ha)               39          -99
      Grain N at maturity (%)                 1.1          -99
      Tops weight at anthesis (kg [dm]/ha    8378          -99
      Tops N at anthesis (kg/ha)              107          -99
      Leaf number per stem at maturity      22.39          -99


*ENVIRONMENTAL AND STRESS FACTORS

 |-----Development Phase------|-------------Environment--------------|---------Stress----------|
                              |--------Average-------|---Cumulative--|  (0=Min, 1=Max Stress)  |
                         Time  Temp  Temp Solar Photop         Evapo |----Water---|--Nitrogen--|
                         Span   Max   Min   Rad  [day]   Rain  Trans  Photo         Photo
                         days    øC    øC MJ/m2     hr     mm     mm  synth Growth  synth Growth
------------------------------------------------------------------------------------------------
 Emergence-End Juvenile    34  20.8  10.2  14.5  11.76  121.5   64.5  0.000  0.000  0.002  0.001
 End Juvenil-Floral Init    4  21.1  11.9  14.9  12.39    5.0   10.8  0.000  0.000  0.001  0.001
 Floral Init-End Lf Grow   53  23.6  12.8  20.4  13.23  220.0  227.3  0.000  0.000  0.131  0.052
 End Lf Grth-Beg Grn Fil   13  27.2  14.0  25.3  13.96   43.2   74.2  0.000  0.000  0.209  0.083
 Grain Filling Phase       32  31.5  18.8  24.7  14.04   50.0  188.2  0.000  0.000  0.516  0.279

                     Maize YIELD :     8706 kg/ha    [Dry weight] 

************************************************************************************************

*DSSAT Cropping System Model Ver. 4.0.2.000               Aug 11, 2016; 20:55:36
                                                                                
*RUN   4        : UYMZ                                                          
 MODEL          : MZCER040 - MAIZE                                              
 EXPERIMENT     : UYMZ0184 SN late to create DSS                                
 TREATMENT  1   : UYMZ                                                          
                                                                                
 CROP           : MAIZE          CULTIVAR : CMEDIO UY        ECOTYPE :IB0001    
 STARTING DATE  : AUG 11 1992                                                   
 PLANTING DATE  : AUG 14 1992    PLANTS/m2 :  7.0     ROW SPACING :  15.cm      
 WEATHER        : UYTA   1992                                                   
 SOIL           : UYSS0N2002     TEXTURE :       -  N20-02    SNIA CLAY RISS    
 SOIL INITIAL C : DEPTH:125cm EXTR. H2O:186.3mm  NO3: 74.8kg/ha  NH4: 23.9kg/ha 
 WATER BALANCE  : AUTOMATIC IRRIGATION - REFILL PROFILE                         
 IRRIGATION     : AUTOMATIC - PLANTING -> MATURITY [ SOIL DEPTH:30.00m 50.%]    
 NITROGEN BAL.  : SOIL-N & N-UPTAKE SIMULATION; NO N-FIXATION                   
 N-FERTILIZER   :        2 kg/ha IN     2 APPLICATIONS                          
 RESIDUE/MANURE : INITIAL :     0 kg/ha ;       0 kg/ha IN     0 APPLICATIONS   
 ENVIRONM. OPT. : DAYL=    0.00  SRAD=    0.00  TMAX=    0.00  TMIN=    0.00    
                  RAIN=    0.00  CO2 = R330.00  DEW =    0.00  WIND=    0.00    
 SIMULATION OPT : WATER   :Y  NITROGEN:Y  N-FIX:N  PHOSPH :N  PESTS  :N         
                  PHOTO   :C  ET      :R  INFIL:S  HYDROL :R  SOM    :G         
 MANAGEMENT OPT : PLANTING:R  IRRIG   :A  FERT :D  RESIDUE:N  HARVEST:M  WTH:M  
                                                                                
*SUMMARY OF SOIL AND GENETIC INPUT PARAMETERS                                   
                                                                                
   SOIL LOWER UPPER   SAT  EXTR  INIT   ROOT   BULK     pH    NO3    NH4    ORG 
  DEPTH LIMIT LIMIT    SW    SW    SW   DIST   DENS                          C  
   cm   cm3/cm3    cm3/cm3    cm3/cm3         g/cm3         ugN/g  ugN/g     %  
------------------------------------------------------------------------------- 
  0-  5 0.331 0.542 0.585 0.211 0.394   1.00   1.11   6.50  15.00   1.50   2.74 
  5- 15 0.331 0.542 0.585 0.211 0.394   1.00   1.11   6.50  15.00   1.50   2.74 
 15- 30 0.331 0.542 0.585 0.211 0.394   1.00   1.11   6.50  15.00   1.50   2.74 
 30- 45 0.290 0.438 0.491 0.148 0.334   0.43   1.26   6.50   8.50   1.50   1.07 
 45- 60 0.292 0.431 0.480 0.138 0.375   0.39   1.29   6.27   4.53   1.50   0.90 
 60- 90 0.293 0.419 0.466 0.126 0.419   0.32   1.34   6.00   0.00   1.50   0.64 
 90-108 0.286 0.408 0.460 0.122 0.408   0.23   1.36   6.00   0.00   1.50   0.35 
108-125 0.276 0.395 0.456 0.119 0.395   0.12   1.38   6.00   0.00   1.50   0.14 
                                                                                
TOT-125  37.3  55.9  62.1  18.6  49.1  <--cm   -  kg/ha-->   74.8   23.9 166127 
SOIL ALBEDO    : 0.09      EVAPORATION LIMIT : 6.00         MIN. FACTOR  : 1.00 
RUNOFF CURVE # :10.00      DRAINAGE RATE     : 0.40         FERT. FACTOR : 1.00 
                                                                                
 MAIZE      CULTIVAR :UY0370-CMEDIO UY          ECOTYPE :IB0001                 
 P1     : 280.00  P2     : 0.0000  P5     : 750.00                              
 G2     : 800.00  G3     :  7.500  PHINT  : 38.900                              
                                                                                
                                                                                
                                                                                
*SIMULATED CROP AND SOIL STATUS AT MAIN DEVELOPMENT STAGES

 RUN NO.     4     UYMZ                    

        CROP GROWTH   BIOMASS         LEAF   CROP N     STRESS  
   DATE  AGE STAGE      kg/ha    LAI   NUM  kg/ha  %   H2O    N 
 ------  --- ---------- -----  -----  ----  ---  ---  ----  ----
 12 AUG    0 Start Sim      0   0.00   0.0    0  0.0  0.00  0.00
 15 AUG    0 Sowing         0   0.00   0.0    0  0.0  0.00  0.00
 16 AUG    1 Germinate      0   0.00   0.0    0  0.0  0.00  0.00
 25 AUG   10 Emergence     28   0.00   2.1    1  4.4  0.00  0.00
  1 OCT   47 End Juveni   345   0.54   9.9   13  3.9  0.00  0.00
  5 OCT   51 Floral Ini   500   0.77  10.9   18  3.7  0.00  0.01
 28 NOV  105 75% Silkin  8012   3.56  22.4  103  1.3  0.00  0.05
 10 DEC  117 Beg Gr Fil 10288   3.16  22.4  110  1.1  0.00  0.08
 15 JAN  153 End Gr Fil 18801   1.14  22.4  131  0.7  0.00  0.34
 18 JAN  156 Maturity   18801   1.14  22.4  131  0.7  0.00  0.57
 18 JAN  156 Harvest    18801   1.14  22.4  131  0.7  0.00  0.00


*MAIN GROWTH AND DEVELOPMENT VARIABLES

@     VARIABLE                          SIMULATED     MEASURED
      --------                          ---------     --------
      Anthesis day (dap)                      105          -99
      Physiological maturity day (dap)        156          -99
      Yield at harvest maturity (kg [dm]/    9929          -99
      Number at maturity (no/m2)             3922          -99
      Unit wt at maturity (g [dm]/unit)    0.2531          -99
      Number at maturity (no/unit)          560.4          -99
      Tops weight at maturity (kg [dm]/ha   18801          -99
      By-product produced (stalk) at matu    8950          -99
      Leaf area index, maximum               3.71          -99
      Harvest index at maturity             0.528          -99
      Grain N at maturity (kg/ha)              96          -99
      Tops N at maturity (kg/ha)              131          -99
      Stem N at maturity (kg/ha)               35          -99
      Grain N at maturity (%)                 1.0          -99
      Tops weight at anthesis (kg [dm]/ha    7939          -99
      Tops N at anthesis (kg/ha)              102          -99
      Leaf number per stem at maturity      22.42          -99


*ENVIRONMENTAL AND STRESS FACTORS

 |-----Development Phase------|-------------Environment--------------|---------Stress----------|
                              |--------Average-------|---Cumulative--|  (0=Min, 1=Max Stress)  |
                         Time  Temp  Temp Solar Photop         Evapo |----Water---|--Nitrogen--|
                         Span   Max   Min   Rad  [day]   Rain  Trans  Photo         Photo
                         days    øC    øC MJ/m2     hr     mm     mm  synth Growth  synth Growth
------------------------------------------------------------------------------------------------
 Emergence-End Juvenile    37  21.0   9.7  14.2  11.68   83.5   57.7  0.000  0.000  0.005  0.002
 End Juvenil-Floral Init    4  20.2  11.3  12.2  12.36   44.0    6.9  0.000  0.000  0.001  0.000
 Floral Init-End Lf Grow   54  23.8  12.4  21.4  13.22  177.0  243.7  0.000  0.000  0.125  0.050
 End Lf Grth-Beg Grn Fil   12  28.7  14.8  26.9  13.95    2.0   73.0  0.000  0.000  0.208  0.083
 Grain Filling Phase       36  29.9  16.0  26.7  14.02  148.6  221.3  0.000  0.000  0.562  0.322

                     Maize YIELD :     9929 kg/ha    [Dry weight] 

************************************************************************************************
