*SOIL-PLANT-ATMOSPHERE MODULE OUTPUT FILE

*DSSAT Cropping System Model Ver. 4.0.2.000               Aug 16, 2016; 17:55:43

*RUN   1        : UYMZ                    
 MODEL          : MZCER040 - Maize           
 EXPERIMENT     : UYMZ0214 MZ    late to create DSS                             
 TREATMENT  1   : UYMZ                    

@YEAR DOY   DAS   SRAA   TMXA   TMNA   EOAA   ETAA   EPAA   ESAA   EFAD   ETAC   EPAC   ESAC   EFAC
 2000 302     0  17.30  14.70   6.00  3.300  3.300  0.000  3.300  0.000    3.3    0.0    3.3    0.0
 2000 303     1  25.60  17.60   4.60  5.026  0.808  0.000  0.808  0.000    4.1    0.0    4.1    0.0
 2000 304     2  25.50  26.80  11.40  6.003  1.284  0.000  1.284  0.000    5.4    0.0    5.4    0.0
 2000 305     3  27.20  23.70  12.60  6.225  0.081  0.000  0.081  0.000    5.5    0.0    5.5    0.0
 2000 306     4  15.60  25.60  12.10  3.640  0.079  0.000  0.079  0.000    5.6    0.0    5.6    0.0
 2000 307     5  27.70  22.00  13.90  6.274  2.577  0.000  2.577  0.000    8.1    0.0    8.1    0.0
 2000 308     6  24.80  21.70   9.20  5.375  0.056  0.000  0.056  0.000    8.2    0.0    8.2    0.0
 2000 309     7  18.90  22.00   9.10  4.109  0.074  0.000  0.074  0.000    8.3    0.0    8.3    0.0
 2000 310     8  19.10  24.30  11.20  4.353  0.072  0.000  0.072  0.000    8.3    0.0    8.3    0.0
 2000 311     9  28.40  22.10  12.80  6.381  6.229  0.000  6.229  0.000   14.6    0.0   14.6    0.0
 2000 312    10   8.50  19.70  15.70  1.899  1.899  0.000  1.899  0.000   16.5    0.0   16.5    0.0
 2000 313    11  19.00  21.50  15.10  4.320  4.061  0.000  4.061  0.000   20.5    0.0   20.5    0.0
 2000 314    12  21.50  21.80  13.30  4.832  1.302  0.009  1.292  0.000   21.8    0.0   21.8    0.0
 2000 315    13  19.00  21.70  10.40  4.159  0.291  0.015  0.276  0.000   22.1    0.0   22.1    0.0
 2000 316    14  24.80  24.80  14.00  5.816  5.791  0.029  5.762  0.000   27.9    0.1   27.8    0.0
 2000 317    15  21.60  22.00  13.30  4.864  2.205  0.036  2.169  0.000   30.1    0.1   30.0    0.0
 2000 318    16  29.80  20.90  10.20  6.440  0.333  0.062  0.271  0.000   30.4    0.2   30.3    0.0
 2000 319    17  24.10  15.20   9.90  4.803  0.334  0.056  0.278  0.000   30.8    0.2   30.6    0.0
 2000 320    18  27.80  16.10   7.90  5.506  1.930  0.070  1.860  0.000   32.7    0.3   32.4    0.0
 2000 321    19  29.90  23.00   6.60  6.433  0.331  0.089  0.242  0.000   33.0    0.4   32.7    0.0
 2000 322    20  30.10  27.50  10.80  7.095  0.372  0.146  0.226  0.000   33.4    0.5   32.9    0.0
 2000 323    21  30.50  28.70  12.80  7.399  0.449  0.238  0.211  0.000   33.9    0.8   33.1    0.0
 2000 324    22  11.60  24.20   9.70  2.594  0.316  0.121  0.195  0.000   34.2    0.9   33.3    0.0
 2000 325    23  30.00  21.50   7.70  6.359  0.536  0.359  0.178  0.000   34.7    1.2   33.5    0.0
 2000 326    24  24.90  26.30   8.20  5.634  2.758  0.368  2.390  0.000   37.5    1.6   35.9    0.0
 2000 327    25  18.70  24.80  16.60  4.441  0.944  0.350  0.594  0.000   38.4    1.9   36.5    0.0
 2000 328    26  21.20  31.60  15.20  5.375  0.649  0.515  0.135  0.000   39.1    2.5   36.6    0.0
 2000 329    27  30.10  18.20  10.80  6.232  6.232  0.744  5.487  0.000   45.3    3.2   42.1    0.0
 2000 330    28  28.80  23.20   7.60  6.187  3.213  0.806  2.407  0.000   48.5    4.0   44.5    0.0
 2000 331    29  25.70  27.20  12.90  6.054  1.140  0.877  0.263  0.000   49.6    4.9   44.8    0.0
 2000 332    30  29.80  28.90  16.80  7.357  1.538  1.259  0.278  0.000   51.2    6.1   45.0    0.0
 2000 333    31  15.60  23.30  15.30  3.551  0.963  0.728  0.235  0.000   52.1    6.9   45.3    0.0
 2000 334    32  31.40  19.80  12.60  6.665  1.717  1.535  0.182  0.000   53.9    8.4   45.4    0.0
 2000 335    33  31.40  23.40  10.10  6.818  1.864  1.709  0.155  0.000   55.7   10.1   45.6    0.0
 2000 336    34  32.10  25.90  10.50  7.198  2.074  1.959  0.115  0.000   57.8   12.1   45.7    0.0
 2000 337    35  30.80  26.80  12.40  7.069  2.205  2.121  0.083  0.000   60.0   14.2   45.8    0.0
 2000 338    36  15.60  21.90  12.50  3.361  1.183  1.115  0.068  0.000   61.2   15.3   45.9    0.0
 2000 339    37  29.20  20.70  12.10  6.158  2.242  2.182  0.059  0.000   63.4   17.5   45.9    0.0
 2000 340    38  31.80  25.80   7.10  6.843  2.635  2.579  0.056  0.000   66.1   20.1   46.0    0.0
 2000 341    39  31.50  31.40  16.10  7.753  3.181  3.131  0.049  0.000   69.2   23.2   46.0    0.0
 2000 342    40  21.60  31.70  18.20  5.389  2.459  2.419  0.041  0.000   71.7   25.6   46.1    0.0
 2000 343    41  26.00  31.00  17.40  6.368  3.182  3.149  0.034  0.000   74.9   28.8   46.1    0.0
 2000 344    42  31.40  27.90  14.70  7.244  2.739  2.708  0.030  0.000   77.6   31.5   46.1    0.0
 2000 345    43  24.50  27.70  11.90  5.510  2.118  2.094  0.023  0.000   79.7   33.6   46.2    0.0
 2000 346    44  29.60  30.00  17.70  7.136  4.655  2.403  2.251  0.000   84.4   36.0   48.4    0.0
 2000 347    45  31.00  33.90  16.30  7.709  4.143  2.181  1.962  0.000   88.5   38.2   50.4    0.0
 2000 348    46  21.20  33.00  21.30  5.405  1.793  1.783  0.010  0.000   90.3   39.9   50.4    0.0
 2000 349    47  29.50  30.60  19.30  7.216  5.762  2.821  2.940  0.000   96.1   42.8   53.3    0.0
 2000 350    48  19.40  23.00  12.00  4.094  3.912  2.306  1.606  0.000  100.0   45.1   54.9    0.0
 2000 351    49  32.60  20.70  10.40  6.577  6.577  4.096  2.481  0.000  106.6   49.2   57.4    0.0
 2000 352    50  31.60  29.60  10.70  7.125  6.867  4.566  2.300  0.000  113.5   53.7   59.7    0.0
 2000 353    51  32.30  30.30  12.60  7.429  3.834  1.821  2.013  0.000  117.3   55.6   61.7    0.0
 2000 354    52  32.00  28.20   8.80  6.965  1.335  1.321  0.015  0.000  118.6   56.9   61.7    0.0
 2000 355    53  32.10  22.40  10.60  6.601  1.196  1.184  0.012  0.000  119.8   58.1   61.8    0.0
 2000 356    54  24.10  28.90  11.90  5.431  1.246  1.238  0.009  0.000  121.1   59.3   61.8    0.0
 2000 357    55  29.60  28.50  15.90  6.852  2.211  1.205  1.006  0.000  123.3   60.5   62.8    0.0
 2000 358    56  26.10  21.40  10.80  5.320  1.372  1.368  0.004  0.000  124.6   61.9   62.8    0.0
 2000 359    57  32.60  28.80   6.30  7.030  1.762  1.760  0.002  0.000  126.4   63.6   62.8    0.0
 2000 360    58  32.30  33.80  18.30  8.083  1.944  1.943  0.001  0.000  128.4   65.6   62.8    0.0
 2000 361    59  15.90  35.60  18.80  4.181  1.638  1.638  0.000  0.000  130.0   67.2   62.8    0.0
 2000 362    60  25.60  25.90  18.40  5.875  5.875  3.718  2.157  0.000  135.9   70.9   64.9    0.0
 2000 363    61  26.10  27.70  14.20  5.910  5.910  3.839  2.071  0.000  141.8   74.8   67.0    0.0
 2000 364    62  17.90  26.60  17.50  4.099  4.099  2.719  1.380  0.000  145.9   77.5   68.4    0.0
 2000 365    63  32.60  23.20  12.80  6.893  6.549  4.650  1.899  0.000  152.4   82.1   70.3    0.0
 2000 366    64  32.70  29.10  14.10  7.492  7.008  5.123  1.886  0.000  159.4   87.3   72.2    0.0
 2001 001    65  32.40  31.70  17.30  7.818  5.636  5.432  0.203  0.000  165.1   92.7   72.4    0.0
 2001 002    66  31.00  33.40  18.30  7.663  5.579  5.424  0.155  0.000  170.6   98.1   72.5    0.0
 2001 003    67  31.00  33.40  19.00  7.691  5.656  5.543  0.113  0.000  176.3  103.7   72.6    0.0
 2001 004    68  32.20  34.20  22.40  8.251  5.996  5.915  0.081  0.000  182.3  109.6   72.7    0.0
 2001 005    69  31.30  35.60  21.60  8.316  8.297  5.906  2.391  0.000  190.6  115.5   75.1    0.0
 2001 006    70  18.00  32.40  21.20  4.493  3.678  3.187  0.491  0.000  194.3  118.7   75.6    0.0
 2001 007    71  14.10  29.10  20.90  3.391  3.391  2.395  0.995  0.000  197.7  121.1   76.6    0.0
 2001 008    72  21.70  28.80  18.60  5.115  5.115  3.599  1.517  0.000  202.8  124.7   78.1    0.0
 2001 009    73  32.20  31.30  15.00  7.601  6.130  3.855  2.275  0.000  208.9  128.5   80.4    0.0
 2001 010    74  16.10  23.40  18.00  3.552  3.552  2.471  1.081  0.000  212.5  131.0   81.5    0.0
 2001 011    75  31.80  22.00  14.10  6.683  6.683  4.632  2.051  0.000  219.1  135.6   83.5    0.0
 2001 012    76  32.00  25.90  11.10  6.887  6.234  4.719  1.515  0.000  225.4  140.3   85.0    0.0
 2001 013    77  30.00  29.40  12.10  6.788  6.517  4.673  1.845  0.000  231.9  145.0   86.9    0.0
 2001 014    78  30.70  28.60  19.80  7.299  5.123  5.008  0.115  0.000  237.0  150.0   87.0    0.0
 2001 015    79  28.50  28.90  18.40  6.731  2.370  2.324  0.046  0.000  239.4  152.3   87.0    0.0
 2001 016    80  31.50  31.30  18.30  7.641  1.787  1.763  0.024  0.000  241.2  154.1   87.1    0.0
 2001 017    81  22.70  32.70  21.10  5.710  1.462  1.445  0.017  0.000  242.6  155.6   87.1    0.0
 2001 018    82  10.20  24.20  20.10  2.321  2.321  1.507  0.814  0.000  245.0  157.1   87.9    0.0
 2001 019    83  31.20  22.30  14.30  6.628  6.628  4.265  2.363  0.000  251.6  161.3   90.3    0.0
 2001 020    84  31.10  25.60  11.40  6.724  6.724  4.283  2.441  0.000  258.3  165.6   92.7    0.0
 2001 021    85  26.70  26.40  14.90  5.999  5.263  3.780  1.483  0.000  263.6  169.4   94.2    0.0
 2001 022    86  29.00  30.60  18.50  7.029  5.176  4.383  0.793  0.000  268.7  173.8   95.0    0.0
 2001 023    87  30.30  32.60  18.20  7.495  4.844  4.618  0.225  0.000  273.6  178.4   95.2    0.0
 2001 024    88  26.10  31.70  20.30  6.496  4.126  3.952  0.173  0.000  277.7  182.3   95.4    0.0
 2001 025    89  23.30  31.20  21.50  5.823  5.823  3.494  2.329  0.000  283.5  185.8   97.7    0.0
 2001 026    90  23.00  31.30  19.90  5.694  5.694  3.367  2.327  0.000  289.2  189.2  100.0    0.0
 2001 027    91  18.50  27.70  18.40  4.358  4.358  2.536  1.821  0.000  293.6  191.7  101.9    0.0
 2001 028    92  25.40  26.90  18.70  5.949  5.949  3.404  2.545  0.000  299.5  195.1  104.4    0.0
 2001 029    93  30.10  24.50  13.80  6.602  6.010  3.622  2.389  0.000  305.6  198.8  106.8    0.0
 2001 030    94  30.10  28.80  11.90  6.854  5.734  3.776  1.958  0.000  311.3  202.5  108.7    0.0
 2001 031    95  23.50  28.50  17.30  5.565  3.262  3.004  0.257  0.000  314.5  205.5  109.0    0.0
 2001 032    96  28.10  27.10  20.60  6.724  6.531  3.535  2.996  0.000  321.1  209.1  112.0    0.0
 2001 033    97  20.40  31.60  16.30  4.977  2.687  2.570  0.118  0.000  323.8  211.6  112.1    0.0
 2001 034    98  29.50  25.20  11.20  6.429  5.920  3.240  2.680  0.000  329.7  214.9  114.8    0.0
 2001 035    99  28.90  28.20  12.60  6.614  5.311  3.239  2.072  0.000  335.0  218.1  116.9    0.0
 2001 036   100  29.50  30.50  15.20  7.081  3.460  3.388  0.073  0.000  338.5  221.5  116.9    0.0
 2001 037   101  26.40  28.80  17.60  6.339  3.006  2.949  0.057  0.000  341.5  224.5  117.0    0.0
 2001 038   102  24.40  32.50  19.40  6.191  6.191  2.797  3.394  0.000  347.7  227.3  120.4    0.0
 2001 039   103  22.50  29.40  18.30  5.484  5.151  2.282  2.868  0.000  352.8  229.5  123.3    0.0
 2001 040   104  27.00  33.00  19.60  6.918  4.416  2.937  1.480  0.000  357.2  232.5  124.7    0.0
 2001 041   105  18.80  26.70  17.60  4.434  4.434  1.823  2.612  0.000  361.7  234.3  127.4    0.0
 2001 042   106   8.20  19.40  15.00  1.735  1.735  0.690  1.045  0.000  363.4  235.0  128.4    0.0
 2001 043   107  27.50  24.30  13.10  6.100  6.100  2.347  3.753  0.000  369.5  237.3  132.1    0.0
 2001 044   108  27.90  26.90  10.60  6.269  5.155  2.313  2.842  0.000  374.6  239.7  135.0    0.0
 2001 045   109  17.80  27.80  16.30  4.234  2.463  1.524  0.939  0.000  377.1  241.2  135.9    0.0
 2001 046   110  27.20  27.50  16.00  6.441  2.517  2.239  0.278  0.000  379.6  243.4  136.2    0.0
 2001 047   111  25.20  30.20  14.60  6.097  2.308  2.045  0.263  0.000  381.9  245.5  136.5    0.0
 2001 048   112  27.00  29.60  16.50  6.591  2.364  2.135  0.229  0.000  384.3  247.6  136.7    0.0
 2001 049   113  26.90  31.20  17.30  6.732  2.307  2.105  0.203  0.000  386.6  249.7  136.9    0.0
 2001 050   114  26.90  30.50  19.00  6.772  2.223  2.045  0.179  0.000  388.8  251.7  137.1    0.0
 2001 051   115  26.80  32.40  19.10  6.900  2.170  2.012  0.157  0.000  391.0  253.8  137.2    0.0
 2001 052   116  26.10  33.00  21.00  6.854  2.138  1.999  0.139  0.000  393.1  255.8  137.4    0.0
 2001 053   117  25.80  33.10  20.10  6.740  2.088  1.966  0.122  0.000  395.2  257.7  137.5    0.0

*DSSAT Cropping System Model Ver. 4.0.2.000               Aug 16, 2016; 17:55:43

*RUN   2        : UYMZ                    
 MODEL          : MZCER040 - Maize           
 EXPERIMENT     : UYMZ0214 MZ    late to create DSS                             
 TREATMENT  1   : UYMZ                    

@YEAR DOY   DAS   SRAA   TMXA   TMNA   EOAA   ETAA   EPAA   ESAA   EFAD   ETAC   EPAC   ESAC   EFAC
 2001 302     0  12.50  25.00  17.90  3.033  3.033  0.000  3.033  0.000    3.0    0.0    3.0    0.0
 2001 303     1  10.50  18.60  14.20  2.283  1.075  0.000  1.075  0.000    4.1    0.0    4.1    0.0
 2001 304     2  27.70  20.60  12.90  6.111  2.052  0.000  2.052  0.000    6.2    0.0    6.2    0.0
 2001 305     3  26.40  22.20  10.10  5.804  0.400  0.000  0.400  0.000    6.6    0.0    6.6    0.0
 2001 306     4  27.30  23.20   7.20  5.929  0.079  0.000  0.079  0.000    6.6    0.0    6.6    0.0
 2001 307     5  27.90  23.80  11.30  6.324  0.077  0.000  0.077  0.000    6.7    0.0    6.7    0.0
 2001 308     6  27.30  24.00  11.70  6.225  0.075  0.000  0.075  0.000    6.8    0.0    6.8    0.0
 2001 309     7  25.50  27.90  12.80  6.150  0.073  0.000  0.073  0.000    6.9    0.0    6.9    0.0
 2001 310     8   8.30  19.30  16.10  1.851  1.851  0.000  1.851  0.000    8.7    0.0    8.7    0.0
 2001 311     9  21.80  18.60  10.70  4.594  4.416  0.000  4.416  0.000   13.1    0.0   13.1    0.0
 2001 312    10  28.00  19.90   8.70  5.898  2.579  0.000  2.579  0.000   15.7    0.0   15.7    0.0
 2001 313    11  27.10  25.70  12.10  6.331  0.256  0.000  0.256  0.000   16.0    0.0   16.0    0.0
 2001 314    12  12.20  23.80  16.80  2.893  2.893  0.000  2.893  0.000   18.9    0.0   18.9    0.0
 2001 315    13  30.30  23.10  13.50  6.935  5.404  0.000  5.404  0.000   24.3    0.0   24.3    0.0
 2001 316    14  27.60  21.20  13.80  6.182  0.519  0.013  0.506  0.000   24.8    0.0   24.8    0.0
 2001 317    15  14.90  21.80  12.00  3.311  1.791  0.012  1.778  0.000   26.6    0.0   26.5    0.0
 2001 318    16  29.00  22.50  13.30  6.573  0.313  0.035  0.278  0.000   26.9    0.1   26.8    0.0
 2001 319    17  23.50  24.40  11.50  5.372  0.310  0.040  0.270  0.000   27.2    0.1   27.1    0.0
 2001 320    18  30.40  17.80   9.30  6.250  2.541  0.060  2.480  0.000   29.7    0.2   29.6    0.0
 2001 321    19  30.80  24.40   6.90  6.769  0.459  0.076  0.383  0.000   30.2    0.2   30.0    0.0
 2001 322    20  28.20  29.60  13.20  6.949  0.316  0.094  0.222  0.000   30.5    0.3   30.2    0.0
 2001 323    21  27.30  31.40  17.60  7.085  2.956  0.177  2.779  0.000   33.5    0.5   33.0    0.0
 2001 324    22  17.70  31.00  18.20  4.585  1.249  0.197  1.052  0.000   34.7    0.7   34.0    0.0
 2001 325    23  24.40  27.00  17.40  5.994  1.555  0.371  1.184  0.000   36.3    1.1   35.2    0.0
 2001 326    24  30.40  26.90  15.00  7.307  0.753  0.583  0.170  0.000   37.0    1.7   35.4    0.0
 2001 327    25  11.20  23.60  18.00  2.646  0.411  0.260  0.151  0.000   37.4    1.9   35.5    0.0
 2001 328    26  21.40  22.20  12.20  4.729  4.729  0.549  4.180  0.000   42.2    2.5   39.7    0.0
 2001 329    27  31.40  20.60   8.70  6.581  4.574  0.852  3.721  0.000   46.7    3.3   43.4    0.0
 2001 330    28  31.30  26.10  11.40  7.190  1.233  1.030  0.202  0.000   48.0    4.4   43.6    0.0
 2001 331    29  27.90  22.10  10.00  6.010  1.265  0.987  0.278  0.000   49.2    5.3   43.9    0.0
 2001 332    30  31.30  23.00   7.10  6.638  1.454  1.215  0.239  0.000   50.7    6.6   44.1    0.0
 2001 333    31  17.60  22.40  12.40  3.868  0.984  0.782  0.203  0.000   51.7    7.3   44.3    0.0
 2001 334    32  18.20  19.90  12.20  3.858  3.232  0.862  2.370  0.000   54.9    8.2   46.7    0.0
 2001 335    33  25.10  22.20  10.10  5.371  1.440  1.303  0.138  0.000   56.3    9.5   46.8    0.0
 2001 336    34   9.50  17.60  11.10  1.925  0.638  0.503  0.135  0.000   57.0   10.0   47.0    0.0
 2001 337    35  21.80  20.30   7.90  4.446  1.339  1.223  0.115  0.000   58.3   11.2   47.1    0.0
 2001 338    36  18.20  21.60  10.40  3.854  1.229  1.121  0.108  0.000   59.6   12.3   47.2    0.0
 2001 339    37  24.10  25.70  14.90  5.562  1.825  1.729  0.096  0.000   61.4   14.1   47.3    0.0
 2001 340    38  32.00  25.40  16.00  7.398  7.398  2.533  4.865  0.000   68.8   16.6   52.2    0.0
 2001 341    39  21.80  29.60  15.50  5.251  5.023  1.976  3.047  0.000   73.8   18.6   55.2    0.0
 2001 342    40  29.40  17.80  12.00  5.922  5.719  2.461  3.258  0.000   79.5   21.0   58.5    0.0
 2001 343    41  29.00  20.20  11.00  5.966  5.793  2.584  3.209  0.000   85.3   23.6   61.7    0.0
 2001 344    42  31.20  25.30   8.90  6.715  3.582  3.058  0.525  0.000   88.9   26.7   62.2    0.0
 2001 345    43  32.10  30.20  12.30  7.508  3.872  3.630  0.241  0.000   92.8   30.3   62.4    0.0
 2001 346    44  27.80  28.60  19.00  6.688  3.696  3.499  0.197  0.000   96.5   33.8   62.6    0.0
 2001 347    45  19.00  27.50  18.90  4.492  2.681  2.526  0.155  0.000   99.1   36.3   62.8    0.0
 2001 348    46  32.20  25.90  16.20  7.286  4.526  4.404  0.121  0.000  103.7   40.7   62.9    0.0
 2001 349    47  31.50  23.60  14.40  6.811  4.418  4.331  0.087  0.000  108.1   45.1   63.0    0.0
 2001 350    48  29.30  23.30  14.10  6.281  4.195  4.140  0.055  0.000  112.3   49.2   63.1    0.0
 2001 351    49  31.10  23.90  13.80  6.685  4.585  4.544  0.042  0.000  116.9   53.8   63.1    0.0
 2001 352    50  21.30  25.00  16.10  4.718  3.778  2.743  1.035  0.000  120.6   56.5   64.1    0.0
 2001 353    51  15.60  30.70  15.20  3.660  1.810  1.785  0.025  0.000  122.5   58.3   64.2    0.0
 2001 354    52  30.30  30.70  15.40  7.103  1.380  1.362  0.018  0.000  123.8   59.7   64.2    0.0
 2001 355    53  13.60  23.30  16.00  2.940  1.127  1.113  0.014  0.000  125.0   60.8   64.2    0.0
 2001 356    54  31.20  21.70  12.10  6.400  4.133  2.379  1.754  0.000  129.1   63.1   65.9    0.0
 2001 357    55  31.30  28.80  10.20  6.902  3.874  1.964  1.910  0.000  133.0   65.1   67.9    0.0
 2001 358    56  32.60  31.30  14.60  7.659  2.744  1.043  1.701  0.000  135.7   66.2   69.6    0.0
 2001 359    57  30.90  30.10  15.30  7.209  1.197  0.845  0.353  0.000  136.9   67.0   69.9    0.0
 2001 360    58  32.30  31.70  17.10  7.784  0.768  0.750  0.018  0.000  137.7   67.7   69.9    0.0
 2001 361    59  28.30  33.30  18.20  7.005  0.622  0.609  0.014  0.000  138.3   68.4   69.9    0.0
 2001 362    60  28.60  32.50  19.70  7.104  0.715  0.704  0.010  0.000  139.0   69.1   70.0    0.0
 2001 363    61  28.60  30.10  19.10  6.902  0.847  0.840  0.008  0.000  139.9   69.9   70.0    0.0
 2001 364    62  25.70  31.70  17.50  6.246  1.058  1.052  0.006  0.000  140.9   71.0   70.0    0.0
 2001 365    63  11.80  26.60  18.20  2.726  2.341  1.340  1.001  0.000  143.3   72.3   71.0    0.0
 2002 001    64  29.40  26.10  16.80  6.677  6.677  4.249  2.428  0.000  149.9   76.5   73.4    0.0
 2002 002    65  32.20  26.00  17.40  7.329  7.324  4.745  2.579  0.000  157.3   81.3   76.0    0.0
 2002 003    66  29.80  26.10  16.70  6.746  6.745  4.441  2.304  0.000  164.0   85.7   78.3    0.0
 2002 004    67  23.60  24.70  16.70  5.250  3.952  3.507  0.445  0.000  168.0   89.2   78.7    0.0
 2002 005    68   9.10  20.60  17.30  1.934  1.934  1.307  0.627  0.000  169.9   90.5   79.3    0.0
 2002 006    69  21.70  23.00  16.20  4.709  4.709  3.161  1.547  0.000  174.6   93.7   80.9    0.0
 2002 007    70  32.00  24.70  15.00  7.023  7.023  4.682  2.342  0.000  181.6   98.4   83.2    0.0
 2002 008    71  29.00  28.50  13.60  6.587  6.544  4.368  2.176  0.000  188.2  102.8   85.4    0.0
 2002 009    72  30.00  29.10  15.80  6.981  6.604  4.606  1.998  0.000  194.8  107.4   87.4    0.0
 2002 010    73  31.80  30.40  16.40  7.545  5.204  4.956  0.247  0.000  200.0  112.3   87.7    0.0
 2002 011    74  30.50  31.90  18.40  7.468  5.083  4.884  0.199  0.000  205.1  117.2   87.9    0.0
 2002 012    75  28.90  34.10  19.90  7.323  4.927  4.770  0.157  0.000  210.0  122.0   88.0    0.0
 2002 013    76  26.70  33.20  21.10  6.760  4.506  4.386  0.120  0.000  214.5  126.4   88.1    0.0
 2002 014    77  25.70  22.20  15.10  5.487  5.197  3.547  1.650  0.000  219.7  129.9   89.8    0.0
 2002 015    78  31.20  24.00  10.80  6.575  6.568  4.227  2.341  0.000  226.3  134.1   92.1    0.0
 2002 016    79  29.60  24.10  12.40  6.331  4.118  4.062  0.056  0.000  230.4  138.2   92.2    0.0
 2002 017    80  17.80  25.00  13.40  3.882  2.529  2.482  0.047  0.000  232.9  140.7   92.2    0.0
 2002 018    81  31.50  26.30  13.50  6.987  4.475  4.439  0.036  0.000  237.4  145.1   92.3    0.0
 2002 019    82  31.20  28.80  14.90  7.209  3.302  3.271  0.030  0.000  240.7  148.4   92.3    0.0
 2002 020    83  26.40  30.70  18.20  6.391  2.317  2.296  0.021  0.000  243.0  150.7   92.3    0.0
 2002 021    84  28.90  24.60  14.40  6.339  1.810  1.795  0.015  0.000  244.8  152.5   92.3    0.0
 2002 022    85  30.20  28.80  13.20  6.904  1.494  1.483  0.011  0.000  246.3  154.0   92.3    0.0
 2002 023    86  30.40  33.20  15.50  7.440  1.276  1.268  0.008  0.000  247.6  155.2   92.4    0.0
 2002 024    87   8.70  31.50  18.50  2.139  1.114  1.108  0.006  0.000  248.7  156.3   92.4    0.0
 2002 025    88  28.20  31.80  19.80  7.027  0.991  0.988  0.004  0.000  249.7  157.3   92.4    0.0
 2002 026    89  25.60  28.60  17.60  6.069  0.858  0.855  0.002  0.000  250.5  158.2   92.4    0.0
 2002 027    90  17.00  26.10  17.10  3.907  0.614  0.613  0.001  0.000  251.2  158.8   92.4    0.0
 2002 028    91  30.20  33.00  19.20  7.623  3.997  0.837  3.160  0.000  255.2  159.6   95.5    0.0
 2002 029    92  24.30  26.40  17.00  5.613  2.303  0.346  1.958  0.000  257.5  160.0   97.5    0.0
 2002 030    93  28.80  32.60  16.00  7.090  0.208  0.208  0.000  0.000  257.7  160.2   97.5    0.0
 2002 031    94  23.30  29.40  19.00  5.671  4.952  2.102  2.850  0.000  262.6  162.3  100.3    0.0
 2002 032    95  28.40  23.30  17.70  6.386  2.404  0.447  1.958  0.000  265.0  162.7  102.3    0.0
 2002 033    96  29.30  23.60  13.00  6.374  0.414  0.391  0.024  0.000  265.4  163.1  102.3    0.0
 2002 034    97  30.00  27.70   9.90  6.702  0.243  0.227  0.016  0.000  265.7  163.3  102.3    0.0
 2002 035    98  21.30  29.60  14.60  5.056  0.294  0.283  0.012  0.000  266.0  163.6  102.3    0.0
 2002 036    99  17.00  23.70  17.90  3.870  0.162  0.153  0.008  0.000  266.1  163.8  102.3    0.0
 2002 037   100  10.20  23.20  17.70  2.308  2.263  0.928  1.335  0.000  268.4  164.7  103.7    0.0
 2002 038   101  23.10  26.80  17.10  5.433  5.364  2.171  3.193  0.000  273.8  166.9  106.9    0.0
 2002 039   102   9.30  23.80  17.80  2.126  2.094  0.824  1.270  0.000  275.9  167.7  108.1    0.0
 2002 040   103  20.10  28.40  17.60  4.843  4.662  1.722  2.940  0.000  280.5  169.4  111.1    0.0
 2002 041   104  25.60  26.30  17.60  6.029  5.764  2.308  3.457  0.000  286.3  171.7  114.5    0.0
 2002 042   105  24.70  30.60  14.90  5.992  5.283  2.233  3.051  0.000  291.6  174.0  117.6    0.0
 2002 043   106  18.60  30.30  17.90  4.604  4.604  1.668  2.936  0.000  296.2  175.6  120.5    0.0
 2002 044   107  29.30  29.00  17.60  7.141  5.273  2.491  2.782  0.000  301.4  178.1  123.3    0.0
 2002 045   108  27.30  29.90  17.00  6.698  3.500  2.285  1.215  0.000  304.9  180.4  124.5    0.0
 2002 046   109  21.60  23.60  16.10  4.897  1.861  1.618  0.242  0.000  306.8  182.0  124.8    0.0
 2002 047   110  25.50  22.70  13.10  5.585  1.984  1.786  0.198  0.000  308.8  183.8  125.0    0.0
 2002 048   111  20.00  25.10  13.20  4.522  1.564  1.397  0.167  0.000  310.3  185.2  125.1    0.0
 2002 049   112  20.40  25.50  16.70  4.771  1.562  1.424  0.137  0.000  311.9  186.6  125.3    0.0
 2002 050   113  11.80  25.30  18.20  2.789  0.919  0.803  0.116  0.000  312.8  187.4  125.4    0.0
 2002 051   114   9.20  22.90  17.70  2.107  2.107  0.585  1.522  0.000  314.9  188.0  126.9    0.0
 2002 052   115  13.00  23.00  18.60  3.006  3.006  0.805  2.201  0.000  317.9  188.8  129.1    0.0
 2002 053   116  18.30  25.10  18.00  4.323  4.323  1.117  3.205  0.000  322.3  189.9  132.3    0.0
 2002 054   117  25.30  22.20  14.10  5.597  5.009  1.372  3.637  0.000  327.3  191.3  136.0    0.0
 2002 055   118  25.80  24.90   9.50  5.686  1.951  1.372  0.579  0.000  329.2  192.7  136.5    0.0
 2002 056   119  21.30  31.40  11.90  5.177  1.455  1.206  0.249  0.000  330.7  193.9  136.8    0.0
 2002 057   120  25.40  34.80  19.60  6.781  1.730  1.523  0.207  0.000  332.4  195.4  137.0    0.0
 2002 058   121  24.40  35.30  20.00  6.656  1.670  1.495  0.175  0.000  334.1  196.9  137.2    0.0
 2002 059   122   8.20  28.90  19.60  2.055  0.605  0.462  0.143  0.000  334.7  197.4  137.3    0.0

*DSSAT Cropping System Model Ver. 4.0.2.000               Aug 16, 2016; 17:55:43

*RUN   3        : UYMZ                    
 MODEL          : MZCER040 - Maize           
 EXPERIMENT     : UYMZ0214 MZ    late to create DSS                             
 TREATMENT  1   : UYMZ                    

@YEAR DOY   DAS   SRAA   TMXA   TMNA   EOAA   ETAA   EPAA   ESAA   EFAD   ETAC   EPAC   ESAC   EFAC
 2002 302     0  22.20  17.50   8.20  4.504  4.108  0.000  4.108  0.000    4.1    0.0    4.1    0.0
 2002 303     1  26.60  22.90   4.10  5.598  0.000  0.000  0.000  0.000    4.1    0.0    4.1    0.0
 2002 304     2  27.60  24.40   8.80  6.173  0.084  0.000  0.084  0.000    4.2    0.0    4.2    0.0
 2002 305     3  26.70  25.60  11.90  6.220  0.081  0.000  0.081  0.000    4.3    0.0    4.3    0.0
 2002 306     4  26.00  26.90  13.80  6.246  0.079  0.000  0.079  0.000    4.4    0.0    4.4    0.0
 2002 307     5   9.10  22.20  14.50  2.077  1.077  0.000  1.077  0.000    5.4    0.0    5.4    0.0
 2002 308     6  22.50  15.80   8.10  4.452  0.075  0.000  0.075  0.000    5.5    0.0    5.5    0.0
 2002 309     7  28.20  18.50   4.70  5.614  0.073  0.000  0.073  0.000    5.6    0.0    5.6    0.0
 2002 310     8  29.30  23.20   9.60  6.497  0.071  0.000  0.071  0.000    5.6    0.0    5.6    0.0
 2002 311     9  24.20  26.70  12.90  5.759  0.070  0.000  0.070  0.000    5.7    0.0    5.7    0.0
 2002 312    10   8.70  19.10  15.50  1.925  1.925  0.000  1.925  0.000    7.6    0.0    7.6    0.0
 2002 313    11  15.50  22.70  14.60  3.562  3.562  0.000  3.562  0.000   11.2    0.0   11.2    0.0
 2002 314    12  10.90  14.60  10.90  2.177  2.177  0.000  2.177  0.000   13.4    0.0   13.4    0.0
 2002 315    13  15.00  18.30  11.90  3.183  3.183  0.000  3.183  0.000   16.6    0.0   16.6    0.0
 2002 316    14  29.70  27.10   8.90  6.876  3.735  0.000  3.735  0.000   20.3    0.0   20.3    0.0
 2002 317    15  29.60  30.10  17.40  7.583  0.201  0.000  0.201  0.000   20.5    0.0   20.5    0.0
 2002 318    16  29.60  30.90  15.50  7.541  0.302  0.024  0.278  0.000   20.8    0.0   20.8    0.0
 2002 319    17  18.40  24.60  13.10  4.273  4.273  0.027  4.246  0.000   25.1    0.1   25.0    0.0
 2002 320    18  28.40  31.80  15.70  7.314  3.748  0.056  3.692  0.000   28.8    0.1   28.7    0.0
 2002 321    19  16.60  28.40  19.80  4.242  0.257  0.054  0.204  0.000   29.1    0.2   28.9    0.0
 2002 322    20  30.00  24.70  15.60  7.102  0.459  0.180  0.278  0.000   29.5    0.3   29.2    0.0
 2002 323    21  25.90  29.10  13.90  6.363  0.507  0.234  0.273  0.000   30.0    0.6   29.5    0.0
 2002 324    22  16.10  23.90  14.90  3.743  2.240  0.193  2.047  0.000   32.3    0.8   31.5    0.0
 2002 325    23  30.30  21.50  11.40  6.628  0.646  0.427  0.219  0.000   32.9    1.2   31.7    0.0
 2002 326    24  30.70  25.90   8.50  6.921  0.726  0.522  0.204  0.000   33.7    1.7   31.9    0.0
 2002 327    25  30.30  31.80  12.30  7.540  0.853  0.674  0.179  0.000   34.5    2.4   32.1    0.0
 2002 328    26  25.90  31.70  17.20  6.660  0.900  0.744  0.156  0.000   35.4    3.1   32.3    0.0
 2002 329    27   8.80  22.80  18.10  2.051  0.417  0.284  0.133  0.000   35.8    3.4   32.4    0.0
 2002 330    28  32.10  28.60  18.00  7.981  7.694  1.263  6.431  0.000   43.5    4.7   38.8    0.0
 2002 331    29  15.90  21.30  14.20  3.503  3.497  0.667  2.830  0.000   47.0    5.3   41.7    0.0
 2002 332    30  31.40  21.90   9.60  6.686  3.048  1.424  1.624  0.000   50.1    6.8   43.3    0.0
 2002 333    31  21.10  26.10  11.80  4.814  1.442  1.123  0.319  0.000   51.5    7.9   43.6    0.0
 2002 334    32  19.80  25.70  17.90  4.705  4.705  1.226  3.479  0.000   56.2    9.1   47.1    0.0
 2002 335    33  23.10  20.70  11.90  4.898  4.517  1.425  3.092  0.000   60.7   10.5   50.2    0.0
 2002 336    34  30.80  24.10   8.60  6.617  4.416  2.060  2.356  0.000   65.1   12.6   52.5    0.0
 2002 337    35  25.40  27.90  11.80  5.856  2.209  1.964  0.245  0.000   67.4   14.6   52.8    0.0
 2002 338    36  10.40  24.30  17.50  2.395  1.090  0.881  0.209  0.000   68.4   15.5   53.0    0.0
 2002 339    37  17.90  27.70  19.00  4.322  1.898  1.726  0.172  0.000   70.3   17.2   53.2    0.0
 2002 340    38  25.80  28.90  19.50  6.309  4.322  2.767  1.554  0.000   74.7   19.9   54.7    0.0
 2002 341    39  29.30  21.80  16.00  6.386  3.206  3.076  0.130  0.000   77.9   23.0   54.9    0.0
 2002 342    40  11.60  21.40  15.20  2.491  1.373  1.271  0.102  0.000   79.2   24.3   55.0    0.0
 2002 343    41  28.20  24.50  13.70  6.198  3.395  3.316  0.080  0.000   82.6   27.6   55.0    0.0
 2002 344    42  10.80  24.30  15.20  2.390  1.415  1.342  0.073  0.000   84.1   28.9   55.1    0.0
 2002 345    43  24.20  23.80  14.30  5.268  3.569  3.105  0.463  0.000   87.6   32.1   55.6    0.0
 2002 346    44  26.70  24.70  15.60  5.920  3.714  3.658  0.057  0.000   91.3   35.7   55.6    0.0
 2002 347    45  22.90  24.00  17.00  5.076  3.324  3.280  0.044  0.000   94.7   39.0   55.7    0.0
 2002 348    46  22.20  26.90  16.90  5.072  3.447  3.413  0.033  0.000   98.1   42.4   55.7    0.0
 2002 349    47  29.10  29.30  17.40  6.839  2.968  2.940  0.028  0.000  101.1   45.3   55.7    0.0
 2002 350    48  26.80  28.90  18.70  6.327  4.562  2.703  1.859  0.000  105.6   48.0   57.6    0.0
 2002 351    49  32.80  24.60  14.80  7.144  3.082  1.761  1.321  0.000  108.7   49.8   58.9    0.0
 2002 352    50  23.00  29.40  11.00  5.143  2.770  1.325  1.445  0.000  111.5   51.1   60.4    0.0
 2002 353    51  23.90  26.10  16.20  5.356  5.356  3.838  1.518  0.000  116.8   55.0   61.9    0.0
 2002 354    52  31.20  26.20  12.10  6.760  6.210  4.441  1.769  0.000  123.1   59.4   63.6    0.0
 2002 355    53  32.20  29.00  11.60  7.178  2.600  1.004  1.597  0.000  125.7   60.4   65.2    0.0
 2002 356    54   9.50  20.60  17.10  2.003  1.443  0.912  0.531  0.000  127.1   61.3   65.8    0.0
 2002 357    55  29.60  20.60  11.10  5.930  5.930  4.352  1.578  0.000  133.0   65.7   67.3    0.0
 2002 358    56  31.60  24.50   7.70  6.464  6.464  4.758  1.706  0.000  139.5   70.4   69.1    0.0
 2002 359    57  32.20  29.60  12.80  7.304  7.304  5.390  1.914  0.000  146.8   75.8   71.0    0.0
 2002 360    58  32.90  32.10  15.40  7.823  7.126  5.815  1.312  0.000  153.9   81.6   72.3    0.0
 2002 361    59  31.10  33.70  16.10  7.558  6.937  5.673  1.264  0.000  160.9   87.3   73.5    0.0
 2002 362    60  10.00  26.50  19.90  2.306  2.306  1.745  0.561  0.000  163.2   89.1   74.1    0.0
 2002 363    61   9.20  25.60  19.20  2.089  2.089  1.580  0.509  0.000  165.3   90.6   74.6    0.0
 2002 364    62  10.80  20.80  15.60  2.249  2.249  1.699  0.550  0.000  167.5   92.3   75.2    0.0
 2002 365    63  16.70  22.40  16.40  3.571  3.571  2.696  0.875  0.000  171.1   95.0   76.0    0.0
 2003 001    64  29.70  24.40  16.50  6.512  6.512  4.918  1.594  0.000  177.6  100.0   77.6    0.0
 2003 002    65  32.30  24.50  14.40  6.971  6.971  5.271  1.700  0.000  184.6  105.2   79.3    0.0
 2003 003    66  24.90  28.30  16.30  5.704  5.704  4.312  1.392  0.000  190.3  109.5   80.7    0.0
 2003 004    67  31.90  27.80  18.00  7.360  7.071  5.565  1.505  0.000  197.3  115.1   82.2    0.0
 2003 005    68  32.30  31.10  16.60  7.652  7.184  5.800  1.384  0.000  204.5  120.9   83.6    0.0
 2003 006    69  32.20  28.30  13.60  7.229  5.551  5.427  0.123  0.000  210.1  126.3   83.7    0.0
 2003 007    70  31.80  24.10  14.60  6.850  5.178  5.091  0.087  0.000  215.2  131.4   83.8    0.0
 2003 008    71  25.90  30.10  12.70  5.904  4.421  4.354  0.067  0.000  219.7  135.8   83.9    0.0
 2003 009    72  32.00  30.00  16.10  7.481  6.325  5.474  0.851  0.000  226.0  141.2   84.7    0.0
 2003 010    73  27.30  31.90  15.60  6.498  6.498  4.720  1.778  0.000  232.5  146.0   86.5    0.0
 2003 011    74  31.00  25.60  16.20  6.903  6.596  4.672  1.924  0.000  239.1  150.6   88.4    0.0
 2003 012    75  31.80  27.60  11.60  6.995  3.851  2.465  1.386  0.000  242.9  153.1   89.8    0.0
 2003 013    76  31.50  31.60  14.10  7.406  1.908  1.887  0.020  0.000  244.8  155.0   89.9    0.0
 2003 014    77  28.70  33.90  18.30  7.142  1.557  1.542  0.014  0.000  246.4  156.5   89.9    0.0
 2003 015    78  30.50  33.10  18.00  7.520  1.320  1.310  0.011  0.000  247.7  157.8   89.9    0.0
 2003 016    79  29.80  33.90  20.70  7.563  1.149  1.141  0.008  0.000  248.9  159.0   89.9    0.0
 2003 017    80  24.70  33.00  19.40  6.163  1.019  1.013  0.005  0.000  249.9  160.0   89.9    0.0
 2003 018    81  31.40  23.50  14.80  6.800  0.916  0.913  0.004  0.000  250.8  160.9   89.9    0.0
 2003 019    82   9.20  21.40  12.60  1.909  0.749  0.747  0.002  0.000  251.6  161.7   89.9    0.0
 2003 020    83  23.10  29.50  14.50  5.371  5.294  3.244  2.049  0.000  256.8  164.9   91.9    0.0
 2003 021    84  28.70  31.10  18.60  7.009  4.360  2.030  2.330  0.000  261.2  166.9   94.3    0.0
 2003 022    85   9.30  23.40  17.60  2.066  2.052  1.229  0.822  0.000  263.3  168.2   95.1    0.0
 2003 023    86  29.60  23.10  13.80  6.358  6.358  3.780  2.579  0.000  269.6  171.9   97.7    0.0
 2003 024    87  30.90  28.20   9.60  6.833  3.679  1.695  1.984  0.000  273.3  173.6   99.7    0.0
 2003 025    88  30.50  30.70  13.20  7.150  0.623  0.575  0.048  0.000  273.9  174.2   99.7    0.0
 2003 026    89  30.60  32.10  16.70  7.491  0.448  0.427  0.021  0.000  274.4  174.6   99.7    0.0
 2003 027    90  30.20  34.10  18.10  7.643  0.213  0.199  0.015  0.000  274.6  174.8   99.7    0.0
 2003 028    91  29.90  29.30  17.40  7.159  0.296  0.285  0.011  0.000  274.9  175.1   99.8    0.0
 2003 029    92  26.00  34.00  14.00  6.406  0.147  0.139  0.008  0.000  275.0  175.3   99.8    0.0
 2003 030    93  29.30  37.10  21.60  8.627  0.242  0.237  0.005  0.000  275.3  175.5   99.8    0.0
 2003 031    94  29.10  38.80  23.60  9.467  0.112  0.109  0.003  0.000  275.4  175.6   99.8    0.0
 2003 032    95  15.00  33.00  18.70  3.801  3.801  1.774  2.027  0.000  279.2  177.4  101.8    0.0
 2003 033    96   8.70  27.50  19.80  2.094  2.073  0.941  1.132  0.000  281.3  178.3  102.9    0.0
 2003 034    97  25.00  29.20  19.50  6.125  6.125  2.769  3.356  0.000  287.4  181.1  106.3    0.0
 2003 035    98  10.10  27.70  20.80  2.459  2.459  1.092  1.367  0.000  289.8  182.2  107.7    0.0
 2003 036    99  10.10  28.00  20.20  2.459  1.959  1.069  0.889  0.000  291.8  183.3  108.5    0.0
 2003 037   100  24.80  31.50  18.70  6.211  4.511  2.656  1.855  0.000  296.3  185.9  110.4    0.0
 2003 038   101   8.70  24.40  18.40  2.008  1.068  0.843  0.226  0.000  297.4  186.8  110.6    0.0
 2003 039   102  23.50  29.20  15.30  5.605  2.465  2.303  0.162  0.000  299.8  189.1  110.8    0.0
 2003 040   103  23.40  32.40  19.20  5.956  2.529  2.388  0.141  0.000  302.4  191.4  110.9    0.0
 2003 041   104  10.80  28.20  19.60  2.636  1.638  1.035  0.603  0.000  304.0  192.5  111.5    0.0
 2003 042   105   8.20  26.00  19.60  1.954  1.018  0.747  0.272  0.000  305.0  193.2  111.8    0.0
 2003 043   106  20.20  26.00  18.10  4.764  4.764  1.778  2.987  0.000  309.8  195.0  114.8    0.0
 2003 044   107  27.60  26.20  17.10  6.482  6.036  2.354  3.682  0.000  315.8  197.4  118.5    0.0
 2003 045   108  27.50  29.20  13.60  6.515  4.421  2.298  2.122  0.000  320.2  199.7  120.6    0.0
 2003 046   109  14.20  28.50  17.70  3.447  1.456  1.183  0.273  0.000  321.7  200.8  120.9    0.0
 2003 047   110  25.80  20.10  13.50  5.478  5.478  1.824  3.654  0.000  327.2  202.7  124.5    0.0
 2003 048   111  11.30  21.10  12.90  2.421  2.421  0.781  1.640  0.000  329.6  203.4  126.2    0.0
 2003 049   112  26.00  30.50  13.30  6.267  5.160  1.732  3.428  0.000  334.8  205.2  129.6    0.0
 2003 050   113   9.70  24.30  14.10  2.189  2.103  0.662  1.441  0.000  336.9  205.8  131.0    0.0
 2003 051   114  27.00  20.40  10.40  5.627  2.089  1.643  0.446  0.000  339.0  207.5  131.5    0.0
 2003 052   115  26.40  23.00   8.40  5.601  1.799  1.579  0.220  0.000  340.8  209.1  131.7    0.0
 2003 053   116  15.90  24.10  11.10  3.504  1.136  0.954  0.183  0.000  341.9  210.0  131.9    0.0
 2003 054   117   9.40  23.90  14.60  2.129  0.710  0.559  0.151  0.000  342.6  210.6  132.0    0.0
 2003 055   118  11.20  25.30  19.20  2.678  2.675  0.674  2.001  0.000  345.3  211.2  134.0    0.0
 2003 056   119  25.50  28.70  17.50  6.257  2.409  1.582  0.827  0.000  347.7  212.8  134.9    0.0
 2003 057   120  23.90  35.00  18.20  6.312  1.706  1.596  0.110  0.000  349.4  214.4  135.0    0.0

*DSSAT Cropping System Model Ver. 4.0.2.000               Aug 16, 2016; 17:55:43

*RUN   4        : UYMZ                    
 MODEL          : MZCER040 - Maize           
 EXPERIMENT     : UYMZ0214 MZ    late to create DSS                             
 TREATMENT  1   : UYMZ                    

@YEAR DOY   DAS   SRAA   TMXA   TMNA   EOAA   ETAA   EPAA   ESAA   EFAD   ETAC   EPAC   ESAC   EFAC
 2003 302     0  26.90  26.60  11.30  6.312  4.108  0.000  4.108  0.000    4.1    0.0    4.1    0.0
 2003 303     1  27.00  30.10  15.80  6.835  0.000  0.000  0.000  0.000    4.1    0.0    4.1    0.0
 2003 304     2  17.90  16.00   8.70  3.572  3.572  0.000  3.572  0.000    7.7    0.0    7.7    0.0
 2003 305     3  27.70  16.10   5.80  5.383  0.511  0.000  0.511  0.000    8.2    0.0    8.2    0.0
 2003 306     4  27.30  18.90   3.70  5.414  0.081  0.000  0.081  0.000    8.3    0.0    8.3    0.0
 2003 307     5  28.00  21.60   7.10  5.949  0.079  0.000  0.079  0.000    8.4    0.0    8.4    0.0
 2003 308     6  25.60  23.10   9.20  5.650  0.077  0.000  0.077  0.000    8.4    0.0    8.4    0.0
 2003 309     7  26.80  24.80  10.10  6.090  0.075  0.000  0.075  0.000    8.5    0.0    8.5    0.0
 2003 310     8  28.10  26.20  12.60  6.631  0.073  0.000  0.073  0.000    8.6    0.0    8.6    0.0
 2003 311     9  26.90  28.80  14.90  6.664  0.071  0.000  0.071  0.000    8.6    0.0    8.6    0.0
 2003 312    10   9.20  25.50  16.10  2.214  0.070  0.000  0.070  0.000    8.7    0.0    8.7    0.0
 2003 313    11  26.30  28.40  13.80  6.431  2.568  0.000  2.568  0.000   11.3    0.0   11.3    0.0
 2003 314    12  27.20  28.60  13.80  6.666  0.048  0.000  0.048  0.000   11.3    0.0   11.3    0.0
 2003 315    13  14.30  24.20  16.00  3.385  3.385  0.000  3.385  0.000   14.7    0.0   14.7    0.0
 2003 316    14  12.70  21.70  13.00  2.844  2.844  0.000  2.844  0.000   17.6    0.0   17.6    0.0
 2003 317    15  26.60  16.70   7.90  5.321  4.455  0.000  4.455  0.000   22.0    0.0   22.0    0.0
 2003 318    16  29.80  22.50   5.30  6.306  2.322  0.000  2.322  0.000   24.3    0.0   24.3    0.0
 2003 319    17  20.20  24.60  10.90  4.609  0.273  0.007  0.266  0.000   24.6    0.0   24.6    0.0
 2003 320    18  12.20  22.90  13.70  2.789  0.287  0.009  0.278  0.000   24.9    0.0   24.9    0.0
 2003 321    19  14.30  22.10  12.60  3.206  0.293  0.016  0.277  0.000   25.2    0.0   25.2    0.0
 2003 322    20   8.60  17.80  14.90  1.860  1.860  0.013  1.847  0.000   27.1    0.0   27.0    0.0
 2003 323    21  25.00  23.80  13.50  5.766  5.140  0.049  5.091  0.000   32.2    0.1   32.1    0.0
 2003 324    22  30.10  17.40  10.40  6.216  2.167  0.068  2.098  0.000   34.4    0.2   34.2    0.0
 2003 325    23  30.50  25.00   8.80  6.864  0.360  0.086  0.274  0.000   34.7    0.2   34.5    0.0
 2003 326    24  27.10  33.00  15.20  7.037  0.423  0.145  0.278  0.000   35.1    0.4   34.7    0.0
 2003 327    25   9.60  24.60  15.30  2.262  2.262  0.083  2.179  0.000   37.4    0.5   36.9    0.0
 2003 328    26  29.00  23.30  11.10  6.487  5.480  0.247  5.233  0.000   42.9    0.7   42.2    0.0
 2003 329    27  30.60  28.30  10.60  7.240  2.272  0.430  1.842  0.000   45.2    1.2   44.0    0.0
 2003 330    28  25.80  29.50  17.20  6.501  0.768  0.490  0.278  0.000   45.9    1.6   44.3    0.0
 2003 331    29  26.20  28.50  16.60  6.483  1.104  0.625  0.478  0.000   47.0    2.3   44.8    0.0
 2003 332    30  23.10  24.60  13.00  5.293  0.897  0.626  0.271  0.000   47.9    2.9   45.0    0.0
 2003 333    31  29.30  23.50  14.80  6.709  1.156  0.911  0.244  0.000   49.1    3.8   45.3    0.0
 2003 334    32  11.00  21.30  14.30  2.435  0.601  0.378  0.223  0.000   49.7    4.2   45.5    0.0
 2003 335    33  29.90  27.10  13.90  7.068  3.140  1.229  1.911  0.000   52.8    5.4   47.4    0.0
 2003 336    34  19.70  21.30  14.30  4.339  1.639  0.878  0.762  0.000   54.5    6.3   48.2    0.0
 2003 337    35  31.30  22.80  13.30  6.950  1.725  1.553  0.172  0.000   56.2    7.8   48.3    0.0
 2003 338    36   9.00  16.60  11.70  1.813  1.813  0.441  1.372  0.000   58.0    8.3   49.7    0.0
 2003 339    37  30.00  21.00  13.30  6.490  5.765  1.643  4.122  0.000   63.8    9.9   53.8    0.0
 2003 340    38  32.20  27.10   9.50  7.266  4.056  2.000  2.056  0.000   67.8   11.9   55.9    0.0
 2003 341    39  19.60  26.50  12.70  4.491  1.580  1.370  0.210  0.000   69.4   13.3   56.1    0.0
 2003 342    40   9.10  18.60  11.60  1.863  1.863  0.624  1.239  0.000   71.3   13.9   57.3    0.0
 2003 343    41  29.90  20.90  12.60  6.351  6.351  2.236  4.115  0.000   77.6   16.2   61.5    0.0
 2003 344    42  15.80  24.50  12.40  3.497  3.081  1.312  1.769  0.000   80.7   17.5   63.2    0.0
 2003 345    43  31.30  23.80  11.80  6.814  4.922  2.733  2.189  0.000   85.6   20.2   65.4    0.0
 2003 346    44  30.90  24.20   9.20  6.596  3.090  2.820  0.271  0.000   88.7   23.0   65.7    0.0
 2003 347    45  32.50  27.80  11.80  7.389  3.577  3.327  0.250  0.000   92.3   26.3   65.9    0.0
 2003 348    46  28.00  29.40  15.70  6.663  3.392  3.190  0.203  0.000   95.7   29.5   66.1    0.0
 2003 349    47  16.90  23.00  14.30  3.676  3.676  1.859  1.818  0.000   99.4   31.4   68.0    0.0
 2003 350    48  32.40  19.50  11.30  6.558  6.558  3.414  3.144  0.000  105.9   34.8   71.1    0.0
 2003 351    49  32.80  25.40   9.10  7.026  6.092  3.677  2.415  0.000  112.0   38.5   73.5    0.0
 2003 352    50  29.90  27.40  12.20  6.722  4.390  3.612  0.778  0.000  116.4   42.1   74.3    0.0
 2003 353    51  32.70  31.60  16.70  7.967  4.613  4.425  0.188  0.000  121.0   46.5   74.5    0.0
 2003 354    52  32.50  32.40  18.90  8.093  4.844  4.703  0.141  0.000  125.9   51.2   74.6    0.0
 2003 355    53  30.40  31.80  20.20  7.571  4.688  4.588  0.100  0.000  130.5   55.8   74.7    0.0
 2003 356    54  27.80  22.60  15.90  6.018  5.170  3.332  1.838  0.000  135.7   59.1   76.6    0.0
 2003 357    55  31.80  25.50  10.40  6.816  6.222  4.265  1.958  0.000  141.9   63.4   78.5    0.0
 2003 358    56  16.80  25.60  13.90  3.685  2.415  2.379  0.035  0.000  144.3   65.8   78.6    0.0
 2003 359    57  31.90  30.40  16.30  7.531  1.685  1.663  0.022  0.000  146.0   67.5   78.6    0.0
 2003 360    58  27.40  30.10  17.50  6.512  1.318  1.302  0.015  0.000  147.3   68.8   78.6    0.0
 2003 361    59   9.20  24.00  19.20  2.069  1.402  1.391  0.011  0.000  148.7   70.1   78.6    0.0
 2003 362    60  23.40  20.70  11.80  4.762  3.522  1.888  1.634  0.000  152.3   72.0   80.2    0.0
 2003 363    61  32.80  24.70  10.30  6.945  4.216  2.648  1.568  0.000  156.5   74.7   81.8    0.0
 2003 364    62  33.00  29.80  12.80  7.588  3.236  2.841  0.395  0.000  159.7   77.5   82.2    0.0
 2003 365    63  31.90  20.00  12.00  6.465  4.562  2.143  2.419  0.000  164.3   79.7   84.6    0.0
 2004 001    64  31.90  22.20  10.30  6.561  4.336  2.385  1.951  0.000  168.6   82.1   86.6    0.0
 2004 002    65  32.30  29.00  10.30  7.232  1.742  1.732  0.010  0.000  170.4   83.8   86.6    0.0
 2004 003    66  30.20  31.90  14.30  7.214  1.135  1.134  0.002  0.000  171.5   84.9   86.6    0.0
 2004 004    67  20.40  32.00  18.00  5.017  0.882  0.882  0.000  0.000  172.4   85.8   86.6    0.0
 2004 005    68  32.30  33.10  18.00  8.044  5.360  2.060  3.300  0.000  177.7   87.9   89.9    0.0
 2004 006    69  14.60  28.20  21.00  3.523  2.657  1.212  1.445  0.000  180.4   89.1   91.3    0.0
 2004 007    70  20.40  31.70  19.00  5.042  1.318  0.780  0.538  0.000  181.7   89.9   91.9    0.0
 2004 008    71  32.20  28.30  20.00  7.730  0.785  0.668  0.117  0.000  182.5   90.5   92.0    0.0
 2004 009    72  31.50  30.90  19.10  7.740  0.572  0.560  0.012  0.000  183.1   91.1   92.0    0.0
 2004 010    73  10.20  26.20  18.20  2.366  0.655  0.646  0.009  0.000  183.7   91.7   92.0    0.0
 2004 011    74  26.40  25.10  17.00  5.997  5.997  3.241  2.756  0.000  189.7   95.0   94.8    0.0
 2004 012    75  32.10  26.30  13.10  7.179  6.802  3.482  3.320  0.000  196.5   98.4   98.1    0.0
 2004 013    76  31.60  27.20  14.00  7.202  5.515  3.755  1.760  0.000  202.0  102.2   99.8    0.0
 2004 014    77  31.40  30.80  15.30  7.540  4.145  3.866  0.278  0.000  206.2  106.1  100.1    0.0
 2004 015    78  28.80  21.60  15.20  6.204  6.204  3.132  3.072  0.000  212.4  109.2  103.2    0.0
 2004 016    79  29.10  25.50  13.40  6.485  6.009  3.207  2.802  0.000  218.4  112.4  106.0    0.0
 2004 017    80  27.40  27.10  15.50  6.333  3.503  3.103  0.400  0.000  221.9  115.5  106.4    0.0
 2004 018    81  28.40  28.00  17.40  6.735  3.398  3.255  0.144  0.000  225.3  118.8  106.5    0.0
 2004 019    82  27.10  27.60  18.10  6.436  3.174  3.069  0.105  0.000  228.5  121.8  106.6    0.0
 2004 020    83  29.10  29.90  17.60  7.070  3.400  3.329  0.071  0.000  231.9  125.2  106.7    0.0
 2004 021    84  25.70  29.80  19.00  6.306  2.986  2.933  0.053  0.000  234.9  128.1  106.8    0.0
 2004 022    85  25.80  26.20  20.10  6.134  2.858  2.819  0.039  0.000  237.7  130.9  106.8    0.0
 2004 023    86  24.30  27.90  18.80  5.838  2.512  2.483  0.029  0.000  240.2  133.4  106.8    0.0
 2004 024    87  29.90  27.10  16.70  7.012  1.861  1.841  0.021  0.000  242.1  135.2  106.9    0.0
 2004 025    88  30.30  30.10  15.80  7.310  1.502  1.487  0.015  0.000  243.6  136.7  106.9    0.0
 2004 026    89  31.80  34.00  17.90  8.137  1.267  1.257  0.011  0.000  244.9  138.0  106.9    0.0
 2004 027    90  30.20  32.80  17.10  7.594  1.101  1.093  0.008  0.000  246.0  139.1  106.9    0.0
 2004 028    91  24.20  29.60  18.50  5.943  0.975  0.970  0.006  0.000  246.9  140.0  106.9    0.0
 2004 029    92  27.50  29.60  19.90  6.830  1.577  0.874  0.704  0.000  248.5  140.9  107.6    0.0
 2004 030    93  28.10  33.60  19.50  7.273  0.695  0.693  0.002  0.000  249.2  141.6  107.6    0.0
 2004 031    94   8.60  24.50  20.60  2.032  1.448  0.448  1.001  0.000  250.7  142.1  108.6    0.0
 2004 032    95  20.90  26.40  20.10  5.033  5.033  1.837  3.196  0.000  255.7  143.9  111.8    0.0
 2004 033    96  27.40  26.80  18.10  6.534  5.485  2.243  3.242  0.000  261.2  146.1  115.0    0.0
 2004 034    97  25.50  28.50  19.80  6.284  3.074  2.193  0.881  0.000  264.2  148.3  115.9    0.0
 2004 035    98  30.60  26.40  17.80  7.260  2.687  2.475  0.211  0.000  266.9  150.8  116.1    0.0
 2004 036    99  25.70  24.30  15.60  5.851  2.092  1.948  0.144  0.000  269.0  152.8  116.3    0.0
 2004 037   100  28.90  25.70  12.20  6.517  2.199  2.118  0.081  0.000  271.2  154.9  116.4    0.0
 2004 038   101  26.00  26.80  14.50  6.056  1.797  1.745  0.052  0.000  273.0  156.6  116.4    0.0
 2004 039   102  28.20  29.70  16.30  6.892  1.114  1.080  0.034  0.000  274.1  157.7  116.4    0.0
 2004 040   103  27.30  31.70  18.20  6.923  0.738  0.716  0.023  0.000  274.9  158.4  116.5    0.0
 2004 041   104  26.20  33.00  18.90  6.778  0.650  0.634  0.016  0.000  275.5  159.0  116.5    0.0
 2004 042   105  27.10  33.80  19.00  7.081  0.461  0.449  0.012  0.000  276.0  159.5  116.5    0.0
 2004 043   106  25.10  35.50  20.20  6.891  0.477  0.469  0.008  0.000  276.5  160.0  116.5    0.0
 2004 044   107   8.40  25.00  17.30  1.968  1.965  0.527  1.438  0.000  278.4  160.5  117.9    0.0
 2004 045   108  28.10  23.90  15.30  6.401  6.338  1.680  4.658  0.000  284.8  162.2  122.6    0.0
 2004 046   109  24.80  22.90  14.80  5.563  3.947  1.417  2.530  0.000  288.7  163.6  125.1    0.0
 2004 047   110  21.80  29.20  13.10  5.205  1.551  1.292  0.258  0.000  290.3  164.9  125.4    0.0
 2004 048   111  24.00  23.90  15.50  5.489  5.489  1.325  4.164  0.000  295.8  166.2  129.5    0.0
 2004 049   112  26.90  22.90  15.30  6.072  4.565  1.417  3.148  0.000  300.3  167.6  132.7    0.0
 2004 050   113  25.00  23.00  13.40  5.567  2.300  1.268  1.032  0.000  302.6  168.9  133.7    0.0
 2004 051   114  23.30  21.40  15.80  5.192  1.403  1.148  0.255  0.000  304.0  170.0  134.0    0.0
 2004 052   115  19.80  21.90  16.90  4.483  2.686  0.962  1.724  0.000  306.7  171.0  135.7    0.0
 2004 053   116  16.10  22.70  14.10  3.600  0.949  0.749  0.200  0.000  307.7  171.8  135.9    0.0
 2004 054   117  24.90  24.30  12.80  5.623  1.315  1.135  0.180  0.000  309.0  172.9  136.1    0.0
 2004 055   118  24.10  26.80  11.80  5.569  1.255  1.089  0.165  0.000  310.2  174.0  136.2    0.0
 2004 056   119  25.50  29.80  15.60  6.290  1.340  1.192  0.148  0.000  311.6  175.2  136.4    0.0
 2004 057   120  25.10  30.20  16.30  6.256  1.281  1.147  0.133  0.000  312.8  176.3  136.5    0.0
 2004 058   121  23.30  24.40  14.90  5.373  1.072  0.953  0.119  0.000  313.9  177.3  136.6    0.0
 2004 059   122  25.20  24.80  13.00  5.755  1.093  0.987  0.107  0.000  315.0  178.3  136.8    0.0
 2004 060   123  23.70  26.60  14.50  5.601  1.025  0.927  0.098  0.000  316.0  179.2  136.9    0.0
 2004 061   124  24.70  28.80  13.50  5.943  1.075  0.984  0.091  0.000  317.1  180.2  136.9    0.0
 2004 062   125  17.20  24.40  16.30  4.017  4.017  0.665  3.352  0.000  321.1  180.8  140.3    0.0
 2004 063   126  23.50  27.80  12.30  5.536  4.684  0.853  3.831  0.000  325.8  181.7  144.1    0.0

*DSSAT Cropping System Model Ver. 4.0.2.000               Aug 16, 2016; 17:55:43

*RUN   5        : UYMZ                    
 MODEL          : MZCER040 - Maize           
 EXPERIMENT     : UYMZ0214 MZ    late to create DSS                             
 TREATMENT  1   : UYMZ                    

@YEAR DOY   DAS   SRAA   TMXA   TMNA   EOAA   ETAA   EPAA   ESAA   EFAD   ETAC   EPAC   ESAC   EFAC
 2004 302     0  26.60  26.60   9.30  6.141  4.108  0.000  4.108  0.000    4.1    0.0    4.1    0.0
 2004 303     1   8.00  18.70  14.10  1.740  1.200  0.000  1.200  0.000    5.3    0.0    5.3    0.0
 2004 304     2   9.00  19.30  13.10  1.956  1.684  0.000  1.684  0.000    7.0    0.0    7.0    0.0
 2004 305     3  24.80  25.40  13.30  5.829  0.081  0.000  0.081  0.000    7.1    0.0    7.1    0.0
 2004 306     4  27.30  28.60  15.20  6.763  0.079  0.000  0.079  0.000    7.2    0.0    7.2    0.0
 2004 307     5  26.30  30.60  12.40  6.525  0.077  0.000  0.077  0.000    7.2    0.0    7.2    0.0
 2004 308     6  12.50  23.30  16.60  2.941  2.941  0.000  2.941  0.000   10.2    0.0   10.2    0.0
 2004 309     7  14.50  21.60  15.20  3.303  3.303  0.000  3.303  0.000   13.5    0.0   13.5    0.0
 2004 310     8  10.50  15.20   9.50  2.087  2.087  0.000  2.087  0.000   15.6    0.0   15.6    0.0
 2004 311     9  29.20  15.50   6.90  5.686  3.655  0.000  3.655  0.000   19.2    0.0   19.2    0.0
 2004 312    10  29.30  22.30   3.20  6.067  1.073  0.000  1.073  0.000   20.3    0.0   20.3    0.0
 2004 313    11  24.30  24.80  11.50  5.587  0.278  0.000  0.278  0.000   20.6    0.0   20.6    0.0
 2004 314    12   9.10  20.40  16.50  2.065  2.065  0.000  2.065  0.000   22.6    0.0   22.6    0.0
 2004 315    13   8.40  17.40  14.60  1.803  1.803  0.003  1.800  0.000   24.4    0.0   24.4    0.0
 2004 316    14   8.50  15.60  13.20  1.758  1.758  0.005  1.753  0.000   26.2    0.0   26.2    0.0
 2004 317    15  14.90  18.00   9.70  3.085  3.085  0.013  3.072  0.000   29.3    0.0   29.3    0.0
 2004 318    16  24.10  20.40   7.40  5.049  2.862  0.026  2.837  0.000   32.1    0.0   32.1    0.0
 2004 319    17   9.70  19.10  13.20  2.103  0.259  0.014  0.246  0.000   32.4    0.1   32.3    0.0
 2004 320    18  14.20  23.30  14.30  3.277  0.305  0.027  0.278  0.000   32.7    0.1   32.6    0.0
 2004 321    19  26.20  21.80  13.40  5.887  5.338  0.037  5.301  0.000   38.0    0.1   37.9    0.0
 2004 322    20  27.80  19.00  11.80  5.940  1.271  0.077  1.194  0.000   39.3    0.2   39.1    0.0
 2004 323    21  11.10  17.50  11.50  2.317  0.320  0.044  0.276  0.000   39.6    0.2   39.4    0.0
 2004 324    22  28.50  20.00  10.60  6.098  0.401  0.146  0.255  0.000   40.0    0.4   39.6    0.0
 2004 325    23  28.40  22.40   7.10  6.077  0.427  0.189  0.239  0.000   40.5    0.6   39.9    0.0
 2004 326    24  31.00  25.80   9.30  7.056  0.492  0.272  0.220  0.000   41.0    0.9   40.1    0.0
 2004 327    25  28.30  28.30  12.00  6.777  0.543  0.341  0.202  0.000   41.5    1.2   40.3    0.0
 2004 328    26  22.20  27.40  14.00  5.334  0.536  0.352  0.183  0.000   42.0    1.5   40.5    0.0
 2004 329    27   8.80  24.30  18.80  2.113  2.113  0.175  1.938  0.000   44.1    1.7   42.4    0.0
 2004 330    28  23.80  25.50  17.20  5.712  5.282  0.574  4.708  0.000   49.4    2.3   47.1    0.0
 2004 331    29  20.00  26.10  15.50  4.760  2.957  0.572  2.385  0.000   52.4    2.9   49.5    0.0
 2004 332    30  23.90  23.50  17.00  5.568  1.048  0.785  0.264  0.000   53.4    3.7   49.8    0.0
 2004 333    31  29.50  25.60  15.50  6.947  1.389  1.124  0.265  0.000   54.8    4.8   50.0    0.0
 2004 334    32  29.90  28.20  14.60  7.186  1.586  1.364  0.222  0.000   56.4    6.1   50.3    0.0
 2004 335    33  31.80  29.10  15.80  7.765  1.905  1.725  0.180  0.000   58.3    7.9   50.4    0.0
 2004 336    34  30.00  28.90  15.00  7.235  2.019  1.875  0.143  0.000   60.3    9.7   50.6    0.0
 2004 337    35  28.60  31.50  17.70  7.215  2.250  2.140  0.110  0.000   62.6   11.9   50.7    0.0
 2004 338    36  17.60  32.60  20.70  4.569  1.630  1.544  0.087  0.000   64.2   13.4   50.8    0.0
 2004 339    37  28.30  26.40  14.80  6.527  2.586  2.513  0.074  0.000   66.8   15.9   50.9    0.0
 2004 340    38  25.00  29.90  12.70  5.887  2.535  2.468  0.067  0.000   69.3   18.4   50.9    0.0
 2004 341    39  31.70  28.60  12.90  7.333  3.405  3.349  0.056  0.000   72.7   21.8   51.0    0.0
 2004 342    40  28.90  28.00  17.00  6.824  3.418  3.370  0.048  0.000   76.2   25.1   51.0    0.0
 2004 343    41  20.60  25.00  16.40  4.656  2.523  2.482  0.041  0.000   78.7   27.6   51.1    0.0
 2004 344    42  18.60  24.50  16.30  4.161  4.161  2.346  1.815  0.000   82.8   30.0   52.9    0.0
 2004 345    43  31.90  26.20  13.90  7.119  7.119  4.259  2.860  0.000   90.0   34.2   55.7    0.0
 2004 346    44  32.30  26.70  13.60  7.209  6.644  4.526  2.118  0.000   96.6   38.7   57.9    0.0
 2004 347    45  29.30  28.40  14.20  6.682  5.339  4.396  0.944  0.000  101.9   43.1   58.8    0.0
 2004 348    46  30.50  28.80  15.80  7.053  3.898  3.858  0.040  0.000  105.8   47.0   58.9    0.0
 2004 349    47  27.60  31.20  18.40  6.674  2.348  2.317  0.031  0.000  108.2   49.3   58.9    0.0
 2004 350    48  21.30  31.10  17.50  5.110  1.718  1.697  0.021  0.000  109.9   51.0   58.9    0.0
 2004 351    49  32.40  23.60  14.10  6.938  4.274  2.216  2.058  0.000  114.2   53.2   61.0    0.0
 2004 352    50  31.90  28.70  10.90  7.082  3.678  1.556  2.122  0.000  117.9   54.8   63.1    0.0
 2004 353    51  26.60  29.30  15.70  6.176  2.833  1.232  1.601  0.000  120.7   56.0   64.7    0.0
 2004 354    52  19.00  28.00  16.90  4.390  1.083  1.061  0.022  0.000  121.8   57.1   64.7    0.0
 2004 355    53  32.20  24.10  12.60  6.868  1.004  0.988  0.016  0.000  122.8   58.1   64.7    0.0
 2004 356    54  32.60  27.30   7.80  6.958  1.003  0.991  0.012  0.000  123.8   59.0   64.7    0.0
 2004 357    55  32.60  28.40  12.50  7.329  0.939  0.930  0.009  0.000  124.7   60.0   64.7    0.0
 2004 358    56  31.90  28.60  13.20  7.236  1.021  1.014  0.007  0.000  125.7   61.0   64.7    0.0
 2004 359    57  23.40  30.20  16.90  5.565  1.104  1.100  0.005  0.000  126.8   62.1   64.8    0.0
 2004 360    58  17.80  20.80  14.20  3.707  3.707  2.387  1.320  0.000  130.6   64.5   66.1    0.0
 2004 361    59  30.50  23.60  15.90  6.661  6.661  4.376  2.285  0.000  137.2   68.9   68.4    0.0
 2004 362    60  27.40  25.40  14.50  6.037  6.037  4.059  1.977  0.000  143.3   72.9   70.3    0.0
 2004 363    61  30.80  27.70  15.70  7.028  6.505  4.812  1.693  0.000  149.8   77.7   72.0    0.0
 2004 364    62   9.30  24.70  19.00  2.100  2.095  1.465  0.631  0.000  151.9   79.2   72.7    0.0
 2004 365    63  31.90  29.50  16.10  7.441  7.436  5.209  2.227  0.000  159.3   84.4   74.9    0.0
 2004 366    64  32.40  33.40  17.90  7.985  4.609  4.373  0.236  0.000  163.9   88.8   75.1    0.0
 2005 001    65  30.50  35.10  18.40  7.711  2.419  2.387  0.033  0.000  166.3   91.2   75.2    0.0
 2005 002    66  28.00  31.60  18.90  6.817  1.744  1.723  0.021  0.000  168.1   92.9   75.2    0.0
 2005 003    67  27.80  32.80  21.30  6.978  1.416  1.401  0.015  0.000  169.5   94.3   75.2    0.0
 2005 004    68  29.30  31.50  19.20  7.153  1.099  1.089  0.011  0.000  170.6   95.4   75.2    0.0
 2005 005    69  31.00  35.00  20.60  7.940  0.910  0.902  0.008  0.000  171.5   96.3   75.2    0.0
 2005 006    70  28.80  34.90  21.10  7.406  0.816  0.811  0.005  0.000  172.3   97.1   75.2    0.0
 2005 007    71  23.10  36.90  22.10  6.641  0.704  0.701  0.004  0.000  173.0   97.8   75.2    0.0
 2005 008    72  15.10  30.60  21.90  3.745  3.664  2.307  1.357  0.000  176.7  100.1   76.6    0.0
 2005 009    73  15.30  29.20  20.70  3.707  3.618  2.260  1.358  0.000  180.3  102.4   77.9    0.0
 2005 010    74  32.00  26.90  16.00  7.295  3.683  0.983  2.700  0.000  184.0  103.3   80.6    0.0
 2005 011    75  31.50  32.50  14.60  7.582  0.852  0.668  0.184  0.000  184.8  104.0   80.8    0.0
 2005 012    76  29.30  34.60  19.40  7.478  0.601  0.581  0.020  0.000  185.4  104.6   80.8    0.0
 2005 013    77  20.80  25.30  17.70  4.739  0.492  0.478  0.014  0.000  185.9  105.1   80.8    0.0
 2005 014    78  18.90  34.70  16.10  4.733  0.455  0.445  0.010  0.000  186.4  105.5   80.9    0.0
 2005 015    79  28.50  24.40  15.20  6.317  4.283  1.486  2.797  0.000  190.7  107.0   83.7    0.0
 2005 016    80  31.60  30.90  13.60  7.472  3.110  0.588  2.522  0.000  193.8  107.6   86.2    0.0
 2005 017    81  29.70  33.30  17.20  7.416  0.468  0.464  0.003  0.000  194.2  108.0   86.2    0.0
 2005 018    82  31.40  24.30  13.50  6.886  0.431  0.418  0.013  0.000  194.7  108.5   86.2    0.0
 2005 019    83  27.50  31.50  11.80  6.490  0.370  0.360  0.010  0.000  195.0  108.8   86.2    0.0
 2005 020    84  31.30  21.40  13.30  6.631  6.509  3.115  3.394  0.000  201.5  111.9   89.6    0.0
 2005 021    85  30.20  29.60  10.40  6.911  5.019  2.105  2.914  0.000  206.6  114.0   92.5    0.0
 2005 022    86  30.80  32.50  14.00  7.493  0.593  0.566  0.027  0.000  207.2  114.6   92.5    0.0
 2005 023    87  27.80  29.70  15.40  6.633  0.373  0.355  0.019  0.000  207.5  115.0   92.6    0.0
 2005 024    88  30.90  30.60  16.20  7.504  0.212  0.198  0.013  0.000  207.7  115.2   92.6    0.0
 2005 025    89  29.50  22.10  13.70  6.362  0.271  0.261  0.010  0.000  208.0  115.4   92.6    0.0
 2005 026    90  30.60  23.80   9.80  6.535  0.147  0.140  0.007  0.000  208.2  115.6   92.6    0.0
 2005 027    91  29.90  30.20   8.60  6.850  0.228  0.223  0.005  0.000  208.4  115.8   92.6    0.0
 2005 028    92  27.90  33.80  17.10  7.105  0.110  0.107  0.003  0.000  208.5  115.9   92.6    0.0
 2005 029    93  23.90  37.00  20.30  7.029  0.322  0.320  0.001  0.000  208.8  116.2   92.6    0.0
 2005 030    94   8.60  27.30  19.80  2.086  2.086  0.772  1.315  0.000  210.9  117.0   93.9    0.0
 2005 031    95   8.60  21.10  15.50  1.874  1.874  0.688  1.186  0.000  212.8  117.7   95.1    0.0
 2005 032    96  28.40  19.00  11.20  5.804  5.804  2.115  3.689  0.000  218.6  119.8   98.8    0.0
 2005 033    97  30.00  21.20  10.20  6.259  5.103  2.257  2.846  0.000  223.7  122.0  101.6    0.0
 2005 034    98  29.80  25.50  10.20  6.569  3.459  2.361  1.097  0.000  227.1  124.4  102.7    0.0
 2005 035    99  28.40  28.10  11.80  6.547  2.615  2.337  0.278  0.000  229.8  126.7  103.0    0.0
 2005 036   100  29.00  29.30  15.50  6.978  2.731  2.474  0.258  0.000  232.5  129.2  103.3    0.0
 2005 037   101  13.50  30.30  19.40  3.382  1.415  1.190  0.225  0.000  233.9  130.4  103.5    0.0
 2005 038   102   9.30  28.60  20.70  2.310  1.003  0.807  0.196  0.000  234.9  131.2  103.7    0.0
 2005 039   103   8.30  25.50  19.40  1.972  1.972  0.683  1.289  0.000  236.9  131.9  105.0    0.0
 2005 040   104  17.90  30.00  19.30  4.471  4.471  1.535  2.936  0.000  241.3  133.4  107.9    0.0
 2005 041   105  11.50  22.80  18.50  2.630  2.630  0.894  1.736  0.000  244.0  134.3  109.6    0.0
 2005 042   106  22.60  24.60  18.80  5.294  5.294  1.782  3.512  0.000  249.3  136.1  113.2    0.0
 2005 043   107  22.70  25.10  19.20  5.367  4.825  1.776  3.049  0.000  254.1  137.9  116.2    0.0
 2005 044   108  23.10  29.10  19.20  5.718  2.971  1.881  1.090  0.000  257.1  139.8  117.3    0.0
 2005 045   109  24.30  27.20  17.30  5.806  2.165  1.887  0.278  0.000  259.2  141.7  117.6    0.0
 2005 046   110  25.90  26.20  14.30  5.978  2.174  1.917  0.257  0.000  261.4  143.6  117.8    0.0
 2005 047   111  23.40  27.80  15.50  5.558  1.985  1.757  0.228  0.000  263.4  145.3  118.1    0.0
 2005 048   112  25.60  27.10  14.30  5.978  2.065  1.862  0.203  0.000  265.5  147.2  118.3    0.0
 2005 049   113  21.40  27.60  15.70  5.085  1.741  1.559  0.182  0.000  267.2  148.8  118.4    0.0
 2005 050   114  25.90  29.10  16.60  6.307  2.065  1.902  0.163  0.000  269.3  150.7  118.6    0.0
 2005 051   115  20.90  31.30  17.60  5.257  1.706  1.558  0.148  0.000  271.0  152.2  118.8    0.0
 2005 052   116  20.20  30.80  19.90  5.142  1.628  1.496  0.132  0.000  272.6  153.7  118.9    0.0
 2005 053   117  21.70  31.10  17.30  5.441  5.441  1.553  3.888  0.000  278.0  155.3  122.8    0.0
 2005 054   118  19.60  32.30  19.60  5.065  4.388  1.407  2.981  0.000  282.4  156.7  125.8    0.0
 2005 055   119  13.70  32.00  20.70  3.559  2.198  0.975  1.222  0.000  284.6  157.6  127.0    0.0
 2005 056   120  11.80  26.60  19.50  2.864  1.063  0.785  0.278  0.000  285.7  158.4  127.3    0.0
 2005 057   121  20.30  26.50  15.70  4.779  1.575  1.310  0.266  0.000  287.3  159.7  127.5    0.0

*DSSAT Cropping System Model Ver. 4.0.2.000               Aug 16, 2016; 17:55:43

*RUN   6        : UYMZ                    
 MODEL          : MZCER040 - Maize           
 EXPERIMENT     : UYMZ0214 MZ    late to create DSS                             
 TREATMENT  1   : UYMZ                    

@YEAR DOY   DAS   SRAA   TMXA   TMNA   EOAA   ETAA   EPAA   ESAA   EFAD   ETAC   EPAC   ESAC   EFAC
 2005 302     0  10.80  15.80   8.40  2.143  2.143  0.000  2.143  0.000    2.1    0.0    2.1    0.0
 2005 303     1  25.30  15.30   6.20  4.878  1.954  0.000  1.954  0.000    4.1    0.0    4.1    0.0
 2005 304     2  27.10  19.30   3.70  5.405  0.094  0.000  0.094  0.000    4.2    0.0    4.2    0.0
 2005 305     3  20.30  24.70   9.20  4.573  0.081  0.000  0.081  0.000    4.3    0.0    4.3    0.0
 2005 306     4  26.80  28.30  12.70  6.489  0.079  0.000  0.079  0.000    4.4    0.0    4.4    0.0
 2005 307     5  27.40  27.90  12.70  6.603  0.077  0.000  0.077  0.000    4.4    0.0    4.4    0.0
 2005 308     6  11.60  20.80  11.50  2.535  2.535  0.000  2.535  0.000    7.0    0.0    7.0    0.0
 2005 309     7  27.20  21.30   7.40  5.771  4.148  0.000  4.148  0.000   11.1    0.0   11.1    0.0
 2005 310     8  28.10  18.10   9.00  5.791  0.081  0.000  0.081  0.000   11.2    0.0   11.2    0.0
 2005 311     9  28.20  18.00   5.20  5.601  0.171  0.000  0.171  0.000   11.4    0.0   11.4    0.0
 2005 312    10  27.30  21.20   3.70  5.593  0.162  0.000  0.162  0.000   11.5    0.0   11.5    0.0
 2005 313    11  29.20  22.50   9.00  6.384  0.154  0.000  0.154  0.000   11.7    0.0   11.7    0.0
 2005 314    12  29.40  22.20   7.40  6.313  0.146  0.000  0.146  0.000   11.8    0.0   11.8    0.0
 2005 315    13  29.20  25.50  10.90  6.738  0.139  0.000  0.139  0.000   12.0    0.0   12.0    0.0
 2005 316    14  28.10  27.10  13.70  6.760  0.147  0.015  0.133  0.000   12.1    0.0   12.1    0.0
 2005 317    15  22.70  27.20  14.70  5.509  0.152  0.025  0.127  0.000   12.3    0.0   12.2    0.0
 2005 318    16  26.90  26.80  15.80  6.552  0.168  0.047  0.121  0.000   12.4    0.1   12.3    0.0
 2005 319    17  24.30  25.90  17.40  5.928  5.901  0.034  5.867  0.000   18.3    0.1   18.2    0.0
 2005 320    18  26.60  26.90  14.00  6.391  1.621  0.087  1.534  0.000   20.0    0.2   19.7    0.0
 2005 321    19  29.80  29.20  14.80  7.391  0.460  0.181  0.278  0.000   20.4    0.4   20.0    0.0
 2005 322    20  21.10  25.60  13.90  4.974  0.451  0.193  0.258  0.000   20.9    0.6   20.3    0.0
 2005 323    21  28.40  30.30  13.20  7.025  0.592  0.362  0.231  0.000   21.5    0.9   20.5    0.0
 2005 324    22  30.40  31.80  13.80  7.668  5.071  0.464  4.607  0.000   26.5    1.4   25.1    0.0
 2005 325    23  24.90  31.20  16.60  6.354  0.632  0.577  0.055  0.000   27.2    2.0   25.2    0.0
 2005 326    24  30.20  34.60  16.70  7.981  1.073  0.914  0.159  0.000   28.2    2.9   25.3    0.0
 2005 327    25  12.60  27.90  20.00  3.160  0.692  0.459  0.233  0.000   28.9    3.4   25.6    0.0
 2005 328    26  30.70  22.90  13.40  6.867  1.315  1.213  0.103  0.000   30.2    4.6   25.7    0.0
 2005 329    27  30.70  29.20  10.30  7.211  1.530  1.440  0.091  0.000   31.8    6.0   25.8    0.0
 2005 330    28  30.00  33.90  13.10  7.569  1.813  1.744  0.069  0.000   33.6    7.8   25.8    0.0
 2005 331    29  29.50  35.00  17.70  7.747  2.162  2.108  0.055  0.000   35.7    9.9   25.9    0.0
 2005 332    30  26.60  32.80  17.20  6.768  1.862  1.822  0.040  0.000   37.6   11.7   25.9    0.0
 2005 333    31  14.90  27.20  17.80  3.568  1.239  1.212  0.026  0.000   38.8   12.9   26.0    0.0
 2005 334    32  13.00  21.40  14.40  2.814  2.814  1.057  1.757  0.000   41.7   14.0   27.7    0.0
 2005 335    33  30.90  18.50   9.40  6.147  5.824  2.143  3.682  0.000   47.5   16.1   31.4    0.0
 2005 336    34  30.80  23.40   5.30  6.296  3.781  2.637  1.144  0.000   51.3   18.7   32.5    0.0
 2005 337    35  16.60  28.50  11.80  3.812  1.698  1.657  0.041  0.000   53.0   20.4   32.6    0.0
 2005 338    36  22.80  24.90  14.40  5.104  5.104  2.370  2.733  0.000   58.1   22.8   35.3    0.0
 2005 339    37  29.30  24.10  15.70  6.540  6.386  3.123  3.264  0.000   64.5   25.9   38.6    0.0
 2005 340    38  31.50  18.90   9.30  6.208  2.740  1.920  0.820  0.000   67.2   27.8   39.4    0.0
 2005 341    39  29.20  23.10   6.40  5.933  1.436  1.408  0.028  0.000   68.6   29.2   39.4    0.0
 2005 342    40  11.20  22.80  14.40  2.428  2.061  1.160  0.901  0.000   70.7   30.4   40.3    0.0
 2005 343    41  27.50  28.50  11.80  6.240  1.512  0.982  0.530  0.000   72.2   31.4   40.9    0.0
 2005 344    42  30.70  18.90   9.10  6.032  0.918  0.908  0.010  0.000   73.1   32.3   40.9    0.0
 2005 345    43  31.40  24.30   4.90  6.395  0.911  0.904  0.007  0.000   74.0   33.2   40.9    0.0
 2005 346    44  31.30  26.10  10.40  6.841  0.923  0.918  0.005  0.000   75.0   34.1   40.9    0.0
 2005 347    45  29.80  30.80  14.00  7.087  0.937  0.934  0.003  0.000   75.9   35.0   40.9    0.0
 2005 348    46  27.00  30.30  15.50  6.460  0.743  0.742  0.002  0.000   76.6   35.8   40.9    0.0
 2005 349    47  18.90  28.70  17.90  4.524  0.705  0.705  0.000  0.000   77.3   36.5   40.9    0.0
 2005 350    48  10.50  27.10  17.60  2.463  1.941  0.719  1.222  0.000   79.3   37.2   42.1    0.0
 2005 351    49  28.90  23.10  13.50  6.244  4.364  1.357  3.007  0.000   83.6   38.5   45.1    0.0
 2005 352    50  27.70  29.90  10.90  6.359  2.722  0.765  1.958  0.000   86.4   39.3   47.1    0.0
 2005 353    51  31.00  21.20  13.00  6.513  0.655  0.642  0.013  0.000   87.0   39.9   47.1    0.0
 2005 354    52  27.60  25.60  10.90  6.025  0.590  0.581  0.010  0.000   87.6   40.5   47.1    0.0
 2005 355    53  31.00  35.20  13.60  7.792  0.515  0.509  0.007  0.000   88.1   41.0   47.1    0.0
 2005 356    54  27.30  31.00  17.50  6.690  0.476  0.471  0.005  0.000   88.6   41.5   47.1    0.0
 2005 357    55  22.60  23.90  13.10  4.932  2.904  0.397  2.507  0.000   91.5   41.9   49.6    0.0
 2005 358    56  27.70  22.10   8.60  5.693  0.511  0.333  0.178  0.000   92.0   42.2   49.8    0.0
 2005 359    57  31.70  25.60  10.20  6.914  0.802  0.802  0.000  0.000   92.8   43.0   49.8    0.0
 2005 360    58  31.50  30.40   9.40  7.240  1.530  1.530  0.000  0.000   94.4   44.6   49.8    0.0
 2005 361    59  29.30  33.80  12.50  7.166  1.783  1.783  0.000  0.000   96.1   46.4   49.8    0.0
 2005 362    60  28.80  33.80  16.70  7.256  1.536  1.536  0.000  0.000   97.7   47.9   49.8    0.0
 2005 363    61  32.10  32.80  18.60  8.108  1.226  1.226  0.000  0.000   98.9   49.1   49.8    0.0
 2005 364    62  27.70  28.60  17.40  6.624  1.033  1.033  0.000  0.000   99.9   50.1   49.8    0.0
 2005 365    63  31.80  29.80  14.30  7.533  0.938  0.938  0.000  0.000  100.9   51.1   49.8    0.0
 2006 001    64  30.90  32.00  15.70  7.586  0.843  0.843  0.000  0.000  101.7   51.9   49.8    0.0
 2006 002    65  28.80  32.40  14.70  7.054  0.785  0.785  0.000  0.000  102.5   52.7   49.8    0.0
 2006 003    66  30.00  25.70  14.20  6.781  0.677  0.677  0.000  0.000  103.2   53.4   49.8    0.0
 2006 004    67  23.90  24.10  11.50  5.187  0.662  0.662  0.000  0.000  103.8   54.0   49.8    0.0
 2006 005    68  19.70  31.00  11.40  4.643  0.601  0.601  0.000  0.000  104.4   54.7   49.8    0.0
 2006 006    69  20.90  36.90  19.40  6.049  0.564  0.564  0.000  0.000  105.0   55.2   49.8    0.0
 2006 007    70  21.00  39.00  20.10  6.794  4.466  0.478  3.987  0.000  109.5   55.7   53.8    0.0
 2006 008    71   9.10  22.70  18.50  2.064  0.984  0.552  0.432  0.000  110.4   56.2   54.2    0.0
 2006 009    72  29.30  35.00  19.70  7.692  7.692  3.083  4.609  0.000  118.1   59.3   58.8    0.0
 2006 010    73  19.50  29.50  19.50  4.821  4.821  1.928  2.892  0.000  123.0   61.3   61.7    0.0
 2006 011    74  10.40  23.70  17.00  2.360  1.912  0.941  0.970  0.000  124.9   62.2   62.7    0.0
 2006 012    75  15.80  30.30  19.20  3.933  3.446  1.566  1.879  0.000  128.3   63.8   64.6    0.0
 2006 013    76   9.40  21.00  16.00  2.047  2.047  0.814  1.233  0.000  130.4   64.6   65.8    0.0
 2006 014    77   9.00  24.20  16.00  2.039  2.039  0.809  1.230  0.000  132.4   65.4   67.0    0.0
 2006 015    78   9.00  24.00  18.90  2.081  2.081  0.824  1.257  0.000  134.5   66.2   68.3    0.0
 2006 016    79  11.60  23.30  15.00  2.579  2.579  1.019  1.560  0.000  137.1   67.2   69.8    0.0
 2006 017    80  30.90  23.10  10.70  6.612  6.282  2.606  3.676  0.000  143.3   69.8   73.5    0.0
 2006 018    81  30.20  24.30   9.90  6.517  4.764  2.568  2.195  0.000  148.1   72.4   75.7    0.0
 2006 019    82  29.10  30.20  15.20  7.027  3.040  2.770  0.270  0.000  151.1   75.2   76.0    0.0
 2006 020    83  30.10  30.10  18.90  7.462  3.194  2.942  0.252  0.000  154.3   78.1   76.2    0.0
 2006 021    84  13.80  25.90  19.00  3.266  1.500  1.287  0.212  0.000  155.8   79.4   76.4    0.0
 2006 022    85  16.50  24.70  17.30  3.800  1.676  1.498  0.178  0.000  157.5   80.9   76.6    0.0
 2006 023    86  27.30  28.80  16.00  6.528  2.735  2.573  0.162  0.000  160.3   83.5   76.8    0.0
 2006 024    87  27.70  30.40  16.70  6.779  2.818  2.672  0.145  0.000  163.1   86.1   76.9    0.0
 2006 025    88  21.20  26.40  17.80  5.000  4.625  1.971  2.654  0.000  167.7   88.1   79.6    0.0
 2006 026    89  30.30  28.40  11.80  6.981  5.731  2.749  2.982  0.000  173.4   90.9   82.6    0.0
 2006 027    90  26.40  31.00  12.90  6.322  2.890  2.492  0.398  0.000  176.3   93.4   83.0    0.0
 2006 028    91  30.20  33.70  16.80  7.668  3.113  3.023  0.090  0.000  179.4   96.4   83.0    0.0
 2006 029    92  26.50  34.90  19.60  6.950  2.820  2.740  0.080  0.000  182.3   99.1   83.1    0.0
 2006 030    93  23.20  23.90  13.40  5.128  5.128  2.022  3.107  0.000  187.4  101.1   86.2    0.0
 2006 031    94  23.80  27.10  10.20  5.330  4.065  2.095  1.969  0.000  191.4  103.2   88.2    0.0
 2006 032    95  21.60  28.50  15.90  5.143  3.191  2.027  1.164  0.000  194.6  105.3   89.4    0.0
 2006 033    96  18.30  28.20  17.40  4.392  4.392  1.731  2.661  0.000  199.0  107.0   92.0    0.0
 2006 034    97  28.60  29.80  18.80  7.062  6.200  2.763  3.437  0.000  205.2  109.8   95.5    0.0
 2006 035    98   8.50  27.30  20.20  2.063  0.846  0.813  0.033  0.000  206.1  110.6   95.5    0.0
 2006 036    99   8.40  31.50  20.40  2.137  2.137  0.843  1.295  0.000  208.2  111.4   96.8    0.0
 2006 037   100  26.30  26.20  14.00  6.007  5.476  2.328  3.148  0.000  213.7  113.7   99.9    0.0
 2006 038   101  27.10  23.40  14.30  5.998  2.801  2.364  0.437  0.000  216.5  116.1  100.4    0.0
 2006 039   102  21.80  23.50  10.30  4.672  1.884  1.842  0.042  0.000  218.4  117.9  100.4    0.0
 2006 040   103  24.70  25.40  11.00  5.453  2.183  2.150  0.033  0.000  220.6  120.1  100.5    0.0
 2006 041   104  26.90  25.20  12.20  5.983  2.386  2.358  0.028  0.000  222.9  122.5  100.5    0.0
 2006 042   105  26.80  26.30  13.70  6.114  2.433  2.410  0.023  0.000  225.4  124.9  100.5    0.0
 2006 043   106  27.00  26.90  13.40  6.189  2.022  2.004  0.018  0.000  227.4  126.9  100.5    0.0
 2006 044   107  27.10  29.30  12.00  6.322  1.640  1.627  0.013  0.000  229.0  128.5  100.5    0.0
 2006 045   108  22.30  29.80  16.70  5.426  1.382  1.372  0.009  0.000  230.4  129.9  100.5    0.0
 2006 046   109  26.20  33.10  13.90  6.481  1.194  1.187  0.007  0.000  231.6  131.1  100.6    0.0
 2006 047   110  21.80  33.90  18.80  5.639  1.053  1.048  0.005  0.000  232.7  132.1  100.6    0.0
 2006 048   111  25.90  30.80  19.70  6.529  0.942  0.939  0.003  0.000  233.6  133.0  100.6    0.0
 2006 049   112  24.90  31.70  16.80  6.212  0.709  0.707  0.002  0.000  234.3  133.8  100.6    0.0
 2006 050   113  24.80  32.50  19.00  6.347  0.443  0.443  0.000  0.000  234.8  134.2  100.6    0.0
 2006 051   114  24.30  33.20  19.70  6.304  0.358  0.358  0.000  0.000  235.1  134.6  100.6    0.0
 2006 052   115  23.60  32.60  19.20  6.069  0.218  0.218  0.000  0.000  235.3  134.8  100.6    0.0
 2006 053   116   7.70  30.60  16.70  1.905  0.206  0.206  0.000  0.000  235.5  135.0  100.6    0.0
 2006 054   117  23.70  25.40  20.10  5.676  0.152  0.152  0.000  0.000  235.7  135.1  100.6    0.0
 2006 055   118   7.60  21.80  17.70  1.714  1.708  0.510  1.199  0.000  237.4  135.6  101.8    0.0
 2006 056   119  23.70  24.20  16.60  5.452  5.452  1.638  3.814  0.000  242.9  137.3  105.6    0.0
 2006 057   120  19.20  27.80  13.80  4.509  3.637  1.349  2.287  0.000  246.5  138.6  107.9    0.0
 2006 058   121  11.80  25.10  14.70  2.703  2.321  0.812  1.509  0.000  248.8  139.4  109.4    0.0

*DSSAT Cropping System Model Ver. 4.0.2.000               Aug 16, 2016; 17:55:43

*RUN   7        : UYMZ                    
 MODEL          : MZCER040 - Maize           
 EXPERIMENT     : UYMZ0214 MZ    late to create DSS                             
 TREATMENT  1   : UYMZ                    

@YEAR DOY   DAS   SRAA   TMXA   TMNA   EOAA   ETAA   EPAA   ESAA   EFAD   ETAC   EPAC   ESAC   EFAC
 2006 302     0   9.50  22.00  16.10  2.191  2.191  0.000  2.191  0.000    2.2    0.0    2.2    0.0
 2006 303     1  15.30  19.20  14.50  3.361  3.361  0.000  3.361  0.000    5.6    0.0    5.6    0.0
 2006 304     2  20.30  20.70  14.50  4.546  2.907  0.000  2.907  0.000    8.5    0.0    8.5    0.0
 2006 305     3  26.60  23.00  12.20  6.015  1.012  0.000  1.012  0.000    9.5    0.0    9.5    0.0
 2006 306     4  23.80  26.10  10.00  5.492  0.278  0.000  0.278  0.000    9.7    0.0    9.7    0.0
 2006 307     5  23.90  19.40   7.80  4.960  0.278  0.000  0.278  0.000   10.0    0.0   10.0    0.0
 2006 308     6  26.20  22.10   7.30  5.614  0.272  0.000  0.272  0.000   10.3    0.0   10.3    0.0
 2006 309     7  11.60  21.10  11.40  2.543  0.256  0.000  0.256  0.000   10.6    0.0   10.6    0.0
 2006 310     8  23.30  22.50  14.90  5.355  5.355  0.000  5.355  0.000   15.9    0.0   15.9    0.0
 2006 311     9  28.70  17.30   8.60  5.828  2.593  0.000  2.593  0.000   18.5    0.0   18.5    0.0
 2006 312    10  26.80  19.00   4.50  5.363  0.256  0.000  0.256  0.000   18.8    0.0   18.8    0.0
 2006 313    11  29.60  23.50   8.30  6.516  0.278  0.000  0.278  0.000   19.0    0.0   19.0    0.0
 2006 314    12  26.20  19.40  10.60  5.576  0.278  0.000  0.278  0.000   19.3    0.0   19.3    0.0
 2006 315    13  28.00  23.10   8.50  6.143  0.270  0.000  0.270  0.000   19.6    0.0   19.6    0.0
 2006 316    14  29.50  25.40  12.70  6.900  0.254  0.000  0.254  0.000   19.8    0.0   19.8    0.0
 2006 317    15  29.90  30.60  14.40  7.530  0.257  0.017  0.240  0.000   20.1    0.0   20.1    0.0
 2006 318    16  28.80  31.80  16.80  7.480  0.267  0.039  0.228  0.000   20.4    0.1   20.3    0.0
 2006 319    17  21.50  29.80  16.00  5.427  0.264  0.048  0.216  0.000   20.6    0.1   20.5    0.0
 2006 320    18  14.80  23.60  15.50  3.460  3.460  0.043  3.416  0.000   24.1    0.1   23.9    0.0
 2006 321    19  18.60  18.10  10.90  3.891  3.371  0.052  3.319  0.000   27.5    0.2   27.3    0.0
 2006 322    20  19.60  20.30   7.70  4.102  2.048  0.108  1.940  0.000   29.5    0.3   29.2    0.0
 2006 323    21  30.10  23.70   8.40  6.625  0.491  0.213  0.278  0.000   30.0    0.5   29.5    0.0
 2006 324    22  24.80  25.40   9.10  5.606  0.508  0.230  0.278  0.000   30.5    0.7   29.8    0.0
 2006 325    23  30.20  28.50  12.00  7.248  0.630  0.375  0.255  0.000   31.1    1.1   30.0    0.0
 2006 326    24  29.90  26.60  14.00  7.115  0.712  0.481  0.231  0.000   31.8    1.6   30.2    0.0
 2006 327    25  26.60  31.60  12.40  6.613  0.763  0.558  0.205  0.000   32.6    2.2   30.4    0.0
 2006 328    26  27.20  31.90  17.60  7.035  0.923  0.742  0.181  0.000   33.5    2.9   30.6    0.0
 2006 329    27  18.80  25.20  16.00  4.438  3.057  0.587  2.469  0.000   36.6    3.5   33.1    0.0
 2006 330    28   9.20  22.00  15.10  2.069  1.419  0.317  1.103  0.000   38.0    3.8   34.2    0.0
 2006 331    29  10.70  19.60  13.90  2.306  2.306  0.393  1.913  0.000   40.3    4.2   36.1    0.0
 2006 332    30  27.40  23.50  11.40  6.065  4.418  1.100  3.318  0.000   44.7    5.3   39.4    0.0
 2006 333    31  30.50  27.10  12.80  7.118  2.965  1.501  1.464  0.000   47.7    6.8   40.9    0.0
 2006 334    32  31.40  28.20  14.10  7.474  1.916  1.805  0.112  0.000   49.6    8.6   41.0    0.0
 2006 335    33  30.90  30.20  16.30  7.622  2.197  2.107  0.090  0.000   51.8   10.7   41.1    0.0
 2006 336    34  21.40  30.10  18.60  5.341  1.755  1.678  0.077  0.000   53.6   12.4   41.2    0.0
 2006 337    35  30.80  22.50  16.10  6.871  2.509  2.441  0.068  0.000   56.1   14.8   41.2    0.0
 2006 338    36  28.30  23.10  12.10  6.134  3.917  2.357  1.560  0.000   60.0   17.2   42.8    0.0
 2006 339    37  14.60  25.00  12.60  3.244  1.383  1.332  0.050  0.000   61.4   18.5   42.9    0.0
[...]
 2012 328    26  16.30  22.60  13.60  3.624  3.624  0.767  2.857  0.000   38.3    5.9   32.4    0.0
 2012 329    27  29.20  25.50  11.40  6.591  6.081  1.521  4.560  0.000   44.4    7.4   37.0    0.0
 2012 330    28  29.80  22.70   7.90  6.283  2.774  1.650  1.124  0.000   47.2    9.1   38.1    0.0
 2012 331    29  17.00  22.40  10.60  3.647  2.428  1.026  1.402  0.000   49.6   10.1   39.5    0.0
 2012 332    30  31.10  30.50  11.00  7.373  2.783  2.225  0.557  0.000   52.4   12.3   40.0    0.0
 2012 333    31  20.00  25.50  13.90  4.555  2.875  1.540  1.335  0.000   55.2   13.9   41.4    0.0
 2012 334    32  29.40  24.20  12.80  6.510  2.497  2.396  0.101  0.000   57.7   16.3   41.5    0.0
 2012 335    33  13.80  24.80  16.10  3.151  2.973  1.251  1.722  0.000   60.7   17.5   43.2    0.0
 2012 336    34  30.80  27.70  14.60  7.167  5.211  3.071  2.140  0.000   65.9   20.6   45.3    0.0
 2012 337    35  31.50  32.30  14.70  7.697  3.647  3.585  0.062  0.000   69.6   24.2   45.4    0.0
 2012 338    36  18.90  31.90  20.50  4.771  2.493  2.438  0.055  0.000   72.1   26.6   45.5    0.0
 2012 339    37  12.50  29.30  21.10  3.067  1.951  1.705  0.246  0.000   74.0   28.3   45.7    0.0
 2012 340    38  30.30  31.10  19.80  7.473  3.982  3.942  0.040  0.000   78.0   32.3   45.7    0.0
 2012 341    39   9.00  26.10  20.70  2.108  1.656  1.321  0.335  0.000   79.7   33.6   46.1    0.0
 2012 342    40  29.70  24.50  18.70  6.707  6.707  4.371  2.336  0.000   86.4   37.9   48.4    0.0
 2012 343    41  32.20  28.40  13.60  7.292  7.292  4.958  2.334  0.000   93.7   42.9   50.7    0.0
 2012 344    42  32.10  30.60  14.70  7.499  7.003  5.271  1.731  0.000  100.7   48.2   52.5    0.0
 2012 345    43  20.80  32.30  16.60  5.009  5.009  3.640  1.370  0.000  105.7   51.8   53.8    0.0
 2012 346    44  30.10  26.90  16.20  6.777  6.777  5.149  1.628  0.000  112.4   57.0   55.5    0.0
 2012 347    45  31.80  31.70  15.30  7.493  7.493  5.851  1.642  0.000  119.9   62.8   57.1    0.0
 2012 348    46  31.20  27.30  16.70  7.061  7.018  5.594  1.424  0.000  127.0   68.4   58.5    0.0
 2012 349    47  25.60  29.90  14.00  5.845  5.840  4.640  1.199  0.000  132.8   73.0   59.7    0.0
 2012 350    48  28.70  30.20  18.80  6.816  6.816  5.405  1.411  0.000  139.6   78.5   61.2    0.0
 2012 351    49   9.10  26.00  17.80  2.046  2.046  1.619  0.428  0.000  141.7   80.1   61.6    0.0
 2012 352    50  27.60  24.90  17.30  6.106  6.106  4.800  1.306  0.000  147.8   84.9   62.9    0.0
 2012 353    51  12.00  23.70  15.80  2.587  2.587  2.022  0.565  0.000  150.3   86.9   63.5    0.0
 2012 354    52  16.50  27.40  15.50  3.710  3.710  2.882  0.828  0.000  154.1   89.8   64.3    0.0
 2012 355    53  14.60  24.40  15.10  3.159  3.159  2.441  0.718  0.000  157.2   92.2   65.0    0.0
 2012 356    54  30.50  27.40  13.30  6.747  6.747  5.181  1.566  0.000  164.0   97.4   66.6    0.0
 2012 357    55  32.40  29.50  13.80  7.377  7.377  5.630  1.748  0.000  171.3  103.0   68.3    0.0
 2012 358    56  32.40  32.10  15.00  7.669  7.613  5.806  1.807  0.000  179.0  108.8   70.1    0.0
 2012 359    57  29.20  36.00  23.00  7.967  7.260  6.014  1.247  0.000  186.2  114.8   71.4    0.0
 2012 360    58  15.90  29.20  19.40  3.767  3.767  2.837  0.930  0.000  190.0  117.7   72.3    0.0
 2012 361    59  27.80  21.80  14.80  5.827  5.827  4.365  1.463  0.000  195.8  122.0   73.8    0.0
 2012 362    60  29.60  22.90  13.90  6.248  6.248  4.634  1.614  0.000  202.1  126.7   75.4    0.0
 2012 363    61  32.00  26.40  11.70  6.934  6.469  5.048  1.420  0.000  208.5  131.7   76.8    0.0
 2012 364    62  26.00  29.00  15.70  6.000  6.000  4.314  1.687  0.000  214.5  136.0   78.5    0.0
 2012 365    63  32.10  33.10  18.90  7.942  5.840  5.637  0.204  0.000  220.4  141.7   78.7    0.0
 2012 366    64  23.10  33.60  19.70  5.783  4.207  4.054  0.153  0.000  224.6  145.7   78.8    0.0
 2013 001    65  29.50  20.90  14.60  6.140  6.140  4.253  1.887  0.000  230.7  150.0   80.7    0.0
 2013 002    66  32.00  20.10  11.30  6.413  6.211  4.187  2.024  0.000  236.9  154.2   82.7    0.0
 2013 003    67  31.50  25.70   9.60  6.690  5.893  4.525  1.368  0.000  242.8  158.7   84.1    0.0
 2013 004    68  27.30  30.90  16.40  6.505  4.702  4.349  0.352  0.000  247.5  163.1   84.5    0.0
 2013 005    69  26.60  31.80  19.20  6.538  6.538  4.323  2.215  0.000  254.1  167.4   86.7    0.0
 2013 006    70  29.00  28.90  19.50  6.926  6.609  4.215  2.395  0.000  260.7  171.6   89.1    0.0
 2013 007    71  27.10  31.10  18.90  6.606  4.664  3.663  1.001  0.000  265.3  175.3   90.1    0.0
 2013 008    72  23.70  28.80  18.40  5.616  2.481  2.452  0.029  0.000  267.8  177.7   90.1    0.0
 2013 009    73  31.80  29.20  16.10  7.448  1.900  1.881  0.019  0.000  269.7  179.6   90.1    0.0
 2013 010    74  31.80  32.50  14.10  7.623  1.553  1.539  0.014  0.000  271.3  181.1   90.1    0.0
 2013 011    75  32.30  31.60  15.90  7.779  1.318  1.308  0.010  0.000  272.6  182.4   90.1    0.0
 2013 012    76  28.30  29.80  15.70  6.680  1.147  1.140  0.007  0.000  273.7  183.6   90.2    0.0
 2013 013    77  31.60  30.40  17.40  7.616  1.017  1.012  0.005  0.000  274.7  184.6   90.2    0.0
 2013 014    78  28.90  29.80  16.00  6.858  0.914  0.911  0.003  0.000  275.7  185.5   90.2    0.0
 2013 015    79  31.20  30.80  16.70  7.537  0.693  0.691  0.002  0.000  276.4  186.2   90.2    0.0
 2013 016    80  26.60  30.90  17.40  6.477  0.414  0.414  0.000  0.000  276.8  186.6   90.2    0.0
 2013 017    81  21.30  28.80  20.20  5.182  0.319  0.319  0.000  0.000  277.1  186.9   90.2    0.0
 2013 018    82  27.90  28.80  17.50  6.663  0.207  0.207  0.000  0.000  277.3  187.1   90.2    0.0
 2013 019    83  19.10  24.70  17.40  4.355  2.390  0.178  2.212  0.000  279.7  187.3   92.4    0.0
 2013 020    84  30.80  26.10  15.30  7.033  0.288  0.013  0.274  0.000  280.0  187.3   92.7    0.0
 2013 021    85  28.00  27.00  15.30  6.473  0.110  0.109  0.000  0.000  280.1  187.4   92.7    0.0
 2013 022    86  30.00  30.70  16.50  7.312  0.000  0.000  0.000  0.000  280.1  187.4   92.7    0.0
 2013 023    87  26.30  31.60  18.60  6.585  0.108  0.108  0.000  0.000  280.2  187.5   92.7    0.0
 2013 024    88  27.70  34.00  16.50  7.023  3.002  0.202  2.800  0.000  283.2  187.7   95.5    0.0
 2013 025    89  30.50  20.70  15.30  6.575  6.286  2.653  3.633  0.000  289.5  190.4   99.1    0.0
 2013 026    90  30.30  25.80  11.00  6.722  5.341  2.647  2.695  0.000  294.8  193.0  101.8    0.0
 2013 027    91  29.10  30.40  13.20  6.943  2.939  2.687  0.252  0.000  297.8  195.7  102.0    0.0
 2013 028    92  29.90  33.90  17.50  7.659  3.179  2.901  0.278  0.000  300.9  198.6  102.3    0.0
 2013 029    93  25.80  34.20  19.20  6.716  2.708  2.488  0.220  0.000  303.6  201.1  102.5    0.0
 2013 030    94  29.90  32.50  18.80  7.630  2.928  2.763  0.164  0.000  306.6  203.9  102.7    0.0
 2013 031    95  27.60  32.70  19.10  7.080  2.629  2.505  0.124  0.000  309.2  206.4  102.8    0.0
 2013 032    96  28.70  34.70  20.20  7.583  2.708  2.620  0.088  0.000  311.9  209.0  102.9    0.0
 2013 033    97  21.90  27.80  19.10  5.334  3.962  1.746  2.217  0.000  315.9  210.7  105.1    0.0
 2013 034    98  29.60  22.30  11.50  6.358  2.565  2.091  0.474  0.000  318.4  212.8  105.6    0.0
 2013 035    99  28.70  26.80   9.10  6.399  2.064  2.026  0.038  0.000  320.5  214.9  105.6    0.0
 2013 036   100  29.80  29.50  13.00  7.084  1.727  1.699  0.029  0.000  322.2  216.6  105.7    0.0
 2013 037   101  29.40  29.60  14.90  7.106  1.126  1.105  0.021  0.000  323.4  217.7  105.7    0.0
 2013 038   102  28.60  30.80  14.00  6.967  0.963  0.948  0.015  0.000  324.3  218.6  105.7    0.0
 2013 039   103  28.40  31.20  16.00  7.060  0.723  0.712  0.011  0.000  325.0  219.3  105.7    0.0
 2013 040   104  28.60  32.20  17.80  7.290  0.703  0.696  0.008  0.000  325.7  220.0  105.7    0.0
 2013 041   105  14.70  32.00  20.90  3.826  0.534  0.528  0.006  0.000  326.3  220.6  105.7    0.0
 2013 042   106  20.50  29.20  20.20  5.155  5.155  1.354  3.801  0.000  331.4  221.9  109.5    0.0
 2013 043   107  25.90  32.30  19.30  6.698  5.326  1.692  3.634  0.000  336.8  223.6  113.2    0.0
 2013 044   108  13.20  29.30  20.00  3.324  3.269  0.820  2.449  0.000  340.0  224.4  115.6    0.0
 2013 045   109  21.70  30.20  19.00  5.479  3.520  1.333  2.187  0.000  343.5  225.8  117.8    0.0
 2013 046   110  26.90  32.10  17.20  6.844  1.862  1.687  0.174  0.000  345.4  227.4  118.0    0.0

*DSSAT Cropping System Model Ver. 4.0.2.000               Aug 16, 2016; 17:55:43

*RUN  14        : UYMZ                    
 MODEL          : MZCER040 - Maize           
 EXPERIMENT     : UYMZ0214 MZ    late to create DSS                             
 TREATMENT  1   : UYMZ                    

@YEAR DOY   DAS   SRAA   TMXA   TMNA   EOAA   ETAA   EPAA   ESAA   EFAD   ETAC   EPAC   ESAC   EFAC
 2013 302     0  21.10  25.30   9.80  4.813  3.364  0.000  3.364  0.000    3.4    0.0    3.4    0.0
 2013 303     1  23.10  26.70  10.60  5.396  0.743  0.000  0.743  0.000    4.1    0.0    4.1    0.0
 2013 304     2   8.00  23.80  15.90  1.883  0.084  0.000  0.084  0.000    4.2    0.0    4.2    0.0
 2013 305     3   8.10  20.40  17.80  1.858  1.858  0.000  1.858  0.000    6.0    0.0    6.0    0.0
 2013 306     4   8.10  19.40  14.00  1.776  1.776  0.000  1.776  0.000    7.8    0.0    7.8    0.0
 2013 307     5  19.00  18.90  11.70  4.056  3.500  0.000  3.500  0.000   11.3    0.0   11.3    0.0
 2013 308     6  23.50  19.40  10.70  5.006  2.152  0.000  2.152  0.000   13.5    0.0   13.5    0.0
 2013 309     7  28.70  23.90   7.90  6.329  0.272  0.000  0.272  0.000   13.7    0.0   13.7    0.0
 2013 310     8  28.90  26.70  12.20  6.839  0.278  0.000  0.278  0.000   14.0    0.0   14.0    0.0
 2013 311     9  21.10  26.80  14.20  5.079  0.269  0.000  0.269  0.000   14.3    0.0   14.3    0.0
 2013 312    10   8.50  21.10  16.60  1.947  1.947  0.000  1.947  0.000   16.2    0.0   16.2    0.0
 2013 313    11  21.20  24.00  14.60  4.949  4.481  0.004  4.477  0.000   20.7    0.0   20.7    0.0
 2013 314    12  17.10  24.70  16.50  4.087  1.566  0.016  1.550  0.000   22.3    0.0   22.3    0.0
 2013 315    13   8.40  19.50  15.60  1.869  0.290  0.012  0.278  0.000   22.6    0.0   22.5    0.0
 2013 316    14  28.70  27.30  13.60  6.910  0.335  0.057  0.278  0.000   22.9    0.1   22.8    0.0
 2013 317    15  24.70  25.90  11.00  5.725  0.339  0.065  0.274  0.000   23.3    0.2   23.1    0.0
 2013 318    16  29.80  32.20  12.80  7.540  0.360  0.106  0.254  0.000   23.6    0.3   23.4    0.0
 2013 319    17  18.70  24.30  15.10  4.386  4.386  0.124  4.262  0.000   28.0    0.4   27.6    0.0
 2013 320    18  29.90  19.50  10.80  6.356  4.081  0.239  3.842  0.000   32.1    0.6   31.5    0.0
 2013 321    19  30.30  26.10   9.40  6.921  0.524  0.329  0.195  0.000   32.6    1.0   31.7    0.0
 2013 322    20  27.50  27.80  13.20  6.601  0.677  0.398  0.278  0.000   33.3    1.3   31.9    0.0
 2013 323    21   8.70  20.40  17.00  1.965  0.405  0.151  0.254  0.000   33.7    1.5   32.2    0.0
 2013 324    22   8.80  20.90  17.30  2.002  2.002  0.181  1.821  0.000   35.7    1.7   34.0    0.0
 2013 325    23  18.80  21.30  13.10  4.143  4.143  0.435  3.708  0.000   39.8    2.1   37.7    0.0
 2013 326    24  29.90  27.00  11.20  6.952  3.270  0.824  2.446  0.000   43.1    2.9   40.2    0.0
 2013 327    25  29.80  28.10  14.30  7.178  1.256  0.995  0.261  0.000   44.4    3.9   40.4    0.0
 2013 328    26  28.20  31.10  16.00  7.100  1.397  1.159  0.239  0.000   45.8    5.1   40.7    0.0
 2013 329    27  13.30  26.80  18.20  3.230  0.841  0.644  0.197  0.000   46.6    5.7   40.9    0.0
 2013 330    28   8.80  20.30  16.30  1.940  1.940  0.448  1.492  0.000   48.5    6.2   42.4    0.0
 2013 331    29   9.90  21.20  13.90  2.158  2.158  0.549  1.609  0.000   50.7    6.7   44.0    0.0
 2013 332    30  31.80  25.40  11.20  7.125  6.761  1.912  4.848  0.000   57.5    8.6   48.8    0.0
 2013 333    31  31.20  22.70  13.60  6.876  3.757  2.081  1.677  0.000   61.2   10.7   50.5    0.0
 2013 334    32  30.20  29.00  10.80  7.003  2.580  2.302  0.278  0.000   63.8   13.0   50.8    0.0
 2013 335    33  31.10  29.30  15.90  7.499  2.966  2.719  0.247  0.000   66.8   15.8   51.0    0.0
 2013 336    34  29.60  33.10  18.70  7.563  3.243  3.043  0.200  0.000   70.0   18.8   51.2    0.0
 2013 337    35  31.70  19.60  10.20  6.412  6.412  2.886  3.526  0.000   76.4   21.7   54.7    0.0
 2013 338    36  30.80  31.30   9.20  7.136  6.059  3.332  2.727  0.000   82.5   25.0   57.5    0.0
 2013 339    37  31.80  21.80  12.00  6.690  3.529  3.326  0.203  0.000   86.0   28.3   57.7    0.0
 2013 340    38  31.50  21.30  10.60  6.495  3.444  3.326  0.118  0.000   89.4   31.7   57.8    0.0
 2013 341    39  31.50  31.20   9.60  7.269  3.872  3.794  0.078  0.000   93.3   35.5   57.9    0.0
 2013 342    40  25.50  34.50  16.90  6.431  3.521  3.467  0.054  0.000   96.8   38.9   57.9    0.0
 2013 343    41  13.10  23.30  16.60  2.893  2.893  1.661  1.232  0.000   99.7   40.6   59.1    0.0
 2013 344    42  26.50  22.40  14.20  5.661  4.009  3.370  0.639  0.000  103.7   44.0   59.8    0.0
 2013 345    43  31.40  27.40  10.20  6.893  3.989  3.960  0.029  0.000  107.7   47.9   59.8    0.0
 2013 346    44  28.90  29.40  12.60  6.612  2.124  2.101  0.023  0.000  109.9   50.0   59.8    0.0
 2013 347    45  31.80  30.40  15.50  7.521  1.542  1.526  0.016  0.000  111.4   51.5   59.9    0.0
 2013 348    46  29.60  32.40  17.40  7.261  1.229  1.217  0.012  0.000  112.6   52.8   59.9    0.0
 2013 349    47  29.60  34.10  18.40  7.451  1.028  1.020  0.009  0.000  113.7   53.8   59.9    0.0
 2013 350    48  28.70  33.00  19.60  7.207  0.887  0.881  0.006  0.000  114.5   54.7   59.9    0.0
 2013 351    49  30.60  35.40  18.60  7.970  0.779  0.775  0.004  0.000  115.3   55.4   59.9    0.0
 2013 352    50  29.40  34.10  18.70  7.432  0.692  0.689  0.003  0.000  116.0   56.1   59.9    0.0
 2013 353    51  31.50  29.90  18.40  7.602  0.606  0.605  0.001  0.000  116.6   56.7   59.9    0.0
 2013 354    52  29.60  29.50  18.60  7.133  0.551  0.551  0.000  0.000  117.2   57.3   59.9    0.0
 2013 355    53  31.70  31.90  17.60  7.794  0.626  0.626  0.000  0.000  117.8   57.9   59.9    0.0
 2013 356    54  31.70  33.30  18.40  7.969  0.770  0.770  0.000  0.000  118.6   58.7   59.9    0.0
 2013 357    55  32.60  34.30  19.20  8.339  0.935  0.935  0.000  0.000  119.5   59.6   59.9    0.0
 2013 358    56  32.40  35.40  18.60  8.508  1.061  1.061  0.000  0.000  120.6   60.7   59.9    0.0
 2013 359    57  32.10  37.30  20.20  9.434  1.104  1.104  0.000  0.000  121.7   61.8   59.9    0.0
 2013 360    58  26.80  38.90  22.60  8.674  1.013  1.013  0.000  0.000  122.7   62.8   59.9    0.0
 2013 361    59  26.90  32.70  22.00  6.923  2.169  0.669  1.500  0.000  124.8   63.5   61.4    0.0
 2013 362    60  28.30  36.40  18.10  7.844  0.647  0.647  0.000  0.000  125.5   64.1   61.4    0.0
 2013 363    61  22.20  34.50  23.40  5.892  0.514  0.514  0.000  0.000  126.0   64.6   61.4    0.0
 2013 364    62  31.10  35.80  22.70  8.639  0.494  0.494  0.000  0.000  126.5   65.1   61.4    0.0
 2013 365    63  17.60  29.50  20.00  4.339  1.833  0.396  1.437  0.000  128.3   65.5   62.8    0.0
 2014 001    64  26.10  33.10  20.20  6.707  1.341  0.486  0.855  0.000  129.7   66.0   63.7    0.0
 2014 002    65  10.30  26.00  19.10  2.432  2.432  1.051  1.381  0.000  132.1   67.0   65.1    0.0
 2014 003    66  31.20  22.00  14.90  6.793  6.793  2.921  3.872  0.000  138.9   70.0   68.9    0.0
 2014 004    67  31.30  29.80  11.80  7.303  5.927  3.123  2.804  0.000  144.8   73.1   71.7    0.0
 2014 005    68  31.00  31.50  17.70  7.708  4.151  3.291  0.861  0.000  149.0   76.4   72.6    0.0
 2014 006    69  31.00  35.40  18.10  8.206  3.771  3.493  0.278  0.000  152.8   79.9   72.9    0.0
 2014 007    70   9.10  26.40  18.70  2.154  2.154  0.914  1.239  0.000  154.9   80.8   74.1    0.0
 2014 008    71  29.60  26.40  17.40  6.937  6.937  2.938  3.999  0.000  161.8   83.7   78.1    0.0
 2014 009    72  24.60  31.90  15.30  6.039  5.959  2.554  3.405  0.000  167.8   86.3   81.5    0.0
 2014 010    73  21.30  30.10  18.20  5.238  5.064  2.207  2.856  0.000  172.9   88.5   84.4    0.0
 2014 011    74  23.70  22.40  14.80  5.188  5.179  2.168  3.012  0.000  178.0   90.7   87.4    0.0
 2014 012    75  25.40  23.30  10.80  5.440  3.231  2.267  0.964  0.000  181.3   92.9   88.4    0.0
 2014 013    76  28.10  27.80  14.10  6.532  2.981  2.702  0.278  0.000  184.3   95.6   88.6    0.0
 2014 014    77  30.40  28.30  16.70  7.253  3.224  2.977  0.247  0.000  187.5   98.6   88.9    0.0
 2014 015    78  30.70  31.00  17.50  7.598  3.299  3.089  0.210  0.000  190.8  101.7   89.1    0.0
 2014 016    79  31.10  33.30  19.50  8.008  3.398  3.221  0.177  0.000  194.2  104.9   89.3    0.0
 2014 017    80  28.10  35.50  21.00  7.655  3.190  3.041  0.149  0.000  197.4  108.0   89.4    0.0
 2014 018    81  31.90  36.60  21.60  9.260  3.752  3.628  0.123  0.000  201.1  111.6   89.5    0.0
 2014 019    82  28.30  28.00  20.80  6.958  2.786  2.685  0.101  0.000  203.9  114.3   89.6    0.0
 2014 020    83  18.90  31.40  20.10  4.802  1.906  1.822  0.084  0.000  205.8  116.1   89.7    0.0
 2014 021    84  12.00  27.30  20.60  2.928  2.928  1.091  1.837  0.000  208.7  117.2   91.6    0.0
 2014 022    85  25.20  33.10  20.00  6.525  6.525  2.383  4.142  0.000  215.3  119.6   95.7    0.0
 2014 023    86  19.10  35.60  20.80  5.247  4.812  1.876  2.936  0.000  220.1  121.4   98.6    0.0
 2014 024    87   9.20  21.60  16.70  2.041  2.041  0.714  1.327  0.000  222.1  122.2  100.0    0.0
 2014 025    88  29.80  20.40  12.10  6.270  6.270  2.138  4.132  0.000  228.4  124.3  104.1    0.0
 2014 026    89  28.80  26.90  12.30  6.589  4.631  2.186  2.445  0.000  233.0  126.5  106.5    0.0
 2014 027    90  13.60  27.40  18.20  3.280  1.321  1.059  0.261  0.000  234.3  127.5  106.8    0.0
 2014 028    91   8.80  24.70  20.70  2.100  2.100  0.658  1.441  0.000  236.4  128.2  108.2    0.0
 2014 029    92   9.40  27.00  21.00  2.310  2.310  0.702  1.608  0.000  238.7  128.9  109.9    0.0
 2014 030    93  15.20  27.50  20.80  3.755  3.755  1.104  2.650  0.000  242.5  130.0  112.5    0.0
 2014 031    94  26.40  32.80  19.80  6.865  6.421  1.953  4.468  0.000  248.9  132.0  117.0    0.0
 2014 032    95  10.00  24.70  19.90  2.382  2.382  0.655  1.726  0.000  251.3  132.6  118.7    0.0
 2014 033    96  10.70  24.00  19.20  2.516  2.516  0.670  1.847  0.000  253.8  133.3  120.5    0.0
 2014 034    97   9.80  21.40  18.10  2.217  2.217  0.570  1.647  0.000  256.0  133.8  122.2    0.0
 2014 035    98  22.10  28.90  16.90  5.414  5.414  1.344  4.069  0.000  261.5  135.2  126.3    0.0
 2014 036    99  23.90  36.00  20.90  6.802  3.900  1.634  2.266  0.000  265.4  136.8  128.5    0.0
 2014 037   100   8.40  22.00  16.30  1.891  1.891  0.439  1.452  0.000  267.2  137.3  130.0    0.0
 2014 038   101   8.70  23.90  18.50  2.042  2.042  0.457  1.584  0.000  269.3  137.7  131.6    0.0
 2014 039   102  22.00  34.20  20.60  5.883  5.883  1.271  4.612  0.000  275.2  139.0  136.2    0.0
 2014 040   103  15.60  27.30  19.30  3.838  3.838  0.800  3.038  0.000  279.0  139.8  139.2    0.0
 2014 041   104  16.00  27.00  17.70  3.879  3.619  0.778  2.841  0.000  282.6  140.6  142.1    0.0
 2014 042   105  18.20  30.70  20.20  4.688  2.904  0.905  1.999  0.000  285.5  141.5  144.1    0.0
 2014 043   106  25.10  27.70  19.20  6.215  5.790  1.153  4.638  0.000  291.3  142.6  148.7    0.0
 2014 044   107  24.30  25.10  17.50  5.764  3.403  1.069  2.334  0.000  294.7  143.7  151.0    0.0
 2014 045   108  27.00  22.80  15.30  6.121  1.401  1.135  0.266  0.000  296.1  144.8  151.3    0.0
 2014 046   109  19.80  23.80  14.10  4.500  1.104  0.835  0.270  0.000  297.2  145.7  151.6    0.0
 2014 047   110  25.50  28.30  16.50  6.229  1.399  1.155  0.243  0.000  298.6  146.8  151.8    0.0
