*PLANT N OUTPUT FILE

*DSSAT Cropping System Model Ver. 4.0.2.000               Aug 16, 2016; 17:55:43

*RUN   1        : UYMZ                    
 MODEL          : MZCER040 - Maize           
 EXPERIMENT     : UYMZ0214 MZ    late to create DSS                             
 TREATMENT  1   : UYMZ                    

@YEAR DOY   DAS   DAP   CNAD   GNAD   VNAD   GN%D   VN%D   NUPC   LNAD   SNAD   LN%D   SN%D   RN%D   SNN0C   SNN1C
 2000 305     3     0    0.0    0.0    0.0   0.00   0.00    0.0    0.0    0.0    0.0   0.00   0.00    0.00    0.00
 2000 306     4     1    0.0    0.0    0.0   0.00   0.00    0.0    0.0    0.0    0.0   0.00   0.00    0.00    0.00
 2000 307     5     2    0.0    0.0    0.0   0.00   0.00    0.0    0.0    0.0    0.0   0.00   0.00    0.00    0.00
 2000 308     6     3    0.0    0.0    0.0   0.00   0.00    0.0    0.0    0.0    0.0   0.00   0.00    0.00    0.00
 2000 309     7     4    0.0    0.0    0.0   0.00   0.00    0.0    0.0    0.0    0.0   0.00   0.00    0.00    0.00
 2000 310     8     5    0.0    0.0    0.0   0.00   0.00    0.0    0.0    0.0    0.0   0.00   0.00    0.00    0.00
 2000 311     9     6    0.0    0.0    0.0   0.00   0.00    0.0    0.0    0.0    0.0   0.00   0.00    0.00    0.00
 2000 312    10     7    0.0    0.0    0.0   0.00   0.00    0.0    0.0    0.0    0.0   0.00   0.00    0.00    0.00
 2000 313    11     8    1.2    0.0    1.2   0.00   4.40    0.0    0.6    0.6    4.4   4.40   0.00    0.00    0.00
 2000 314    12     9    1.3    0.0    1.3   0.00   4.49    0.2    0.6    0.6    4.5   4.49   1.11    0.00    0.00
 2000 315    13    10    1.2    0.0    1.2   0.00   4.46    0.2    0.6    0.6    4.5   4.46   1.13    0.00    0.00
 2000 316    14    11    1.2    0.0    1.2   0.00   4.41    0.2    0.6    0.6    4.4   4.41   1.17    0.00    0.00
 2000 317    15    12    1.2    0.0    1.2   0.00   4.37    0.2    0.6    0.6    4.4   4.37   1.18    0.00    0.00
 2000 318    16    13    1.2    0.0    1.2   0.00   4.34    0.3    0.6    0.6    4.3   4.34   1.24    0.00    0.00
 2000 319    17    14    1.2    0.0    1.2   0.00   4.32    0.3    0.6    0.6    4.3   4.32   1.26    0.00    0.01
 2000 320    18    15    1.2    0.0    1.2   0.00   4.30    0.3    0.6    0.6    4.3   4.30   1.28    0.00    0.01
 2000 321    19    16    1.2    0.0    1.2   0.00   4.27    0.4    0.6    0.6    4.3   4.27   1.23    0.00    0.01
 2000 322    20    17    1.2    0.0    1.2   0.00   4.22    0.5    0.6    0.6    4.2   4.22   1.27    0.00    0.01
 2000 323    21    18    1.2    0.0    1.2   0.00   3.22    0.6    0.7    0.5    3.2   3.22   1.25    0.00    0.01
 2000 324    22    19    1.5    0.0    1.5   0.00   3.53    0.9    1.0    0.5    3.5   3.53   1.14    0.00    0.02
 2000 325    23    20    1.7    0.0    1.7   0.00   3.58    1.5    1.2    0.5    3.6   3.58   1.34    0.00    0.02
 2000 326    24    21    2.0    0.0    2.0   0.00   3.41    1.9    1.5    0.5    3.4   3.41   1.26    0.00    0.02
 2000 327    25    22    2.3    0.0    2.3   0.00   3.29    2.3    1.9    0.5    3.3   3.29   1.20    0.00    0.03
 2000 328    26    23    2.8    0.0    2.8   0.00   3.11    3.0    2.4    0.4    3.1   3.11   1.21    0.00    0.04
 2000 329    27    24    3.6    0.0    3.6   0.00   3.57    4.5    3.1    0.5    3.6   3.57   1.35    0.00    0.04
 2000 330    28    25    3.9    0.0    3.9   0.00   3.45    5.2    3.4    0.5    3.5   3.45   1.29    0.00    0.05
 2000 331    29    26    4.4    0.0    4.4   0.00   3.40    6.1    3.9    0.5    3.4   3.40   1.24    0.00    0.07
 2000 332    30    27    5.0    0.0    5.0   0.00   3.10    7.3    4.6    0.4    3.1   3.10   1.25    0.00    0.08
 2000 333    31    28    6.2    0.0    6.2   0.00   3.28    8.5    5.7    0.5    3.3   3.28   1.16    0.00    0.10
 2000 334    32    29    8.0    0.0    8.0   0.00   3.77   11.7    7.4    0.5    3.8   3.77   1.28    0.00    0.12
 2000 335    33    30    8.8    0.0    8.8   0.00   3.68   13.5    8.3    0.5    3.7   3.68   1.26    0.00    0.14
 2000 336    34    31    9.8    0.0    9.8   0.00   3.56   15.5    9.2    0.5    3.6   3.56   1.24    0.00    0.17
 2000 337    35    32   11.1    0.0   11.1   0.00   3.51   17.9   10.6    0.5    3.5   3.51   1.22    0.00    0.21
 2000 338    36    33   12.2    0.0   12.2   0.00   3.47   18.9   11.6    0.5    3.5   3.47   1.14    0.00    0.25
 2000 339    37    34   13.3    0.0   13.3   0.00   3.44   21.8   12.7    0.6    3.4   3.44   1.22    0.00    0.29
 2000 340    38    35   14.7    0.0   14.7   0.00   3.40   24.7   14.1    0.7    3.4   3.40   1.21    0.00    0.33
 2000 341    39    36   17.4    0.0   17.4   0.00   3.34   28.3   16.5    0.9    3.3   3.34   1.18    0.00    0.39
 2000 342    40    37   20.4    0.0   20.4   0.00   3.28   31.5   19.1    1.3    3.3   3.28   1.13    0.00    0.45
 2000 343    41    38   23.0    0.0   23.0   0.00   3.16   35.2   21.3    1.7    3.2   3.16   1.14    0.00    0.51
 2000 344    42    39   24.3    0.0   24.3   0.00   3.14   38.2   22.4    1.9    3.1   3.14   1.16    0.00    0.58
 2000 345    43    40   26.4    0.0   26.4   0.00   3.18   41.3   24.0    2.3    3.2   3.18   1.17    0.00    0.65
 2000 346    44    41   28.0    0.0   28.0   0.00   3.12   43.9   25.2    2.8    3.1   3.12   1.17    0.00    0.73
 2000 347    45    42   29.5    0.0   29.5   0.00   3.07   46.1   26.2    3.3    3.1   3.07   1.17    0.00    0.82
 2000 348    46    43   32.3    0.0   32.3   0.00   3.08   48.7   28.1    4.1    3.1   3.08   1.14    0.00    0.91
 2000 349    47    44   33.5    0.0   33.5   0.00   2.92   50.8   28.5    4.9    2.9   2.92   1.13    0.00    1.00
 2000 350    48    45   34.9    0.0   34.9   0.00   2.85   52.9   29.2    5.7    2.8   2.85   1.11    0.00    1.09
 2000 351    49    46   35.7    0.0   35.7   0.00   2.69   54.5   29.3    6.4    2.7   2.69   1.05    0.00    1.18
 2000 352    50    47   36.4    0.0   36.4   0.00   2.44   55.6   28.9    7.5    2.4   2.44   1.00    0.00    1.28
 2000 353    51    48   37.1    0.0   37.1   0.00   2.30   56.4   28.7    8.4    2.3   2.30   0.99    0.00    1.39
 2000 354    52    49   37.6    0.0   37.6   0.00   2.25   57.1   28.6    8.9    2.2   2.25   0.98    0.00    1.49
 2000 355    53    50   37.9    0.0   37.9   0.00   2.22   57.6   28.6    9.4    2.2   2.22   0.98    0.00    1.59
 2000 356    54    51   38.3    0.0   38.3   0.00   2.15   58.1   28.2   10.1    2.1   2.15   0.97    0.00    1.69
 2000 357    55    52   38.8    0.0   38.8   0.00   2.09   58.7   27.9   10.8    2.1   2.09   0.97    0.00    1.80
 2000 358    56    53   39.2    0.0   39.2   0.00   2.06   59.3   27.8   11.4    2.1   2.06   0.95    0.00    1.90
 2000 359    57    54   39.7    0.0   39.7   0.00   2.01   59.9   27.6   12.1    2.0   2.01   0.94    0.00    2.01
 2000 360    58    55   40.1    0.0   40.1   0.00   1.93   60.6   27.0   13.2    1.9   1.93   0.93    0.00    2.12
 2000 361    59    56   44.0    0.0   44.0   0.00   1.99   65.2   28.4   15.6    2.0   1.99   0.96    0.00    2.22
 2000 362    60    57   47.1    0.0   47.1   0.00   1.89   68.8   28.3   18.8    1.9   1.89   0.97    0.00    2.33
 2000 363    61    58   49.5    0.0   49.5   0.00   1.80   71.6   28.0   21.5    1.8   1.80   0.97    0.00    2.45
 2000 364    62    59   51.7    0.0   51.7   0.00   1.73   74.0   27.8   23.8    1.7   1.73   0.98    0.00    2.56
 2000 365    63    60   53.4    0.0   53.4   0.00   1.68   76.1   27.8   25.6    1.7   1.68   0.94    0.00    2.68
 2000 366    64    61   54.8    0.0   54.8   0.00   1.60   77.9   27.4   27.5    1.6   1.60   0.91    0.00    2.80
 2001 001    65    62   56.1    0.0   56.1   0.00   1.51   79.5   26.8   29.3    1.5   1.51   0.89    0.00    2.92
 2001 002    66    63   57.2    0.0   57.2   0.00   1.41   80.7   26.2   31.0    1.4   1.41   0.88    0.00    3.04
 2001 003    67    64   58.0    0.0   58.0   0.00   1.55   81.8   28.4   29.7    1.6   1.55   0.86    0.00    3.16
 2001 004    68    65   58.8    0.0   58.8   0.00   1.54   82.7   27.8   30.9    1.5   1.54   0.85    0.00    3.29
 2001 005    69    66   59.4    0.0   59.4   0.00   1.52   83.4   27.2   32.2    1.5   1.52   0.84    0.00    3.41
 2001 006    70    67   59.9    0.0   59.9   0.00   1.52   84.1   26.7   33.2    1.5   1.52   0.85    0.00    3.53
 2001 007    71    68   60.3    0.0   60.3   0.00   1.52   84.7   26.2   34.1    1.5   1.52   0.85    0.00    3.66
 2001 008    72    69   60.7    0.0   60.7   0.00   1.51   85.2   25.6   35.1    1.5   1.51   0.85    0.00    3.79
 2001 009    73    70   61.0    0.0   61.0   0.00   1.52   85.6   25.1   35.9    1.5   1.52   0.83    0.00    3.91
 2001 010    74    71   61.4    0.0   61.4   0.00   1.51   86.1   24.6   36.8    1.5   1.51   0.84    0.00    4.04
 2001 011    75    72   61.6    0.0   61.6   0.00   1.51   86.5   24.0   37.6    1.5   1.51   0.81    0.00    4.17
 2001 012    76    73   61.9    0.0   61.9   0.00   1.51   86.9   23.4   38.4    1.5   1.51   0.78    0.00    4.30
 2001 013    77    74   62.0    0.0   62.0   0.00   1.50   87.2   22.8   39.3    1.5   1.50   0.76    0.00    4.42
 2001 014    78    75   62.2    3.7   58.6   1.47   1.42   87.5   21.5   37.1    1.4   1.42   0.76    0.00    4.55
 2001 015    79    76   62.4    5.7   56.7   1.46   1.37   87.7   20.8   35.9    1.4   1.37   0.76    0.00    4.68
 2001 016    80    77   62.5    7.4   55.1   1.46   1.34   87.9   20.2   34.9    1.3   1.34   0.76    0.00    4.82
 2001 017    81    78   62.7    9.2   53.5   1.45   1.30   88.2   19.6   33.9    1.3   1.30   0.76    0.00    4.95
 2001 018    82    79   63.0   11.6   51.4   1.41   1.26   88.7   19.1   32.3    1.3   1.26   0.77    0.00    5.08
 2001 019    83    80   63.3   13.1   50.2   1.39   1.22   89.2   18.4   31.8    1.2   1.22   0.77    0.00    5.21
 2001 020    84    81   63.6   14.7   48.9   1.37   1.19   89.6   17.9   31.0    1.2   1.19   0.76    0.00    5.34
 2001 021    85    82   63.9   16.7   47.2   1.35   1.14   90.1   17.3   29.9    1.1   1.14   0.76    0.00    5.48
 2001 022    86    83   64.2   18.9   45.3   1.33   1.10   90.5   16.6   28.7    1.1   1.10   0.75    0.00    5.61
 2001 023    87    84   64.4   21.1   43.3   1.31   1.05   90.9   15.9   27.4    1.1   1.05   0.75    0.00    5.75
 2001 024    88    85   64.7   23.3   41.4   1.29   1.00   91.3   15.2   26.2    1.0   1.00   0.75    0.00    5.88
 2001 025    89    86   65.0   25.3   39.6   1.27   0.96   91.7   14.5   25.1    1.0   0.96   0.76    0.00    6.02
 2001 026    90    87   65.3   27.3   37.9   1.26   0.92   92.1   13.9   24.0    0.9   0.92   0.76    0.00    6.15
 2001 027    91    88   65.5   29.3   36.3   1.24   0.88   92.5   13.3   23.0    0.9   0.88   0.77    0.00    6.29
 2001 028    92    89   65.8   31.1   34.7   1.22   0.84   92.9   12.7   22.0    0.8   0.84   0.77    0.00    6.43
 2001 029    93    90   66.0   32.4   33.6   1.20   0.81   93.2   12.3   21.3    0.8   0.81   0.77    0.00    6.57
 2001 030    94    91   66.2   33.8   32.4   1.19   0.79   93.5   11.9   20.5    0.8   0.79   0.77    0.00    6.71
 2001 031    95    92   66.4   35.4   31.0   1.17   0.75   93.8   11.4   19.6    0.8   0.75   0.77    0.00    6.85
 2001 032    96    93   66.6   37.0   29.6   1.15   0.72   94.1   10.9   18.8    0.7   0.72   0.78    0.00    6.99
 2001 033    97    94   66.9   38.5   28.4   1.13   0.70   94.5   10.5   17.9    0.7   0.70   0.78    0.00    7.13
 2001 034    98    95   67.1   39.4   27.7   1.11   0.67   94.8   10.2   17.5    0.7   0.67   0.79    0.00    7.27
 2001 035    99    96   67.3   40.6   26.7   1.10   0.65   95.0    9.8   16.9    0.6   0.65   0.79    0.00    7.41
 2001 036   100    97   67.5   42.0   25.5   1.08   0.62   95.3    9.4   16.1    0.6   0.62   0.80    0.00    7.55
 2001 037   101    98   67.8   43.2   24.5   1.06   0.61   95.7    9.2   15.4    0.6   0.61   0.80    0.00    7.69
 2001 038   102    99   68.1   44.4   23.7   1.04   0.60   96.0    9.0   14.6    0.6   0.60   0.81    0.00    7.83
 2001 039   103   100   68.4   45.5   22.9   1.02   0.59   96.3    8.9   14.0    0.6   0.59   0.81    0.00    7.97
 2001 040   104   101   68.8   46.6   22.2   1.00   0.58   96.6    8.8   13.4    0.6   0.58   0.81    0.00    8.11
 2001 041   105   102   69.1   47.6   21.6   0.99   0.58   97.0    8.8   12.7    0.6   0.58   0.82    0.00    8.25
 2001 042   106   103   69.4   48.2   21.1   0.98   0.58   97.3    8.8   12.3    0.6   0.58   0.82    0.00    8.40
 2001 043   107   104   69.5   49.0   20.5   0.97   0.57   97.5    8.6   11.9    0.6   0.57   0.83    0.00    8.54
 2001 044   108   105   69.7   49.8   19.9   0.96   0.56   97.7    8.4   11.5    0.6   0.56   0.83    0.00    8.68
 2001 045   109   106   70.2   50.7   19.5   0.94   0.57   98.1    8.6   10.9    0.6   0.57   0.83    0.00    8.82
 2001 046   110   107   70.6   51.6   19.0   0.93   0.57   98.3    8.6   10.4    0.6   0.57   0.83    0.00    8.96
 2001 047   111   108   71.1   52.5   18.5   0.91   0.57   98.6    8.6    9.9    0.6   0.57   0.83    0.00    9.10
 2001 048   112   109   71.5   53.4   18.1   0.90   0.57   98.9    8.7    9.4    0.6   0.57   0.83    0.00    9.24
 2001 049   113   110   71.7   53.9   17.7   0.90   0.58   99.2    8.8    9.0    0.6   0.58   0.83    0.00    9.37
 2001 050   114   111   71.9   54.5   17.4   0.89   0.57   99.5    8.6    8.8    0.6   0.57   0.84    0.00    9.51
 2001 051   115   112   71.9   54.5   17.4   0.89   0.57   99.8    8.6    8.8    0.6   0.57   0.84    0.00    9.51
 2001 052   116   113   71.9   54.5   17.4   0.89   0.57  100.1    8.6    8.8    0.6   0.57   0.84    0.00    9.51
 2001 053   117   114   71.9   54.5   17.4   0.89   0.57  100.4    8.6    8.8    0.6   0.57   0.84    0.00    9.51

*DSSAT Cropping System Model Ver. 4.0.2.000               Aug 16, 2016; 17:55:43

*RUN   2        : UYMZ                    
 MODEL          : MZCER040 - Maize           
 EXPERIMENT     : UYMZ0214 MZ    late to create DSS                             
 TREATMENT  1   : UYMZ                    

@YEAR DOY   DAS   DAP   CNAD   GNAD   VNAD   GN%D   VN%D   NUPC   LNAD   SNAD   LN%D   SN%D   RN%D   SNN0C   SNN1C
 2001 305     3     0    0.0    0.0    0.0   0.00   0.00    0.0    0.0    0.0    0.0   0.00   0.00    0.00    0.00
 2001 306     4     1    0.0    0.0    0.0   0.00   0.00    0.0    0.0    0.0    0.0   0.00   0.00    0.00    0.00
 2001 307     5     2    0.0    0.0    0.0   0.00   0.00    0.0    0.0    0.0    0.0   0.00   0.00    0.00    0.00
 2001 308     6     3    0.0    0.0    0.0   0.00   0.00    0.0    0.0    0.0    0.0   0.00   0.00    0.00    0.00
 2001 309     7     4    0.0    0.0    0.0   0.00   0.00    0.0    0.0    0.0    0.0   0.00   0.00    0.00    0.00
 2001 310     8     5    0.0    0.0    0.0   0.00   0.00    0.0    0.0    0.0    0.0   0.00   0.00    0.00    0.00
 2001 311     9     6    0.0    0.0    0.0   0.00   0.00    0.0    0.0    0.0    0.0   0.00   0.00    0.00    0.00
 2001 312    10     7    0.0    0.0    0.0   0.00   0.00    0.0    0.0    0.0    0.0   0.00   0.00    0.00    0.00
 2001 313    11     8    0.0    0.0    0.0   0.00   0.00    0.0    0.0    0.0    0.0   0.00   0.00    0.00    0.00
 2001 314    12     9    0.0    0.0    0.0   0.00   0.00    0.0    0.0    0.0    0.0   0.00   0.00    0.00    0.00
 2001 315    13    10    1.2    0.0    1.2   0.00   4.40    0.0    0.6    0.6    4.4   4.40   0.00    0.00    0.00
 2001 316    14    11    1.3    0.0    1.3   0.00   4.53    0.2    0.6    0.6    4.5   4.53   1.12    0.00    0.00
 2001 317    15    12    1.3    0.0    1.3   0.00   4.53    0.2    0.6    0.6    4.5   4.53   1.07    0.00    0.00
 2001 318    16    13    1.2    0.0    1.2   0.00   4.45    0.2    0.6    0.6    4.4   4.45   1.19    0.00    0.00
 2001 319    17    14    1.2    0.0    1.2   0.00   4.41    0.2    0.6    0.6    4.4   4.41   1.19    0.00    0.00
 2001 320    18    15    1.2    0.0    1.2   0.00   4.38    0.3    0.6    0.6    4.4   4.38   1.26    0.00    0.00
 2001 321    19    16    1.2    0.0    1.2   0.00   4.34    0.3    0.6    0.6    4.3   4.34   1.24    0.00    0.00
 2001 322    20    17    1.2    0.0    1.2   0.00   4.29    0.4    0.6    0.6    4.3   4.29   1.23    0.00    0.01
 2001 323    21    18    1.2    0.0    1.2   0.00   3.47    0.4    0.7    0.5    3.5   3.47   1.24    0.00    0.01
 2001 324    22    19    1.4    0.0    1.4   0.00   3.08    0.7    1.0    0.4    3.1   3.08   1.16    0.00    0.01
 2001 325    23    20    1.9    0.0    1.9   0.00   3.22    1.4    1.4    0.5    3.2   3.22   1.32    0.00    0.01
 2001 326    24    21    2.4    0.0    2.4   0.00   3.27    2.3    1.9    0.5    3.3   3.27   1.39    0.00    0.02
 2001 327    25    22    2.9    0.0    2.9   0.00   3.34    2.7    2.5    0.5    3.3   3.34   1.15    0.00    0.02
 2001 328    26    23    3.5    0.0    3.5   0.00   3.47    3.7    3.0    0.5    3.5   3.47   1.31    0.00    0.03
 2001 329    27    24    4.0    0.0    4.0   0.00   3.55    4.9    3.5    0.5    3.5   3.55   1.38    0.00    0.03
 2001 330    28    25    4.4    0.0    4.4   0.00   3.32    5.8    3.9    0.5    3.3   3.32   1.31    0.00    0.05
 2001 331    29    26    5.1    0.0    5.1   0.00   3.65    7.2    4.6    0.5    3.6   3.65   1.29    0.00    0.06
 2001 332    30    27    5.5    0.0    5.5   0.00   3.44    8.3    5.0    0.5    3.4   3.44   1.28    0.00    0.08
 2001 333    31    28    6.1    0.0    6.1   0.00   3.35    8.9    5.6    0.5    3.3   3.35   1.17    0.00    0.10
 2001 334    32    29    7.6    0.0    7.6   0.00   3.77   11.0    7.1    0.5    3.8   3.77   1.18    0.00    0.12
 2001 335    33    30    8.3    0.0    8.3   0.00   3.68   12.6    7.8    0.5    3.7   3.68   1.22    0.00    0.14
 2001 336    34    31    8.7    0.0    8.7   0.00   3.59   12.8    8.2    0.5    3.6   3.59   1.12    0.00    0.17
 2001 337    35    32    9.3    0.0    9.3   0.00   3.55   14.5    8.8    0.5    3.6   3.55   1.20    0.00    0.19
 2001 338    36    33   10.2    0.0   10.2   0.00   3.52   15.8    9.7    0.5    3.5   3.52   1.16    0.00    0.23
 2001 339    37    34   11.6    0.0   11.6   0.00   3.47   18.1   11.0    0.5    3.5   3.47   1.18    0.00    0.26
 2001 340    38    35   13.2    0.0   13.2   0.00   3.42   21.3   12.6    0.6    3.4   3.42   1.22    0.00    0.30
 2001 341    39    36   15.2    0.0   15.2   0.00   3.35   23.5   14.5    0.7    3.3   3.35   1.15    0.00    0.34
 2001 342    40    37   16.3    0.0   16.3   0.00   3.32   26.5   15.5    0.8    3.3   3.32   1.21    0.00    0.39
 2001 343    41    38   17.6    0.0   17.6   0.00   3.29   29.2   16.7    1.0    3.3   3.29   1.19    0.00    0.45
 2001 344    42    39   19.1    0.0   19.1   0.00   3.18   31.9   17.9    1.2    3.2   3.18   1.16    0.00    0.51
 2001 345    43    40   20.5    0.0   20.5   0.00   2.93   34.0   19.0    1.5    2.9   2.93   1.10    0.00    0.58
 2001 346    44    41   21.7    0.0   21.7   0.00   2.65   35.6   19.7    1.9    2.7   2.65   1.05    0.00    0.66
 2001 347    45    42   22.7    0.0   22.7   0.00   2.36   36.8   20.3    2.4    2.4   2.36   1.03    0.00    0.73
 2001 348    46    43   25.0    0.0   25.0   0.00   2.28   39.9   21.9    3.1    2.3   2.28   0.98    0.00    0.81
 2001 349    47    44   27.2    0.0   27.2   0.00   2.25   43.1   23.5    3.7    2.3   2.25   0.95    0.00    0.89
 2001 350    48    45   29.1    0.0   29.1   0.00   2.20   45.9   24.7    4.4    2.2   2.20   0.92    0.00    0.97
 2001 351    49    46   30.2    0.0   30.2   0.00   2.11   47.6   25.3    4.9    2.1   2.11   0.87    0.00    1.06
 2001 352    50    47   31.1    0.0   31.1   0.00   2.04   48.9   25.7    5.4    2.0   2.04   0.85    0.00    1.16
 2001 353    51    48   31.8    0.0   31.8   0.00   1.89   49.8   26.1    5.7    1.9   1.89   0.86    0.00    1.25
 2001 354    52    49   32.4    0.0   32.4   0.00   1.84   50.5   26.0    6.4    1.8   1.84   0.86    0.00    1.35
 2001 355    53    50   33.0    0.0   33.0   0.00   1.76   51.2   25.7    7.3    1.8   1.76   0.87    0.00    1.44
 2001 356    54    51   33.4    0.0   33.4   0.00   1.71   51.8   25.5    7.9    1.7   1.71   0.85    0.00    1.54
 2001 357    55    52   33.7    0.0   33.7   0.00   1.66   52.2   25.2    8.5    1.7   1.66   0.83    0.00    1.64
 2001 358    56    53   33.9    0.0   33.9   0.00   1.64   52.5   25.0    8.9    1.6   1.64   0.83    0.00    1.73
 2001 359    57    54   34.1    0.0   34.1   0.00   1.62   52.8   24.9    9.3    1.6   1.62   0.83    0.00    1.83
 2001 360    58    55   34.4    0.0   34.4   0.00   1.60   53.1   24.8    9.6    1.6   1.60   0.83    0.00    1.93
 2001 361    59    56   34.8    0.0   34.8   0.00   1.59   53.7   24.8   10.0    1.6   1.59   0.83    0.00    2.03
 2001 362    60    57   35.4    0.0   35.4   0.00   1.59   54.5   24.9   10.6    1.6   1.59   0.84    0.00    2.13
 2001 363    61    58   36.1    0.0   36.1   0.00   1.58   55.4   25.0   11.1    1.6   1.58   0.84    0.00    2.23
 2001 364    62    59   37.0    0.0   37.0   0.00   1.57   56.5   25.1   11.9    1.6   1.57   0.85    0.00    2.33
 2001 365    63    60   39.0    0.0   39.0   0.00   1.57   59.0   25.5   13.5    1.6   1.57   0.87    0.00    2.43
 2002 001    64    61   41.1    0.0   41.1   0.00   1.52   61.7   25.4   15.7    1.5   1.52   0.86    0.00    2.54
 2002 002    65    62   43.0    0.0   43.0   0.00   1.46   64.1   25.2   17.8    1.5   1.46   0.85    0.00    2.65
 2002 003    66    63   44.7    0.0   44.7   0.00   1.40   66.3   25.0   19.7    1.4   1.40   0.84    0.00    2.76
 2002 004    67    64   46.3    0.0   46.3   0.00   1.36   68.2   24.9   21.4    1.4   1.36   0.84    0.00    2.87
 2002 005    68    65   47.7    0.0   47.7   0.00   1.52   69.9   27.4   20.3    1.5   1.52   0.85    0.00    2.98
 2002 006    69    66   48.8    0.0   48.8   0.00   1.54   71.3   27.4   21.4    1.5   1.54   0.85    0.00    3.10
 2002 007    70    67   49.6    0.0   49.6   0.00   1.54   72.4   27.2   22.4    1.5   1.54   0.82    0.00    3.22
 2002 008    71    68   50.2    0.0   50.2   0.00   1.55   73.3   26.8   23.5    1.5   1.55   0.81    0.00    3.33
 2002 009    72    69   50.8    0.0   50.8   0.00   1.54   74.1   26.3   24.5    1.5   1.54   0.80    0.00    3.45
 2002 010    73    70   51.4    0.0   51.4   0.00   1.53   75.0   25.7   25.7    1.5   1.53   0.79    0.00    3.58
 2002 011    74    71   51.9    0.0   51.9   0.00   1.52   75.8   25.1   26.9    1.5   1.52   0.78    0.00    3.70
 2002 012    75    72   52.4    0.0   52.4   0.00   1.51   76.5   24.3   28.1    1.5   1.51   0.79    0.00    3.82
 2002 013    76    73   53.0    0.0   53.0   0.00   1.49   77.3   23.6   29.4    1.5   1.49   0.79    0.00    3.95
 2002 014    77    74   53.4    0.0   53.4   0.00   1.50   78.0   23.1   30.3    1.5   1.50   0.78    0.00    4.07
 2002 015    78    75   53.7    0.0   53.7   0.00   1.50   78.6   22.6   31.1    1.5   1.50   0.76    0.00    4.20
 2002 016    79    76   54.0    0.0   54.0   0.00   1.50   79.0   22.0   32.0    1.5   1.50   0.75    0.00    4.33
 2002 017    80    77   54.2    2.6   51.6   1.41   1.44   79.4   21.0   30.6    1.4   1.44   0.75    0.00    4.46
 2002 018    81    78   54.4    4.4   50.0   1.40   1.39   79.8   20.4   29.6    1.4   1.39   0.74    0.00    4.59
 2002 019    82    79   54.5    6.2   48.3   1.40   1.34   80.0   19.7   28.6    1.3   1.34   0.74    0.00    4.72
 2002 020    83    80   54.7    8.0   46.7   1.40   1.30   80.2   19.0   27.7    1.3   1.30   0.74    0.00    4.85
 2002 021    84    81   54.8    9.2   45.6   1.40   1.27   80.4   18.6   27.0    1.3   1.27   0.74    0.00    4.98
 2002 022    85    82   54.8   10.4   44.4   1.40   1.24   80.5   18.1   26.3    1.2   1.24   0.74    0.00    5.11
 2002 023    86    83   54.9   11.8   43.1   1.39   1.20   80.6   17.6   25.5    1.2   1.20   0.74    0.00    5.24
 2002 024    87    84   54.9   13.8   41.2   1.38   1.16   80.7   17.0   24.2    1.2   1.16   0.75    0.00    5.38
 2002 025    88    85   55.0   15.0   40.0   1.37   1.13   80.8   16.5   23.4    1.1   1.13   0.75    0.00    5.51
 2002 026    89    86   55.0   16.3   38.7   1.37   1.09   80.8   16.0   22.7    1.1   1.09   0.76    0.00    5.64
 2002 027    90    87   55.1   17.5   37.6   1.36   1.07   81.0   15.7   21.9    1.1   1.07   0.76    0.00    5.77
 2002 028    91    88   55.1   19.1   36.0   1.35   1.00   81.0   14.7   21.3    1.0   1.00   0.76    0.00    5.91
 2002 029    92    89   55.1   20.2   34.9   1.34   0.98   81.0   14.3   20.6    1.0   0.98   0.76    0.00    6.04
 2002 030    93    90   55.2   21.2   34.0   1.33   0.97   81.1   14.2   19.8    1.0   0.97   0.77    0.00    6.17
 2002 031    94    91   55.2   23.0   32.3   1.31   0.91   81.3   13.3   18.9    0.9   0.91   0.77    0.00    6.31
 2002 032    95    92   55.3   23.9   31.4   1.30   0.89   81.3   13.0   18.4    0.9   0.89   0.77    0.00    6.44
 2002 033    96    93   55.3   24.5   30.8   1.30   0.87   81.4   12.8   18.0    0.9   0.87   0.78    0.00    6.57
 2002 034    97    94   55.3   25.2   30.2   1.29   0.85   81.4   12.5   17.6    0.9   0.85   0.78    0.00    6.70
 2002 035    98    95   55.3   26.1   29.2   1.28   0.84   81.4   12.3   16.9    0.8   0.84   0.78    0.00    6.84
 2002 036    99    96   55.4   27.0   28.4   1.27   0.82   81.6   12.1   16.4    0.8   0.82   0.79    0.00    6.97
 2002 037   100    97   55.5   28.3   27.3   1.25   0.80   81.8   11.8   15.5    0.8   0.80   0.80    0.00    7.10
 2002 038   101    98   55.6   29.7   25.9   1.23   0.76   81.8   11.2   14.7    0.8   0.76   0.80    0.00    7.24
 2002 039   102    99   55.6   30.9   24.7   1.21   0.74   81.9   10.9   13.8    0.7   0.74   0.80    0.00    7.37
 2002 040   103   100   55.9   32.3   23.5   1.19   0.72   82.3   10.6   13.0    0.7   0.72   0.81    0.00    7.51
 2002 041   104   101   56.2   33.6   22.6   1.17   0.69   82.7   10.2   12.4    0.7   0.69   0.82    0.00    7.64
 2002 042   105   102   56.5   34.9   21.6   1.15   0.67   83.2    9.8   11.8    0.7   0.67   0.83    0.00    7.78
 2002 043   106   103   56.7   36.1   20.6   1.13   0.65   83.5    9.6   11.0    0.7   0.65   0.83    0.00    7.91
 2002 044   107   104   56.9   37.3   19.6   1.11   0.63   83.7    9.2   10.4    0.6   0.63   0.84    0.00    8.05
 2002 045   108   105   57.2   38.5   18.7   1.09   0.61   84.0    9.0    9.8    0.6   0.61   0.84    0.00    8.18
 2002 046   109   106   57.4   39.3   18.1   1.08   0.60   84.3    8.8    9.3    0.6   0.60   0.85    0.00    8.32
 2002 047   110   107   57.5   40.0   17.6   1.06   0.59   84.6    8.6    9.0    0.6   0.59   0.86    0.00    8.46
 2002 048   111   108   57.7   40.7   17.0   1.05   0.58   84.7    8.5    8.5    0.6   0.58   0.86    0.00    8.59
 2002 049   112   109   58.1   41.6   16.5   1.04   0.58   84.9    8.4    8.1    0.6   0.58   0.86    0.00    8.73
 2002 050   113   110   58.6   42.5   16.1   1.02   0.59   85.2    8.6    7.5    0.6   0.59   0.85    0.00    8.86
 2002 051   114   111   59.0   43.4   15.6   1.01   0.59   85.4    8.6    6.9    0.6   0.59   0.85    0.00    9.00
 2002 052   115   112   59.1   43.6   15.5   1.00   0.60   85.6    8.8    6.7    0.6   0.60   0.86    0.00    9.13
 2002 053   116   113   59.2   44.0   15.2   1.00   0.59   85.8    8.7    6.6    0.6   0.59   0.87    0.00    9.26
 2002 054   117   114   59.3   44.5   14.8   0.99   0.57   86.0    8.4    6.4    0.6   0.57   0.87    0.00    9.40
 2002 055   118   115   59.4   45.0   14.5   0.99   0.56   86.2    8.2    6.2    0.6   0.56   0.88    0.00    9.53
 2002 056   119   116   59.6   45.3   14.3   0.99   0.55   86.4    8.1    6.1    0.6   0.55   0.89    0.00    9.67
 2002 057   120   117   59.6   45.3   14.3   0.99   0.55   86.6    8.1    6.1    0.6   0.55   0.89    0.00    9.67
 2002 058   121   118   59.6   45.3   14.3   0.99   0.55   86.8    8.1    6.1    0.6   0.55   0.89    0.00    9.67
 2002 059   122   119   59.6   45.3   14.3   0.99   0.55   87.0    8.1    6.1    0.6   0.55   0.89    0.00    9.67

*DSSAT Cropping System Model Ver. 4.0.2.000               Aug 16, 2016; 17:55:43

*RUN   3        : UYMZ                    
 MODEL          : MZCER040 - Maize           
 EXPERIMENT     : UYMZ0214 MZ    late to create DSS                             
 TREATMENT  1   : UYMZ                    

@YEAR DOY   DAS   DAP   CNAD   GNAD   VNAD   GN%D   VN%D   NUPC   LNAD   SNAD   LN%D   SN%D   RN%D   SNN0C   SNN1C
 2002 305     3     0    0.0    0.0    0.0   0.00   0.00    0.0    0.0    0.0    0.0   0.00   0.00    0.00    0.00
 2002 306     4     1    0.0    0.0    0.0   0.00   0.00    0.0    0.0    0.0    0.0   0.00   0.00    0.00    0.00
 2002 307     5     2    0.0    0.0    0.0   0.00   0.00    0.0    0.0    0.0    0.0   0.00   0.00    0.00    0.00
 2002 308     6     3    0.0    0.0    0.0   0.00   0.00    0.0    0.0    0.0    0.0   0.00   0.00    0.00    0.00
 2002 309     7     4    0.0    0.0    0.0   0.00   0.00    0.0    0.0    0.0    0.0   0.00   0.00    0.00    0.00
 2002 310     8     5    0.0    0.0    0.0   0.00   0.00    0.0    0.0    0.0    0.0   0.00   0.00    0.00    0.00
 2002 311     9     6    0.0    0.0    0.0   0.00   0.00    0.0    0.0    0.0    0.0   0.00   0.00    0.00    0.00
 2002 312    10     7    0.0    0.0    0.0   0.00   0.00    0.0    0.0    0.0    0.0   0.00   0.00    0.00    0.00
 2002 313    11     8    0.0    0.0    0.0   0.00   0.00    0.0    0.0    0.0    0.0   0.00   0.00    0.00    0.00
 2002 314    12     9    0.0    0.0    0.0   0.00   0.00    0.0    0.0    0.0    0.0   0.00   0.00    0.00    0.00
 2002 315    13    10    0.0    0.0    0.0   0.00   0.00    0.0    0.0    0.0    0.0   0.00   0.00    0.00    0.00
 2002 316    14    11    0.0    0.0    0.0   0.00   0.00    0.0    0.0    0.0    0.0   0.00   0.00    0.00    0.00
 2002 317    15    12    1.2    0.0    1.2   0.00   4.40    0.0    0.6    0.6    4.4   4.40   0.00    0.00    0.00
 2002 318    16    13    1.3    0.0    1.3   0.00   4.50    0.2    0.6    0.6    4.5   4.50   1.15    0.00    0.00
 2002 319    17    14    1.2    0.0    1.2   0.00   4.45    0.2    0.6    0.6    4.5   4.45   1.16    0.00    0.00
 2002 320    18    15    1.2    0.0    1.2   0.00   4.39    0.2    0.6    0.6    4.4   4.39   1.24    0.00    0.00
 2002 321    19    16    1.2    0.0    1.2   0.00   4.32    0.2    0.6    0.6    4.3   4.32   1.19    0.00    0.00
 2002 322    20    17    1.2    0.0    1.2   0.00   3.94    0.4    0.6    0.6    3.9   3.94   1.36    0.00    0.00
 2002 323    21    18    1.3    0.0    1.3   0.00   3.26    0.6    0.8    0.5    3.3   3.26   1.28    0.00    0.01
 2002 324    22    19    1.6    0.0    1.6   0.00   3.45    1.0    1.2    0.5    3.4   3.45   1.22    0.00    0.01
 2002 325    23    20    2.0    0.0    2.0   0.00   3.57    1.7    1.5    0.5    3.6   3.57   1.41    0.00    0.01
 2002 326    24    21    2.3    0.0    2.3   0.00   3.45    2.3    1.8    0.5    3.5   3.45   1.35    0.00    0.02
 2002 327    25    22    2.7    0.0    2.7   0.00   3.19    3.0    2.2    0.4    3.2   3.19   1.30    0.00    0.02
 2002 328    26    23    3.3    0.0    3.3   0.00   3.11    3.9    2.9    0.4    3.1   3.11   1.26    0.00    0.03
 2002 329    27    24    4.2    0.0    4.2   0.00   3.35    4.6    3.7    0.5    3.4   3.35   1.11    0.00    0.04
 2002 330    28    25    4.9    0.0    4.9   0.00   3.29    6.4    4.4    0.5    3.3   3.29   1.34    0.00    0.05
 2002 331    29    26    5.8    0.0    5.8   0.00   3.41    7.3    5.3    0.5    3.4   3.41   1.20    0.00    0.06
 2002 332    30    27    6.5    0.0    6.5   0.00   3.39    9.2    6.0    0.5    3.4   3.39   1.33    0.00    0.07
 2002 333    31    28    8.4    0.0    8.4   0.00   3.75   11.3    7.8    0.5    3.8   3.75   1.21    0.00    0.09
 2002 334    32    29    9.6    0.0    9.6   0.00   3.67   13.0    9.1    0.5    3.7   3.67   1.19    0.00    0.12
 2002 335    33    30   10.3    0.0   10.3   0.00   3.57   14.7    9.8    0.5    3.6   3.57   1.23    0.00    0.14
 2002 336    34    31   11.4    0.0   11.4   0.00   3.53   17.2   10.9    0.5    3.5   3.53   1.27    0.00    0.17
 2002 337    35    32   12.9    0.0   12.9   0.00   3.48   19.3   12.4    0.6    3.5   3.48   1.20    0.00    0.20
 2002 338    36    33   14.5    0.0   14.5   0.00   3.43   20.5   13.9    0.6    3.4   3.43   1.10    0.00    0.24
 2002 339    37    34   16.7    0.0   16.7   0.00   3.37   23.5   15.9    0.8    3.4   3.37   1.14    0.00    0.28
 2002 340    38    35   18.8    0.0   18.8   0.00   3.20   26.6   17.8    1.0    3.2   3.20   1.15    0.00    0.32
 2002 341    39    36   20.2    0.0   20.2   0.00   3.07   29.2   19.0    1.2    3.1   3.07   1.11    0.00    0.36
 2002 342    40    37   22.1    0.0   22.1   0.00   3.05   31.3   20.6    1.5    3.1   3.05   1.09    0.00    0.41
 2002 343    41    38   23.0    0.0   23.0   0.00   2.86   32.8   21.2    1.8    2.9   2.86   1.02    0.00    0.46
 2002 344    42    39   24.0    0.0   24.0   0.00   2.67   34.0   21.8    2.1    2.7   2.67   1.02    0.00    0.52
 2002 345    43    40   25.3    0.0   25.3   0.00   2.52   35.8   22.7    2.6    2.5   2.52   0.97    0.00    0.57
 2002 346    44    41   27.6    0.0   27.6   0.00   2.45   39.1   24.4    3.3    2.4   2.45   0.95    0.00    0.63
 2002 347    45    42   29.8    0.0   29.8   0.00   2.36   42.0   25.8    4.0    2.4   2.36   0.94    0.00    0.70
 2002 348    46    43   31.6    0.0   31.6   0.00   2.23   44.3   26.8    4.8    2.2   2.23   0.92    0.00    0.76
 2002 349    47    44   32.9    0.0   32.9   0.00   2.19   46.2   27.5    5.3    2.2   2.19   0.90    0.00    0.83
 2002 350    48    45   33.8    0.0   33.8   0.00   2.12   47.4   27.9    5.9    2.1   2.12   0.88    0.00    0.90
 2002 351    49    46   34.5    0.0   34.5   0.00   2.01   48.4   28.1    6.5    2.0   2.01   0.87    0.00    0.98
 2002 352    50    47   35.2    0.0   35.2   0.00   1.95   49.2   28.0    7.2    1.9   1.95   0.87    0.00    1.05
 2002 353    51    48   35.8    0.0   35.8   0.00   1.70   49.9   26.4    9.4    1.7   1.70   0.87    0.00    1.13
 2002 354    52    49   36.2    0.0   36.2   0.00   1.59   50.4   25.7   10.5    1.6   1.59   0.81    0.00    1.20
 2002 355    53    50   36.6    0.0   36.6   0.00   1.58   50.9   25.7   10.9    1.6   1.58   0.80    0.00    1.28
 2002 356    54    51   37.5    0.0   37.5   0.00   1.56   51.9   25.8   11.7    1.6   1.56   0.81    0.00    1.36
 2002 357    55    52   38.5    0.0   38.5   0.00   1.52   53.3   25.7   12.8    1.5   1.52   0.77    0.00    1.44
 2002 358    56    53   40.1    0.0   40.1   0.00   1.51   55.4   26.0   14.1    1.5   1.51   0.73    0.00    1.52
 2002 359    57    54   41.8    0.0   41.8   0.00   1.45   57.5   25.9   15.8    1.5   1.45   0.72    0.00    1.60
 2002 360    58    55   43.3    0.0   43.3   0.00   1.39   59.5   25.6   17.7    1.4   1.39   0.70    0.00    1.68
 2002 361    59    56   44.7    0.0   44.7   0.00   1.33   61.3   25.3   19.4    1.3   1.33   0.69    0.00    1.77
 2002 362    60    57   46.1    0.0   46.1   0.00   1.31   63.0   25.5   20.6    1.3   1.31   0.70    0.00    1.86
 2002 363    61    58   47.8    0.0   47.8   0.00   1.32   65.1   25.9   21.9    1.3   1.32   0.72    0.00    1.95
 2002 364    62    59   49.3    0.0   49.3   0.00   1.31   66.9   26.1   23.2    1.3   1.31   0.73    0.00    2.04
 2002 365    63    60   50.4    0.0   50.4   0.00   1.28   68.2   26.0   24.3    1.3   1.28   0.73    0.00    2.13
 2003 001    64    61   51.1    0.0   51.1   0.00   1.25   69.2   25.8   25.3    1.2   1.25   0.71    0.00    2.22
 2003 002    65    62   51.9    0.0   51.9   0.00   1.22   70.2   25.7   26.2    1.2   1.22   0.68    0.00    2.32
 2003 003    66    63   52.7    0.0   52.7   0.00   1.18   71.1   25.5   27.2    1.2   1.18   0.67    0.00    2.42
 2003 004    67    64   53.3    0.0   53.3   0.00   1.15   72.0   25.2   28.1    1.1   1.15   0.65    0.00    2.51
 2003 005    68    65   54.0    0.0   54.0   0.00   1.26   72.8   27.4   26.5    1.3   1.26   0.63    0.00    2.61
 2003 006    69    66   54.5    0.0   54.5   0.00   1.27   73.6   27.3   27.3    1.3   1.27   0.61    0.00    2.71
 2003 007    70    67   55.0    0.0   55.0   0.00   1.28   74.3   27.0   28.0    1.3   1.28   0.59    0.00    2.81
 2003 008    71    68   55.4    0.0   55.4   0.00   1.28   74.9   26.7   28.7    1.3   1.28   0.58    0.00    2.91
 2003 009    72    69   55.7    0.0   55.7   0.00   1.28   75.4   26.2   29.5    1.3   1.28   0.57    0.00    3.01
 2003 010    73    70   56.0    0.0   56.0   0.00   1.27   75.9   25.7   30.3    1.3   1.27   0.56    0.00    3.12
 2003 011    74    71   56.2    0.0   56.2   0.00   1.27   76.2   25.2   31.0    1.3   1.27   0.55    0.00    3.22
 2003 012    75    72   56.4    0.0   56.4   0.00   1.28   76.4   24.9   31.4    1.3   1.28   0.54    0.00    3.33
 2003 013    76    73   56.5    0.0   56.5   0.00   1.29   76.6   24.6   31.9    1.3   1.29   0.54    0.00    3.43
 2003 014    77    74   56.6    0.0   56.6   0.00   1.29   76.8   24.2   32.4    1.3   1.29   0.54    0.00    3.54
 2003 015    78    75   56.6    0.0   56.6   0.00   1.30   76.9   23.8   32.8    1.3   1.30   0.54    0.00    3.64
 2003 016    79    76   56.7    0.0   56.7   0.00   1.31   77.0   23.4   33.3    1.3   1.31   0.54    0.00    3.75
 2003 017    80    77   56.7    1.7   55.0   1.37   1.28   77.1   22.8   32.2    1.3   1.28   0.54    0.00    3.85
 2003 018    81    78   56.7    2.5   54.2   1.36   1.26   77.1   22.4   31.8    1.3   1.26   0.54    0.00    3.96
 2003 019    82    79   56.8    3.4   53.5   1.34   1.24   77.4   22.0   31.4    1.2   1.24   0.55    0.00    4.07
 2003 020    83    80   56.9    5.1   51.9   1.29   1.20   77.6   21.4   30.5    1.2   1.20   0.55    0.00    4.17
 2003 021    84    81   57.1    6.4   50.7   1.29   1.17   77.8   20.9   29.8    1.2   1.17   0.55    0.00    4.28
 2003 022    85    82   57.1    7.8   49.3   1.27   1.14   77.8   20.3   28.9    1.1   1.14   0.55    0.00    4.39
 2003 023    86    83   57.1    8.9   48.2   1.25   1.11   77.9   19.8   28.3    1.1   1.11   0.55    0.00    4.49
 2003 024    87    84   57.1    9.9   47.3   1.25   1.09   77.9   19.5   27.8    1.1   1.09   0.54    0.00    4.60
 2003 025    88    85   57.1   10.8   46.4   1.25   1.08   78.0   19.2   27.2    1.1   1.08   0.55    0.00    4.71
 2003 026    89    86   57.2   11.8   45.4   1.25   1.05   78.0   18.8   26.6    1.1   1.05   0.55    0.00    4.82
 2003 027    90    87   57.2   12.7   44.5   1.25   1.04   78.0   18.6   25.9    1.0   1.04   0.55    0.00    4.93
 2003 028    91    88   57.2   13.6   43.6   1.25   1.03   78.1   18.3   25.2    1.0   1.03   0.56    0.00    5.03
 2003 029    92    89   57.2   14.6   42.6   1.25   1.01   78.1   18.1   24.6    1.0   1.01   0.56    0.00    5.14
 2003 030    93    90   57.2   15.5   41.7   1.25   1.00   78.1   17.8   23.9    1.0   1.00   0.56    0.00    5.25
 2003 031    94    91   57.3   16.4   40.9   1.25   0.99   78.3   17.7   23.2    1.0   0.99   0.57    0.00    5.36
 2003 032    95    92   57.3   18.1   39.3   1.24   0.95   78.4   17.0   22.3    1.0   0.95   0.57    0.00    5.47
 2003 033    96    93   57.6   19.7   37.9   1.23   0.93   78.8   16.6   21.2    0.9   0.93   0.58    0.00    5.58
 2003 034    97    94   57.7   21.3   36.5   1.22   0.89   79.2   15.9   20.6    0.9   0.89   0.59    0.00    5.69
 2003 035    98    95   57.9   22.8   35.1   1.21   0.87   79.5   15.5   19.6    0.9   0.87   0.59    0.00    5.80
 2003 036    99    96   58.1   24.3   33.7   1.19   0.85   79.9   15.1   18.6    0.8   0.85   0.60    0.00    5.91
 2003 037   100    97   58.2   25.8   32.4   1.18   0.81   80.1   14.4   18.0    0.8   0.81   0.60    0.00    6.02
 2003 038   101    98   58.3   27.1   31.1   1.17   0.79   80.3   14.1   17.1    0.8   0.79   0.61    0.00    6.13
 2003 039   102    99   58.3   28.5   29.9   1.16   0.75   80.4   13.4   16.4    0.8   0.75   0.61    0.00    6.25
 2003 040   103   100   58.4   29.9   28.6   1.15   0.72   80.6   12.8   15.7    0.7   0.72   0.62    0.00    6.36
 2003 041   104   101   58.5   31.1   27.4   1.13   0.70   80.8   12.5   14.8    0.7   0.70   0.62    0.00    6.47
 2003 042   105   102   58.7   32.4   26.4   1.12   0.70   81.2   12.4   14.0    0.7   0.70   0.63    0.00    6.59
 2003 043   106   103   58.8   33.5   25.3   1.10   0.67   81.4   12.0   13.3    0.7   0.67   0.63    0.00    6.70
 2003 044   107   104   58.9   34.6   24.3   1.09   0.65   81.6   11.5   12.8    0.6   0.65   0.64    0.00    6.82
 2003 045   108   105   59.0   35.6   23.4   1.08   0.62   81.8   11.1   12.3    0.6   0.62   0.64    0.00    6.93
 2003 046   109   106   59.2   36.7   22.5   1.07   0.61   82.1   10.9   11.6    0.6   0.61   0.65    0.00    7.05
 2003 047   110   107   59.4   37.3   22.1   1.06   0.60   82.4   10.6   11.5    0.6   0.60   0.66    0.00    7.17
 2003 048   111   108   59.5   37.8   21.7   1.05   0.59   82.6   10.5   11.1    0.6   0.59   0.66    0.00    7.29
 2003 049   112   109   59.6   38.8   20.9   1.04   0.58   82.9   10.3   10.6    0.6   0.58   0.67    0.00    7.40
 2003 050   113   110   59.8   39.5   20.3   1.03   0.57   83.2   10.2   10.2    0.6   0.57   0.68    0.00    7.52
 2003 051   114   111   59.9   39.9   20.0   1.02   0.56   83.4   10.0   10.1    0.6   0.56   0.68    0.00    7.64
 2003 052   115   112   60.0   40.3   19.7   1.01   0.55   83.6    9.8    9.9    0.6   0.55   0.69    0.00    7.76
 2003 053   116   113   60.1   40.8   19.3   1.00   0.54   83.7    9.7    9.6    0.5   0.54   0.69    0.00    7.88
 2003 054   117   114   60.2   41.0   19.2   1.00   0.55   84.0    9.7    9.5    0.5   0.55   0.70    0.00    8.00
 2003 055   118   115   60.2   41.0   19.2   1.00   0.55   84.2    9.7    9.5    0.5   0.55   0.70    0.00    8.00
 2003 056   119   116   60.2   41.0   19.2   1.00   0.55   84.4    9.7    9.5    0.5   0.55   0.70    0.00    8.00
 2003 057   120   117   60.2   41.0   19.2   1.00   0.55   84.7    9.7    9.5    0.5   0.55   0.70    0.00    8.00

*DSSAT Cropping System Model Ver. 4.0.2.000               Aug 16, 2016; 17:55:43

*RUN   4        : UYMZ                    
 MODEL          : MZCER040 - Maize           
 EXPERIMENT     : UYMZ0214 MZ    late to create DSS                             
 TREATMENT  1   : UYMZ                    

@YEAR DOY   DAS   DAP   CNAD   GNAD   VNAD   GN%D   VN%D   NUPC   LNAD   SNAD   LN%D   SN%D   RN%D   SNN0C   SNN1C
 2003 305     3     0    0.0    0.0    0.0   0.00   0.00    0.0    0.0    0.0    0.0   0.00   0.00    0.00    0.00
 2003 306     4     1    0.0    0.0    0.0   0.00   0.00    0.0    0.0    0.0    0.0   0.00   0.00    0.00    0.00
 2003 307     5     2    0.0    0.0    0.0   0.00   0.00    0.0    0.0    0.0    0.0   0.00   0.00    0.00    0.00
 2003 308     6     3    0.0    0.0    0.0   0.00   0.00    0.0    0.0    0.0    0.0   0.00   0.00    0.00    0.00
 2003 309     7     4    0.0    0.0    0.0   0.00   0.00    0.0    0.0    0.0    0.0   0.00   0.00    0.00    0.00
 2003 310     8     5    0.0    0.0    0.0   0.00   0.00    0.0    0.0    0.0    0.0   0.00   0.00    0.00    0.00
 2003 311     9     6    0.0    0.0    0.0   0.00   0.00    0.0    0.0    0.0    0.0   0.00   0.00    0.00    0.00
 2003 312    10     7    0.0    0.0    0.0   0.00   0.00    0.0    0.0    0.0    0.0   0.00   0.00    0.00    0.00
 2003 313    11     8    0.0    0.0    0.0   0.00   0.00    0.0    0.0    0.0    0.0   0.00   0.00    0.00    0.00
 2003 314    12     9    0.0    0.0    0.0   0.00   0.00    0.0    0.0    0.0    0.0   0.00   0.00    0.00    0.00
 2003 315    13    10    0.0    0.0    0.0   0.00   0.00    0.0    0.0    0.0    0.0   0.00   0.00    0.00    0.00
 2003 316    14    11    0.0    0.0    0.0   0.00   0.00    0.0    0.0    0.0    0.0   0.00   0.00    0.00    0.00
 2003 317    15    12    0.0    0.0    0.0   0.00   0.00    0.0    0.0    0.0    0.0   0.00   0.00    0.00    0.00
 2003 318    16    13    1.2    0.0    1.2   0.00   4.40    0.0    0.6    0.6    4.4   4.40   0.00    0.00    0.00
 2003 319    17    14    1.3    0.0    1.3   0.00   4.51    0.2    0.6    0.6    4.5   4.51   1.10    0.00    0.00
 2003 320    18    15    1.3    0.0    1.3   0.00   4.51    0.2    0.6    0.6    4.5   4.51   1.06    0.00    0.00
 2003 321    19    16    1.3    0.0    1.3   0.00   4.51    0.2    0.6    0.6    4.5   4.51   1.00    0.00    0.00
 2003 322    20    17    1.3    0.0    1.3   0.00   4.51    0.2    0.6    0.6    4.5   4.51   0.96    0.00    0.00
 2003 323    21    18    1.2    0.0    1.2   0.00   4.36    0.2    0.6    0.6    4.4   4.36   1.22    0.00    0.00
 2003 324    22    19    1.2    0.0    1.2   0.00   4.33    0.3    0.6    0.6    4.3   4.33   1.28    0.00    0.00
 2003 325    23    20    1.2    0.0    1.2   0.00   4.29    0.3    0.6    0.6    4.3   4.29   1.25    0.00    0.00
 2003 326    24    21    1.2    0.0    1.2   0.00   3.90    0.4    0.6    0.5    3.9   3.90   1.25    0.00    0.01
 2003 327    25    22    1.3    0.0    1.3   0.00   3.40    0.4    0.8    0.5    3.4   3.40   1.10    0.00    0.01
 2003 328    26    23    1.5    0.0    1.5   0.00   3.48    1.0    1.1    0.5    3.5   3.48   1.38    0.00    0.01
 2003 329    27    24    1.8    0.0    1.8   0.00   3.28    1.5    1.4    0.5    3.3   3.28   1.35    0.00    0.01
 2003 330    28    25    2.2    0.0    2.2   0.00   3.14    2.1    1.8    0.4    3.1   3.14   1.28    0.00    0.02
 2003 331    29    26    2.8    0.0    2.8   0.00   3.19    3.0    2.4    0.4    3.2   3.19   1.30    0.00    0.02
 2003 332    30    27    3.5    0.0    3.5   0.00   3.36    4.0    3.1    0.5    3.4   3.36   1.28    0.00    0.03
 2003 333    31    28    4.0    0.0    4.0   0.00   3.26    5.0    3.5    0.5    3.3   3.26   1.26    0.00    0.04
 2003 334    32    29    4.7    0.0    4.7   0.00   3.54    5.7    4.2    0.5    3.5   3.54   1.16    0.00    0.05
 2003 335    33    30    4.9    0.0    4.9   0.00   3.07    6.3    4.4    0.4    3.1   3.07   1.09    0.00    0.06
 2003 336    34    31    5.2    0.0    5.2   0.00   2.87    6.8    4.8    0.4    2.9   2.87   1.02    0.00    0.07
 2003 337    35    32    5.5    0.0    5.5   0.00   2.68    7.3    5.1    0.4    2.7   2.68   0.87    0.00    0.09
 2003 338    36    33    7.2    0.0    7.2   0.00   3.29    9.7    6.7    0.5    3.3   3.29   1.03    0.00    0.10
 2003 339    37    34    8.1    0.0    8.1   0.00   3.29   11.7    7.6    0.5    3.3   3.29   1.08    0.00    0.12
 2003 340    38    35    8.9    0.0    8.9   0.00   3.14   13.3    8.4    0.5    3.1   3.14   1.05    0.00    0.15
 2003 341    39    36    9.8    0.0    9.8   0.00   3.02   14.7    9.3    0.5    3.0   3.02   1.04    0.00    0.17
 2003 342    40    37   10.5    0.0   10.5   0.00   2.99   15.6   10.0    0.5    3.0   2.99   1.04    0.00    0.20
 2003 343    41    38   10.7    0.0   10.7   0.00   2.77   16.0   10.3    0.5    2.8   2.77   0.91    0.00    0.24
 2003 344    42    39   11.0    0.0   11.0   0.00   2.53   16.4   10.5    0.5    2.5   2.53   0.88    0.00    0.27
 2003 345    43    40   11.2    0.0   11.2   0.00   2.31   16.8   10.6    0.6    2.3   2.31   0.77    0.00    0.30
 2003 346    44    41   11.4    0.0   11.4   0.00   2.13   17.1   10.8    0.6    2.1   2.13   0.69    0.00    0.34
 2003 347    45    42   11.6    0.0   11.6   0.00   1.91   17.5   10.9    0.7    1.9   1.91   0.63    0.00    0.37
 2003 348    46    43   11.8    0.0   11.8   0.00   1.74   17.9   11.0    0.8    1.7   1.74   0.59    0.00    0.41
 2003 349    47    44   12.0    0.0   12.0   0.00   1.63   18.2   11.1    1.0    1.6   1.63   0.57    0.00    0.44
 2003 350    48    45   13.0    0.0   13.0   0.00   1.69   20.1   11.9    1.1    1.7   1.69   0.57    0.00    0.48
 2003 351    49    46   13.9    0.0   13.9   0.00   1.68   21.7   12.6    1.3    1.7   1.68   0.57    0.00    0.52
 2003 352    50    47   14.7    0.0   14.7   0.00   1.62   23.1   13.1    1.6    1.6   1.62   0.56    0.00    0.57
 2003 353    51    48   15.4    0.0   15.4   0.00   1.51   24.3   13.5    1.9    1.5   1.51   0.55    0.00    0.61
 2003 354    52    49   16.1    0.0   16.1   0.00   1.39   25.4   13.7    2.3    1.4   1.39   0.54    0.00    0.66
 2003 355    53    50   16.6    0.0   16.6   0.00   1.29   26.3   13.8    2.8    1.3   1.29   0.53    0.00    0.72
 2003 356    54    51   17.1    0.0   17.1   0.00   1.25   27.0   14.0    3.1    1.3   1.25   0.52    0.00    0.77
 2003 357    55    52   17.4    0.0   17.4   0.00   1.06   27.5   14.6    2.9    1.1   1.06   0.52    0.00    0.83
 2003 358    56    53   17.7    0.0   17.7   0.00   0.99   27.9   14.3    3.4    1.0   0.99   0.52    0.00    0.88
 2003 359    57    54   17.9    0.0   17.9   0.00   0.96   28.2   14.2    3.7    1.0   0.96   0.52    0.00    0.94
 2003 360    58    55   18.1    0.0   18.1   0.00   0.96   28.4   14.2    3.9    1.0   0.96   0.51    0.00    1.00
 2003 361    59    56   19.1    0.0   19.1   0.00   0.99   29.8   14.9    4.2    1.0   0.99   0.53    0.00    1.05
 2003 362    60    57   20.0    0.0   20.0   0.00   1.03   31.1   15.4    4.6    1.0   1.03   0.54    0.00    1.11
 2003 363    61    58   21.0    0.0   21.0   0.00   1.05   32.7   16.0    5.1    1.1   1.05   0.54    0.00    1.17
 2003 364    62    59   22.1    0.0   22.1   0.00   1.06   34.2   16.3    5.8    1.1   1.06   0.54    0.00    1.24
 2003 365    63    60   23.0    0.0   23.0   0.00   1.07   35.6   16.7    6.3    1.1   1.07   0.54    0.00    1.30
 2004 001    64    61   23.7    0.0   23.7   0.00   1.07   36.6   16.9    6.9    1.1   1.07   0.53    0.00    1.37
 2004 002    65    62   24.3    0.0   24.3   0.00   1.06   37.4   16.9    7.4    1.1   1.06   0.53    0.00    1.44
 2004 003    66    63   24.7    0.0   24.7   0.00   1.05   38.1   16.9    7.8    1.1   1.05   0.54    0.00    1.51
 2004 004    67    64   25.2    0.0   25.2   0.00   1.03   38.7   16.8    8.4    1.0   1.03   0.54    0.00    1.58
 2004 005    68    65   25.5    0.0   25.5   0.00   0.99   39.3   16.3    9.2    1.0   0.99   0.54    0.00    1.66
 2004 006    69    66   25.8    0.0   25.8   0.00   0.95   39.7   16.1    9.8    1.0   0.95   0.54    0.00    1.73
 2004 007    70    67   26.1    0.0   26.1   0.00   0.94   40.0   15.9   10.2    0.9   0.94   0.55    0.00    1.81
 2004 008    71    68   26.3    0.0   26.3   0.00   0.93   40.3   15.9   10.4    0.9   0.93   0.55    0.00    1.88
 2004 009    72    69   26.5    0.0   26.5   0.00   1.00   40.5   17.0    9.5    1.0   1.00   0.55    0.00    1.96
 2004 010    73    70   27.0    0.0   27.0   0.00   1.02   41.3   17.1    9.9    1.0   1.02   0.56    0.00    2.03
 2004 011    74    71   27.6    0.0   27.6   0.00   1.04   42.2   17.1   10.4    1.0   1.04   0.56    0.00    2.11
 2004 012    75    72   28.1    0.0   28.1   0.00   1.06   43.0   17.1   11.0    1.1   1.06   0.55    0.00    2.19
 2004 013    76    73   28.6    0.0   28.6   0.00   1.07   43.8   17.1   11.5    1.1   1.07   0.55    0.00    2.27
 2004 014    77    74   29.1    0.0   29.1   0.00   1.08   44.6   16.9   12.2    1.1   1.08   0.55    0.00    2.35
 2004 015    78    75   29.5    0.0   29.5   0.00   1.09   45.3   16.8   12.7    1.1   1.09   0.54    0.00    2.43
 2004 016    79    76   29.9    0.0   29.9   0.00   1.10   45.9   16.6   13.3    1.1   1.10   0.54    0.00    2.51
 2004 017    80    77   30.2    0.0   30.2   0.00   1.10   46.4   16.3   13.9    1.1   1.10   0.54    0.00    2.60
 2004 018    81    78   30.5    0.0   30.5   0.00   1.11   46.9   16.0   14.5    1.1   1.11   0.54    0.00    2.68
 2004 019    82    79   30.8    0.0   30.8   0.00   1.11   47.4   15.6   15.2    1.1   1.11   0.54    0.00    2.77
 2004 020    83    80   31.0    0.0   31.0   0.00   1.10   47.8   15.2   15.8    1.1   1.10   0.55    0.00    2.86
 2004 021    84    81   31.2    0.0   31.2   0.00   1.10   48.2   14.7   16.5    1.1   1.10   0.55    0.00    2.95
 2004 022    85    82   31.4    1.8   29.6   1.07   1.04   48.5   13.9   15.6    1.0   1.04   0.56    0.00    3.04
 2004 023    86    83   31.6    2.5   29.1   1.06   1.02   48.8   13.7   15.4    1.0   1.02   0.56    0.00    3.13
 2004 024    87    84   31.7    3.0   28.7   1.06   1.01   49.0   13.5   15.2    1.0   1.01   0.56    0.00    3.22
 2004 025    88    85   31.8    3.5   28.3   1.06   1.00   49.2   13.4   15.0    1.0   1.00   0.56    0.00    3.31
 2004 026    89    86   31.9    3.9   28.0   1.06   0.98   49.3   13.2   14.8    1.0   0.98   0.56    0.00    3.40
 2004 027    90    87   31.9    4.3   27.6   1.06   0.97   49.4   13.0   14.6    1.0   0.97   0.56    0.00    3.49
 2004 028    91    88   31.9    4.8   27.1   1.06   0.95   49.4   12.8   14.3    1.0   0.95   0.56    0.00    3.58
 2004 029    92    89   32.0    5.2   26.7   1.06   0.94   49.5   12.6   14.1    0.9   0.94   0.56    0.00    3.67
 2004 030    93    90   32.0    5.7   26.3   1.07   0.92   49.5   12.4   13.9    0.9   0.92   0.56    0.00    3.77
 2004 031    94    91   32.2    6.2   26.0   1.06   0.91   49.9   12.2   13.7    0.9   0.91   0.57    0.00    3.86
 2004 032    95    92   32.3    6.8   25.5   1.06   0.90   50.2   12.0   13.5    0.9   0.90   0.57    0.00    3.95
 2004 033    96    93   32.4    7.4   24.9   1.05   0.88   50.3   11.8   13.2    0.9   0.88   0.57    0.00    4.05
 2004 034    97    94   32.5    8.1   24.4   1.04   0.86   50.5   11.5   12.9    0.9   0.86   0.57    0.00    4.14
 2004 035    98    95   32.6    8.6   23.9   1.03   0.84   50.7   11.3   12.6    0.8   0.84   0.57    0.00    4.23
 2004 036    99    96   32.6    9.1   23.5   1.03   0.83   50.8   11.1   12.4    0.8   0.83   0.57    0.00    4.33
 2004 037   100    97   32.7    9.5   23.1   1.02   0.81   50.9   10.9   12.2    0.8   0.81   0.57    0.00    4.42
 2004 038   101    98   32.7   10.1   22.7   1.02   0.80   51.0   10.7   12.0    0.8   0.80   0.57    0.00    4.52
 2004 039   102    99   32.7   10.5   22.2   1.02   0.78   51.1   10.5   11.7    0.8   0.78   0.57    0.00    4.61
 2004 040   103   100   32.8   11.0   21.8   1.02   0.77   51.2   10.3   11.5    0.8   0.77   0.58    0.00    4.71
 2004 041   104   101   32.8   11.4   21.4   1.01   0.75   51.2   10.1   11.3    0.8   0.75   0.58    0.00    4.81
 2004 042   105   102   32.8   11.8   21.0   1.01   0.74   51.3    9.9   11.1    0.7   0.74   0.58    0.00    4.90
 2004 043   106   103   32.9   12.2   20.8   1.01   0.73   51.5    9.8   11.0    0.7   0.73   0.59    0.00    5.00
 2004 044   107   104   33.1   12.7   20.5   1.01   0.72   51.9    9.7   10.7    0.7   0.72   0.60    0.00    5.09
 2004 045   108   105   33.3   13.1   20.2   1.00   0.71   52.4    9.5   10.7    0.7   0.71   0.60    0.00    5.19
 2004 046   109   106   33.5   13.5   20.0   1.00   0.70   52.8    9.4   10.6    0.7   0.70   0.61    0.00    5.29
 2004 047   110   107   33.7   14.0   19.7   0.99   0.69   53.1    9.3   10.4    0.7   0.69   0.62    0.00    5.39
 2004 048   111   108   33.8   14.4   19.4   0.99   0.68   53.4    9.1   10.3    0.7   0.68   0.62    0.00    5.49
 2004 049   112   109   34.0   14.8   19.2   0.98   0.67   53.7    9.0   10.1    0.7   0.67   0.63    0.00    5.59
 2004 050   113   110   34.1   15.2   18.9   0.98   0.67   54.0    8.9   10.0    0.7   0.67   0.63    0.00    5.69
 2004 051   114   111   34.2   15.5   18.7   0.97   0.66   54.3    8.8    9.9    0.7   0.66   0.64    0.00    5.80
 2004 052   115   112   34.3   15.9   18.4   0.97   0.65   54.5    8.7    9.7    0.6   0.65   0.64    0.00    5.90
 2004 053   116   113   34.4   16.3   18.2   0.97   0.64   54.7    8.6    9.6    0.6   0.64   0.65    0.00    6.00
 2004 054   117   114   34.5   16.6   17.9   0.96   0.63   54.9    8.4    9.5    0.6   0.63   0.66    0.00    6.11
 2004 055   118   115   34.6   17.0   17.6   0.96   0.62   55.1    8.3    9.3    0.6   0.62   0.66    0.00    6.21
 2004 056   119   116   34.7   17.5   17.2   0.95   0.61   55.3    8.1    9.1    0.6   0.61   0.67    0.00    6.32
 2004 057   120   117   34.8   18.0   16.9   0.95   0.59   55.6    8.0    8.9    0.6   0.59   0.67    0.00    6.43
 2004 058   121   118   35.0   18.3   16.6   0.94   0.59   55.9    7.8    8.8    0.6   0.59   0.68    0.00    6.53
 2004 059   122   119   35.1   18.7   16.4   0.94   0.58   56.1    7.7    8.7    0.6   0.58   0.69    0.00    6.64
 2004 060   123   120   35.1   18.7   16.4   0.94   0.58   56.4    7.7    8.7    0.6   0.58   0.69    0.00    6.64
 2004 061   124   121   35.1   18.7   16.4   0.94   0.58   56.7    7.7    8.7    0.6   0.58   0.69    0.00    6.64
 2004 062   125   122   35.1   18.7   16.4   0.94   0.58   57.0    7.7    8.7    0.6   0.58   0.69    0.00    6.64
 2004 063   126   123   35.1   18.7   16.4   0.94   0.58   57.2    7.7    8.7    0.6   0.58   0.69    0.00    6.64

*DSSAT Cropping System Model Ver. 4.0.2.000               Aug 16, 2016; 17:55:43

*RUN   5        : UYMZ                    
 MODEL          : MZCER040 - Maize           
 EXPERIMENT     : UYMZ0214 MZ    late to create DSS                             
 TREATMENT  1   : UYMZ                    

@YEAR DOY   DAS   DAP   CNAD   GNAD   VNAD   GN%D   VN%D   NUPC   LNAD   SNAD   LN%D   SN%D   RN%D   SNN0C   SNN1C
 2004 305     3     0    0.0    0.0    0.0   0.00   0.00    0.0    0.0    0.0    0.0   0.00   0.00    0.00    0.00
 2004 306     4     1    0.0    0.0    0.0   0.00   0.00    0.0    0.0    0.0    0.0   0.00   0.00    0.00    0.00
 2004 307     5     2    0.0    0.0    0.0   0.00   0.00    0.0    0.0    0.0    0.0   0.00   0.00    0.00    0.00
 2004 308     6     3    0.0    0.0    0.0   0.00   0.00    0.0    0.0    0.0    0.0   0.00   0.00    0.00    0.00
 2004 309     7     4    0.0    0.0    0.0   0.00   0.00    0.0    0.0    0.0    0.0   0.00   0.00    0.00    0.00
 2004 310     8     5    0.0    0.0    0.0   0.00   0.00    0.0    0.0    0.0    0.0   0.00   0.00    0.00    0.00
 2004 311     9     6    0.0    0.0    0.0   0.00   0.00    0.0    0.0    0.0    0.0   0.00   0.00    0.00    0.00
 2004 312    10     7    0.0    0.0    0.0   0.00   0.00    0.0    0.0    0.0    0.0   0.00   0.00    0.00    0.00
 2004 313    11     8    0.0    0.0    0.0   0.00   0.00    0.0    0.0    0.0    0.0   0.00   0.00    0.00    0.00
 2004 314    12     9    1.2    0.0    1.2   0.00   4.40    0.0    0.6    0.6    4.4   4.40   0.00    0.00    0.00
 2004 315    13    10    1.3    0.0    1.3   0.00   4.54    0.2    0.6    0.6    4.5   4.54   1.08    0.00    0.00
 2004 316    14    11    1.3    0.0    1.3   0.00   4.54    0.2    0.6    0.6    4.5   4.54   1.06    0.00    0.00
 2004 317    15    12    1.3    0.0    1.3   0.00   4.49    0.2    0.6    0.6    4.5   4.49   1.13    0.00    0.00
 2004 318    16    13    1.2    0.0    1.2   0.00   4.46    0.2    0.6    0.6    4.5   4.46   1.17    0.00    0.00
 2004 319    17    14    1.2    0.0    1.2   0.00   4.46    0.2    0.6    0.6    4.5   4.46   1.12    0.00    0.00
 2004 320    18    15    1.2    0.0    1.2   0.00   4.39    0.2    0.6    0.6    4.4   4.39   1.15    0.00    0.00
 2004 321    19    16    1.2    0.0    1.2   0.00   4.35    0.3    0.6    0.6    4.3   4.35   1.24    0.00    0.00
 2004 322    20    17    1.2    0.0    1.2   0.00   4.32    0.3    0.6    0.6    4.3   4.32   1.25    0.00    0.01
 2004 323    21    18    1.2    0.0    1.2   0.00   4.29    0.3    0.6    0.6    4.3   4.29   1.17    0.00    0.01
 2004 324    22    19    1.2    0.0    1.2   0.00   4.26    0.5    0.6    0.6    4.3   4.26   1.31    0.00    0.01
 2004 325    23    20    1.2    0.0    1.2   0.00   3.76    0.6    0.7    0.5    3.8   3.76   1.28    0.00    0.01
 2004 326    24    21    1.3    0.0    1.3   0.00   3.42    0.9    0.8    0.5    3.4   3.42   1.28    0.00    0.01
 2004 327    25    22    1.6    0.0    1.6   0.00   3.27    1.3    1.1    0.5    3.3   3.27   1.26    0.00    0.02
 2004 328    26    23    2.0    0.0    2.0   0.00   3.29    1.8    1.5    0.5    3.3   3.29   1.23    0.00    0.02
 2004 329    27    24    2.5    0.0    2.5   0.00   3.31    2.2    2.0    0.5    3.3   3.31   1.10    0.00    0.03
 2004 330    28    25    3.0    0.0    3.0   0.00   3.27    3.2    2.5    0.5    3.3   3.27   1.28    0.00    0.03
 2004 331    29    26    3.6    0.0    3.6   0.00   3.29    4.0    3.1    0.5    3.3   3.29   1.24    0.00    0.04
 2004 332    30    27    4.3    0.0    4.3   0.00   3.31    5.1    3.8    0.5    3.3   3.31   1.28    0.00    0.05
 2004 333    31    28    5.0    0.0    5.0   0.00   3.41    6.6    4.5    0.5    3.4   3.41   1.32    0.00    0.06
 2004 334    32    29    5.7    0.0    5.7   0.00   3.18    7.9    5.3    0.4    3.2   3.18   1.28    0.00    0.07
 2004 335    33    30    6.9    0.0    6.9   0.00   3.10    9.9    6.4    0.4    3.1   3.10   1.28    0.00    0.09
 2004 336    34    31   10.1    0.0   10.1   0.00   3.77   14.0    9.6    0.5    3.8   3.77   1.26    0.00    0.11
 2004 337    35    32   12.0    0.0   12.0   0.00   3.68   16.8   11.5    0.5    3.7   3.68   1.24    0.00    0.14
 2004 338    36    33   14.1    0.0   14.1   0.00   3.54   18.8   13.5    0.5    3.5   3.54   1.14    0.00    0.17
 2004 339    37    34   15.9    0.0   15.9   0.00   3.49   22.4   15.3    0.6    3.5   3.49   1.25    0.00    0.20
 2004 340    38    35   18.1    0.0   18.1   0.00   3.44   25.5   17.4    0.7    3.4   3.44   1.21    0.00    0.24
 2004 341    39    36   20.2    0.0   20.2   0.00   3.31   29.0   19.3    0.9    3.3   3.31   1.20    0.00    0.28
 2004 342    40    37   21.8    0.0   21.8   0.00   3.08   31.3   20.6    1.1    3.1   3.08   1.12    0.00    0.33
 2004 343    41    38   23.4    0.0   23.4   0.00   2.94   33.4   21.9    1.4    2.9   2.94   1.08    0.00    0.38
 2004 344    42    39   26.1    0.0   26.1   0.00   2.89   36.7   24.2    1.9    2.9   2.89   1.07    0.00    0.44
 2004 345    43    40   28.5    0.0   28.5   0.00   2.79   40.3   26.1    2.4    2.8   2.79   1.03    0.00    0.50
 2004 346    44    41   30.7    0.0   30.7   0.00   2.69   43.7   27.7    3.0    2.7   2.69   0.99    0.00    0.56
 2004 347    45    42   32.6    0.0   32.6   0.00   2.54   46.5   28.9    3.7    2.5   2.54   0.96    0.00    0.63
 2004 348    46    43   33.9    0.0   33.9   0.00   2.47   48.5   29.7    4.2    2.5   2.47   0.92    0.00    0.71
 2004 349    47    44   34.9    0.0   34.9   0.00   2.42   50.0   30.3    4.6    2.4   2.42   0.91    0.00    0.79
 2004 350    48    45   35.8    0.0   35.8   0.00   2.37   51.2   30.7    5.1    2.4   2.37   0.91    0.00    0.87
 2004 351    49    46   36.4    0.0   36.4   0.00   2.34   52.2   31.0    5.4    2.3   2.34   0.89    0.00    0.95
 2004 352    50    47   36.8    0.0   36.8   0.00   2.31   53.0   31.1    5.7    2.3   2.31   0.87    0.00    1.04
 2004 353    51    48   37.2    0.0   37.2   0.00   2.27   53.5   31.2    6.0    2.3   2.27   0.87    0.00    1.12
 2004 354    52    49   37.6    0.0   37.6   0.00   2.22   54.1   31.2    6.4    2.2   2.22   0.87    0.00    1.21
 2004 355    53    50   38.0    0.0   38.0   0.00   2.16   54.6   31.2    6.8    2.2   2.16   0.87    0.00    1.30
 2004 356    54    51   38.4    0.0   38.4   0.00   2.13   55.2   31.2    7.2    2.1   2.13   0.87    0.00    1.39
 2004 357    55    52   39.0    0.0   39.0   0.00   2.11   56.0   31.3    7.7    2.1   2.11   0.87    0.00    1.48
 2004 358    56    53   39.7    0.0   39.7   0.00   2.09   57.0   31.3    8.4    2.1   2.09   0.88    0.00    1.57
 2004 359    57    54   40.6    0.0   40.6   0.00   2.04   58.1   31.2    9.4    2.0   2.04   0.89    0.00    1.66
 2004 360    58    55   42.0    0.0   42.0   0.00   1.93   59.9   30.6   11.4    1.9   1.93   0.89    0.00    1.75
 2004 361    59    56   43.2    0.0   43.2   0.00   1.79   61.5   29.6   13.6    1.8   1.79   0.87    0.00    1.85
 2004 362    60    57   44.3    0.0   44.3   0.00   1.67   62.9   28.7   15.6    1.7   1.67   0.85    0.00    1.94
 2004 363    61    58   45.3    0.0   45.3   0.00   1.56   64.1   27.8   17.5    1.6   1.56   0.83    0.00    2.04
 2004 364    62    59   46.2    0.0   46.2   0.00   1.53   65.2   27.7   18.5    1.5   1.53   0.84    0.00    2.14
 2004 365    63    60   47.0    0.0   47.0   0.00   1.44   66.1   26.9   20.1    1.4   1.44   0.81    0.00    2.24
 2004 366    64    61   47.5    0.0   47.5   0.00   1.37   66.8   26.3   21.3    1.4   1.37   0.79    0.00    2.34
 2005 001    65    62   48.0    0.0   48.0   0.00   1.34   67.4   26.0   22.0    1.3   1.34   0.78    0.00    2.44
 2005 002    66    63   48.3    0.0   48.3   0.00   1.32   67.8   25.8   22.5    1.3   1.32   0.77    0.00    2.54
 2005 003    67    64   48.6    0.0   48.6   0.00   1.29   68.2   25.6   23.0    1.3   1.29   0.77    0.00    2.65
 2005 004    68    65   48.8    0.0   48.8   0.00   1.28   68.5   25.5   23.3    1.3   1.28   0.77    0.00    2.75
 2005 005    69    66   49.0    0.0   49.0   0.00   1.40   68.7   27.6   21.5    1.4   1.40   0.77    0.00    2.85
 2005 006    70    67   49.2    0.0   49.2   0.00   1.41   68.9   27.4   21.8    1.4   1.41   0.77    0.00    2.95
 2005 007    71    68   49.4    0.0   49.4   0.00   1.42   69.3   27.2   22.2    1.4   1.42   0.77    0.00    3.06
 2005 008    72    69   49.7    0.0   49.7   0.00   1.42   69.6   26.7   23.0    1.4   1.42   0.78    0.00    3.16
 2005 009    73    70   49.9    0.0   49.9   0.00   1.41   69.8   26.2   23.7    1.4   1.41   0.78    0.00    3.27
 2005 010    74    71   50.0    0.0   50.0   0.00   1.42   70.0   25.9   24.1    1.4   1.42   0.78    0.00    3.37
 2005 011    75    72   50.1    0.0   50.1   0.00   1.43   70.1   25.6   24.4    1.4   1.43   0.78    0.00    3.47
 2005 012    76    73   50.1    0.0   50.1   0.00   1.45   70.2   25.3   24.8    1.4   1.45   0.78    0.00    3.58
 2005 013    77    74   50.2    0.0   50.2   0.00   1.46   70.3   24.9   25.2    1.5   1.46   0.78    0.00    3.68
 2005 014    78    75   50.3    0.0   50.3   0.00   1.47   70.5   24.6   25.7    1.5   1.47   0.78    0.00    3.79
 2005 015    79    76   50.4    0.7   49.7   1.50   1.45   70.6   24.2   25.4    1.5   1.45   0.78    0.00    3.89
 2005 016    80    77   50.4    1.4   49.0   1.51   1.44   70.7   23.9   25.1    1.4   1.44   0.78    0.00    4.00
 2005 017    81    78   50.5    2.1   48.4   1.52   1.42   70.8   23.6   24.7    1.4   1.42   0.79    0.00    4.10
 2005 018    82    79   50.5    2.6   47.9   1.52   1.40   70.8   23.4   24.5    1.4   1.40   0.79    0.00    4.21
 2005 019    83    80   50.6    3.3   47.4   1.53   1.39   71.0   23.1   24.2    1.4   1.39   0.79    0.00    4.32
 2005 020    84    81   50.7    3.9   46.7   1.50   1.37   71.1   22.8   23.9    1.4   1.37   0.78    0.00    4.42
 2005 021    85    82   50.7    4.7   45.9   1.50   1.35   71.2   22.4   23.5    1.3   1.35   0.77    0.00    4.53
 2005 022    86    83   50.7    5.5   45.2   1.50   1.32   71.2   22.1   23.1    1.3   1.32   0.77    0.00    4.63
 2005 023    87    84   50.7    6.2   44.5   1.51   1.30   71.2   21.7   22.8    1.3   1.30   0.77    0.00    4.74
 2005 024    88    85   50.7    6.9   43.9   1.51   1.28   71.3   21.4   22.4    1.3   1.28   0.78    0.00    4.85
 2005 025    89    86   50.7    7.3   43.4   1.51   1.27   71.3   21.2   22.2    1.3   1.27   0.78    0.00    4.95
 2005 026    90    87   50.7    7.7   43.1   1.51   1.26   71.3   21.0   22.0    1.3   1.26   0.78    0.00    5.06
 2005 027    91    88   50.7    8.2   42.6   1.52   1.25   71.3   20.8   21.8    1.2   1.25   0.78    0.00    5.17
 2005 028    92    89   50.7    8.8   41.9   1.52   1.23   71.3   20.5   21.4    1.2   1.23   0.79    0.00    5.27
 2005 029    93    90   51.8    9.5   42.3   1.52   1.24   73.1   20.8   21.5    1.2   1.24   0.82    0.00    5.38
 2005 030    94    91   52.8   10.8   42.0   1.51   1.24   74.8   20.7   21.3    1.2   1.24   0.85    0.00    5.49
 2005 031    95    92   53.3   11.6   41.7   1.51   1.23   75.7   20.5   21.2    1.2   1.23   0.87    0.00    5.60
 2005 032    96    93   53.6   12.1   41.6   1.51   1.22   76.3   20.3   21.3    1.2   1.22   0.86    0.00    5.72
 2005 033    97    94   53.9   12.6   41.3   1.51   1.21   76.8   20.1   21.1    1.2   1.21   0.86    0.00    5.83
 2005 034    98    95   54.1   13.4   40.7   1.51   1.19   77.2   19.9   20.8    1.2   1.19   0.85    0.00    5.95
 2005 035    99    96   54.3   14.4   39.9   1.50   1.17   77.5   19.5   20.4    1.2   1.17   0.85    0.00    6.07
 2005 036   100    97   54.4   15.6   38.9   1.50   1.14   77.8   19.0   19.9    1.1   1.14   0.85    0.00    6.19
 2005 037   101    98   54.6   16.8   37.8   1.50   1.11   78.1   18.5   19.3    1.1   1.11   0.85    0.00    6.31
 2005 038   102    99   54.7   18.0   36.8   1.49   1.08   78.4   18.0   18.8    1.1   1.08   0.86    0.00    6.43
 2005 039   103   100   54.9   19.2   35.7   1.49   1.05   78.6   17.6   18.1    1.1   1.05   0.87    0.00    6.55
 2005 040   104   101   55.0   20.3   34.7   1.48   1.02   78.9   17.0   17.8    1.0   1.02   0.87    0.00    6.67
 2005 041   105   102   55.2   21.3   33.9   1.48   0.99   79.2   16.6   17.4    1.0   0.99   0.88    0.00    6.80
 2005 042   106   103   55.4   22.4   33.0   1.47   0.97   79.5   16.1   16.9    1.0   0.97   0.88    0.00    6.92
 2005 043   107   104   55.5   23.4   32.1   1.46   0.94   79.7   15.7   16.4    0.9   0.94   0.88    0.00    7.04
 2005 044   108   105   55.7   24.5   31.2   1.45   0.91   80.0   15.2   16.0    0.9   0.91   0.88    0.00    7.17
 2005 045   109   106   55.9   25.6   30.3   1.45   0.89   80.3   14.8   15.5    0.9   0.89   0.88    0.00    7.29
 2005 046   110   107   56.1   26.4   29.6   1.44   0.87   80.6   14.5   15.2    0.9   0.87   0.88    0.00    7.41
 2005 047   111   108   56.2   27.4   28.8   1.43   0.84   80.9   14.1   14.8    0.8   0.84   0.88    0.00    7.54
 2005 048   112   109   56.4   28.2   28.1   1.42   0.82   81.1   13.7   14.4    0.8   0.82   0.88    0.00    7.66
 2005 049   113   110   56.6   29.2   27.4   1.41   0.80   81.4   13.4   14.0    0.8   0.80   0.89    0.00    7.79
 2005 050   114   111   56.7   30.1   26.6   1.40   0.78   81.7   13.0   13.6    0.8   0.78   0.89    0.00    7.92
 2005 051   115   112   56.9   31.1   25.8   1.39   0.76   82.0   12.6   13.2    0.8   0.76   0.89    0.00    8.04
 2005 052   116   113   57.3   32.0   25.2   1.38   0.74   82.5   12.3   12.9    0.7   0.74   0.90    0.00    8.17
 2005 053   117   114   57.4   32.9   24.5   1.37   0.72   82.8   12.0   12.5    0.7   0.72   0.90    0.00    8.30
 2005 054   118   115   57.6   33.8   23.8   1.36   0.70   83.1   11.6   12.2    0.7   0.70   0.91    0.00    8.43
 2005 055   119   116   57.6   33.8   23.8   1.36   0.70   83.4   11.6   12.2    0.7   0.70   0.91    0.00    8.43
 2005 056   120   117   57.6   33.8   23.8   1.36   0.70   83.7   11.6   12.2    0.7   0.70   0.91    0.00    8.43
 2005 057   121   118   57.6   33.8   23.8   1.36   0.70   84.0   11.6   12.2    0.7   0.70   0.91    0.00    8.43

*DSSAT Cropping System Model Ver. 4.0.2.000               Aug 16, 2016; 17:55:43

*RUN   6        : UYMZ                    
 MODEL          : MZCER040 - Maize           
 EXPERIMENT     : UYMZ0214 MZ    late to create DSS                             
 TREATMENT  1   : UYMZ                    

@YEAR DOY   DAS   DAP   CNAD   GNAD   VNAD   GN%D   VN%D   NUPC   LNAD   SNAD   LN%D   SN%D   RN%D   SNN0C   SNN1C
 2005 305     3     0    0.0    0.0    0.0   0.00   0.00    0.0    0.0    0.0    0.0   0.00   0.00    0.00    0.00
 2005 306     4     1    0.0    0.0    0.0   0.00   0.00    0.0    0.0    0.0    0.0   0.00   0.00    0.00    0.00
 2005 307     5     2    0.0    0.0    0.0   0.00   0.00    0.0    0.0    0.0    0.0   0.00   0.00    0.00    0.00
 2005 308     6     3    0.0    0.0    0.0   0.00   0.00    0.0    0.0    0.0    0.0   0.00   0.00    0.00    0.00
 2005 309     7     4    0.0    0.0    0.0   0.00   0.00    0.0    0.0    0.0    0.0   0.00   0.00    0.00    0.00
 2005 310     8     5    0.0    0.0    0.0   0.00   0.00    0.0    0.0    0.0    0.0   0.00   0.00    0.00    0.00
 2005 311     9     6    0.0    0.0    0.0   0.00   0.00    0.0    0.0    0.0    0.0   0.00   0.00    0.00    0.00
 2005 312    10     7    0.0    0.0    0.0   0.00   0.00    0.0    0.0    0.0    0.0   0.00   0.00    0.00    0.00
 2005 313    11     8    0.0    0.0    0.0   0.00   0.00    0.0    0.0    0.0    0.0   0.00   0.00    0.00    0.00
 2005 314    12     9    0.0    0.0    0.0   0.00   0.00    0.0    0.0    0.0    0.0   0.00   0.00    0.00    0.00
 2005 315    13    10    1.2    0.0    1.2   0.00   4.40    0.0    0.6    0.6    4.4   4.40   0.00    0.00    0.00
 2005 316    14    11    1.3    0.0    1.3   0.00   4.50    0.2    0.6    0.6    4.5   4.50   1.12    0.00    0.00
 2005 317    15    12    1.2    0.0    1.2   0.00   4.44    0.2    0.6    0.6    4.4   4.44   1.15    0.00    0.00
 2005 318    16    13    1.2    0.0    1.2   0.00   4.39    0.2    0.6    0.6    4.4   4.39   1.21    0.00    0.00
 2005 319    17    14    1.2    0.0    1.2   0.00   4.34    0.2    0.6    0.6    4.3   4.34   1.22    0.00    0.00
 2005 320    18    15    1.2    0.0    1.2   0.00   4.29    0.3    0.6    0.6    4.3   4.29   1.26    0.00    0.00
 2005 321    19    16    1.2    0.0    1.2   0.00   3.75    0.4    0.7    0.5    3.7   3.75   1.31    0.00    0.01
 2005 322    20    17    1.3    0.0    1.3   0.00   3.36    0.6    0.9    0.5    3.4   3.36   1.24    0.00    0.01
 2005 323    21    18    1.6    0.0    1.6   0.00   3.17    1.1    1.2    0.4    3.2   3.17   1.32    0.00    0.01
 2005 324    22    19    2.1    0.0    2.1   0.00   3.11    1.8    1.6    0.4    3.1   3.11   1.35    0.00    0.01
 2005 325    23    20    2.7    0.0    2.7   0.00   3.12    2.6    2.3    0.4    3.1   3.12   1.29    0.00    0.02
 2005 326    24    21    3.4    0.0    3.4   0.00   2.99    3.8    3.0    0.4    3.0   2.99   1.33    0.00    0.03
 2005 327    25    22    4.4    0.0    4.4   0.00   3.29    4.8    3.9    0.5    3.3   3.29   1.17    0.00    0.03
 2005 328    26    23    5.2    0.0    5.2   0.00   3.34    6.6    4.7    0.5    3.3   3.34   1.38    0.00    0.04
 2005 329    27    24    6.0    0.0    6.0   0.00   3.17    8.1    5.5    0.4    3.2   3.17   1.32    0.00    0.05
 2005 330    28    25    8.9    0.0    8.9   0.00   3.77   11.7    8.4    0.5    3.8   3.77   1.28    0.00    0.07
 2005 331    29    26   10.7    0.0   10.7   0.00   3.69   14.4   10.2    0.5    3.7   3.69   1.27    0.00    0.09
 2005 332    30    27   11.9    0.0   11.9   0.00   3.60   16.5   11.3    0.5    3.6   3.60   1.28    0.00    0.12
 2005 333    31    28   13.4    0.0   13.4   0.00   3.49   17.8   12.9    0.6    3.5   3.49   1.14    0.00    0.15
 2005 334    32    29   14.8    0.0   14.8   0.00   3.45   19.6   14.1    0.7    3.4   3.45   1.15    0.00    0.17
 2005 335    33    30   15.8    0.0   15.8   0.00   3.42   23.0   15.1    0.7    3.4   3.42   1.29    0.00    0.20
 2005 336    34    31   16.8    0.0   16.8   0.00   3.39   25.5   16.0    0.8    3.4   3.39   1.26    0.00    0.25
 2005 337    35    32   18.6    0.0   18.6   0.00   3.35   27.0   17.7    1.0    3.3   3.35   1.14    0.00    0.29
 2005 338    36    33   20.9    0.0   20.9   0.00   3.30   30.6   19.7    1.3    3.3   3.30   1.17    0.00    0.34
 2005 339    37    34   23.3    0.0   23.3   0.00   3.26   34.8   21.6    1.6    3.3   3.26   1.20    0.00    0.40
 2005 340    38    35   24.1    0.0   24.1   0.00   3.29   38.0   22.3    1.7    3.3   3.29   1.31    0.00    0.46
 2005 341    39    36   24.7    0.0   24.7   0.00   3.30   39.4   22.8    1.8    3.3   3.30   1.29    0.00    0.54
 2005 342    40    37   24.7    0.0   24.7   0.00   3.04   39.4   22.6    2.1    3.0   3.04   1.26    0.00    0.54
 2005 343    41    38   26.3    0.0   26.3   0.00   3.15   41.2   24.0    2.3    3.2   3.15   1.24    0.00    0.62
 2005 344    42    39   26.9    0.0   26.9   0.00   3.18   42.7   24.5    2.4    3.2   3.18   1.26    0.00    0.70
 2005 345    43    40   27.5    0.0   27.5   0.00   3.19   43.8   24.9    2.6    3.2   3.19   1.27    0.00    0.78
 2005 346    44    41   28.1    0.0   28.1   0.00   3.19   44.7   25.4    2.7    3.2   3.19   1.26    0.00    0.87
 2005 347    45    42   28.7    0.0   28.7   0.00   3.16   45.3   25.8    3.0    3.2   3.16   1.23    0.00    0.96
 2005 348    46    43   29.4    0.0   29.4   0.00   3.11   45.9   26.1    3.3    3.1   3.11   1.21    0.00    1.05
 2005 349    47    44   30.9    0.0   30.9   0.00   3.14   46.6   27.1    3.8    3.1   3.14   1.15    0.00    1.13
 2005 350    48    45   30.9    0.0   30.9   0.00   2.91   46.6   26.4    4.5    2.9   2.91   1.15    0.00    1.13
 2005 351    49    46   31.8    0.0   31.8   0.00   2.84   48.1   26.8    5.0    2.8   2.84   1.14    0.00    1.22
 2005 352    50    47   32.6    0.0   32.6   0.00   2.83   49.2   27.1    5.4    2.8   2.83   1.14    0.00    1.30
 2005 353    51    48   33.3    0.0   33.3   0.00   2.79   50.0   27.4    5.9    2.8   2.79   1.14    0.00    1.39
 2005 354    52    49   33.8    0.0   33.8   0.00   2.73   50.5   27.3    6.5    2.7   2.73   1.13    0.00    1.48
 2005 355    53    50   34.2    0.0   34.2   0.00   2.69   50.9   27.2    7.0    2.7   2.69   1.13    0.00    1.57
 2005 356    54    51   34.6    0.0   34.6   0.00   2.62   51.3   26.9    7.7    2.6   2.62   1.13    0.00    1.66
 2005 357    55    52   34.8    0.0   34.8   0.00   2.57   51.5   26.7    8.1    2.6   2.57   1.13    0.00    1.75
 2005 358    56    53   34.9    0.0   34.9   0.00   2.54   51.7   26.5    8.4    2.5   2.54   1.12    0.00    1.84
 2005 359    57    54   35.2    0.0   35.2   0.00   2.49   52.0   26.2    9.0    2.5   2.49   1.11    0.00    1.93
 2005 360    58    55   35.6    0.0   35.6   0.00   2.37   52.5   25.5   10.1    2.4   2.37   1.09    0.00    2.02
 2005 361    59    56   36.0    0.0   36.0   0.00   2.20   52.9   24.4   11.6    2.2   2.20   1.08    0.00    2.11
 2005 362    60    57   36.4    0.0   36.4   0.00   2.07   53.3   23.5   12.9    2.1   2.07   1.07    0.00    2.19
 2005 363    61    58   36.7    0.0   36.7   0.00   1.99   53.7   22.9   13.8    2.0   1.99   1.06    0.00    2.28
 2005 364    62    59   37.0    0.0   37.0   0.00   1.92   54.0   22.5   14.5    1.9   1.92   1.06    0.00    2.37
 2005 365    63    60   37.2    0.0   37.2   0.00   1.87   54.2   22.1   15.1    1.9   1.87   1.05    0.00    2.46
 2006 001    64    61   37.4    0.0   37.4   0.00   1.82   54.5   21.8   15.6    1.8   1.82   1.05    0.00    2.56
 2006 002    65    62   37.6    0.0   37.6   0.00   1.77   54.7   21.5   16.1    1.8   1.77   1.04    0.00    2.65
 2006 003    66    63   37.7    0.0   37.7   0.00   1.74   54.8   21.3   16.4    1.7   1.74   1.04    0.00    2.74
 2006 004    67    64   37.8    0.0   37.8   0.00   1.71   55.0   21.0   16.8    1.7   1.71   1.03    0.00    2.83
 2006 005    68    65   38.0    0.0   38.0   0.00   1.85   55.1   22.5   15.5    1.8   1.85   1.03    0.00    2.92
 2006 006    69    66   38.4    0.0   38.4   0.00   1.87   55.6   22.4   16.0    1.9   1.87   1.04    0.00    3.01
 2006 007    70    67   38.6    0.0   38.6   0.00   1.87   55.8   22.1   16.5    1.9   1.87   1.04    0.00    3.10
 2006 008    71    68   44.4    0.0   44.4   0.00   2.16   62.0   25.0   19.4    2.2   2.16   1.07    0.00    3.19
 2006 009    72    69   47.1    0.0   47.1   0.00   2.23   64.9   25.4   21.7    2.2   2.23   1.07    0.00    3.28
 2006 010    73    70   47.1    0.0   47.1   0.00   2.20   64.9   24.6   22.5    2.2   2.20   1.07    0.00    3.28
 2006 011    74    71   47.1    0.0   47.1   0.00   2.20   64.9   24.0   23.1    2.2   2.20   1.08    0.00    3.28
 2006 012    75    72   47.1    0.0   47.1   0.00   2.18   64.9   23.3   23.8    2.2   2.18   1.08    0.00    3.28
 2006 013    76    73   47.1    0.0   47.1   0.00   2.19   64.9   22.8   24.3    2.2   2.19   1.08    0.00    3.28
 2006 014    77    74   47.1    0.0   47.1   0.00   2.19   64.9   22.2   24.9    2.2   2.19   1.08    0.00    3.28
 2006 015    78    75   47.1    0.0   47.1   0.00   2.19   64.9   21.7   25.4    2.2   2.19   1.09    0.00    3.28
 2006 016    79    76   47.1    0.0   47.1   0.00   2.19   64.9   21.1   26.1    2.2   2.19   1.09    0.00    3.28
[...]
 2012 351    49    46   35.9    0.0   35.9   0.00   1.15   48.5   22.3   13.6    1.1   1.15   0.66    0.00    1.22
 2012 352    50    47   36.9    0.0   36.9   0.00   1.13   49.8   22.4   14.5    1.1   1.13   0.64    0.00    1.29
 2012 353    51    48   37.8    0.0   37.8   0.00   1.12   50.9   22.5   15.3    1.1   1.12   0.64    0.00    1.36
 2012 354    52    49   38.7    0.0   38.7   0.00   1.11   52.0   22.5   16.2    1.1   1.11   0.64    0.00    1.43
 2012 355    53    50   39.5    0.0   39.5   0.00   1.09   52.9   22.5   17.0    1.1   1.09   0.64    0.00    1.50
 2012 356    54    51   40.1    0.0   40.1   0.00   1.07   53.7   22.4   17.7    1.1   1.07   0.62    0.00    1.57
 2012 357    55    52   40.7    0.0   40.7   0.00   1.05   54.5   22.3   18.4    1.1   1.05   0.59    0.00    1.65
 2012 358    56    53   41.3    0.0   41.3   0.00   1.03   55.2   22.1   19.1    1.0   1.03   0.57    0.00    1.72
 2012 359    57    54   41.9    0.0   41.9   0.00   0.99   56.0   21.9   20.1    1.0   0.99   0.56    0.00    1.80
 2012 360    58    55   42.3    0.0   42.3   0.00   0.97   56.6   21.7   20.7    1.0   0.97   0.56    0.00    1.87
 2012 361    59    56   42.8    0.0   42.8   0.00   0.96   57.1   21.6   21.1    1.0   0.96   0.55    0.00    1.95
 2012 362    60    57   43.2    0.0   43.2   0.00   1.06   57.7   23.6   19.6    1.1   1.06   0.53    0.00    2.03
 2012 363    61    58   43.6    0.0   43.6   0.00   1.07   58.2   23.5   20.1    1.1   1.07   0.52    0.00    2.10
 2012 364    62    59   43.9    0.0   43.9   0.00   1.07   58.7   23.3   20.6    1.1   1.07   0.51    0.00    2.18
 2012 365    63    60   44.2    0.0   44.2   0.00   1.07   59.2   23.0   21.3    1.1   1.07   0.50    0.00    2.26
 2012 366    64    61   44.6    0.0   44.6   0.00   1.08   59.7   22.6   22.0    1.1   1.08   0.50    0.00    2.34
 2013 001    65    62   44.9    0.0   44.9   0.00   1.08   60.2   22.4   22.5    1.1   1.08   0.48    0.00    2.42
 2013 002    66    63   45.2    0.0   45.2   0.00   1.09   60.6   22.2   23.0    1.1   1.09   0.47    0.00    2.50
 2013 003    67    64   45.4    0.0   45.4   0.00   1.10   60.9   21.9   23.5    1.1   1.10   0.45    0.00    2.58
 2013 004    68    65   45.6    0.0   45.6   0.00   1.10   61.4   21.5   24.1    1.1   1.10   0.45    0.00    2.67
 2013 005    69    66   45.8    0.0   45.8   0.00   1.10   61.7   21.0   24.8    1.1   1.10   0.45    0.00    2.75
 2013 006    70    67   46.0    0.0   46.0   0.00   1.09   61.9   20.5   25.5    1.1   1.09   0.44    0.00    2.83
 2013 007    71    68   46.1    0.0   46.1   0.00   1.09   62.2   20.0   26.1    1.1   1.09   0.44    0.00    2.92
 2013 008    72    69   46.2    2.1   44.1   1.09   1.05   62.3   19.1   24.9    1.0   1.05   0.44    0.00    3.00
 2013 009    73    70   46.3    2.8   43.5   1.09   1.03   62.5   18.9   24.6    1.0   1.03   0.44    0.00    3.09
 2013 010    74    71   46.3    3.4   42.9   1.09   1.02   62.6   18.6   24.3    1.0   1.02   0.44    0.00    3.18
 2013 011    75    72   46.4    4.0   42.4   1.08   1.01   62.7   18.4   24.0    1.0   1.01   0.44    0.00    3.26
 2013 012    76    73   46.4    4.6   41.8   1.08   0.99   62.8   18.1   23.7    1.0   0.99   0.45    0.00    3.35
 2013 013    77    74   46.5    5.2   41.3   1.08   0.98   62.8   17.9   23.4    1.0   0.98   0.45    0.00    3.43
 2013 014    78    75   46.5    5.8   40.7   1.08   0.97   62.9   17.7   23.0    1.0   0.97   0.45    0.00    3.52
 2013 015    79    76   46.5    6.3   40.1   1.08   0.95   62.9   17.4   22.7    1.0   0.95   0.45    0.00    3.61
 2013 016    80    77   46.5    6.9   39.6   1.08   0.94   62.9   17.2   22.4    0.9   0.94   0.45    0.00    3.69
 2013 017    81    78   46.5    7.4   39.1   1.08   0.93   62.9   16.9   22.1    0.9   0.93   0.45    0.00    3.78
 2013 018    82    79   46.5    7.9   38.6   1.09   0.92   62.9   16.8   21.8    0.9   0.92   0.46    0.00    3.87
 2013 019    83    80   46.5    8.5   38.0   1.08   0.90   62.9   16.5   21.5    0.9   0.90   0.46    0.00    3.95
 2013 020    84    81   46.5    8.9   37.6   1.09   0.90   62.9   16.4   21.2    0.9   0.90   0.46    0.00    4.04
 2013 021    85    82   46.5    9.3   37.1   1.09   0.89   62.9   16.2   20.9    0.9   0.89   0.46    0.00    4.12
 2013 022    86    83   46.5    9.8   36.6   1.09   0.88   62.9   16.1   20.6    0.9   0.88   0.47    0.00    4.21
 2013 023    87    84   46.5   10.3   36.2   1.09   0.87   63.0   16.0   20.2    0.9   0.87   0.47    0.00    4.30
 2013 024    88    85   46.8   10.8   36.0   1.09   0.87   63.6   15.9   20.0    0.9   0.87   0.48    0.00    4.38
 2013 025    89    86   47.1   11.4   35.7   1.08   0.85   64.2   15.5   20.2    0.8   0.85   0.48    0.00    4.47
 2013 026    90    87   47.3   12.0   35.3   1.08   0.84   64.7   15.3   20.0    0.8   0.84   0.49    0.00    4.56
 2013 027    91    88   47.5   12.9   34.6   1.07   0.82   65.1   15.0   19.6    0.8   0.82   0.49    0.00    4.65
 2013 028    92    89   47.6   13.8   33.8   1.07   0.80   65.3   14.7   19.2    0.8   0.80   0.49    0.00    4.74
 2013 029    93    90   47.8   14.7   33.0   1.06   0.78   65.5   14.3   18.7    0.8   0.78   0.49    0.00    4.84
 2013 030    94    91   47.9   15.6   32.3   1.05   0.77   65.8   14.0   18.3    0.8   0.77   0.50    0.00    4.93
 2013 031    95    92   48.0   16.5   31.5   1.05   0.75   66.0   13.7   17.8    0.7   0.75   0.50    0.00    5.02
 2013 032    96    93   48.1   17.3   30.7   1.04   0.73   66.2   13.3   17.4    0.7   0.73   0.50    0.00    5.12
 2013 033    97    94   48.2   18.2   30.0   1.04   0.71   66.4   13.0   17.0    0.7   0.71   0.51    0.00    5.21
 2013 034    98    95   48.2   18.6   29.6   1.03   0.70   66.6   12.8   16.8    0.7   0.70   0.51    0.00    5.30
 2013 035    99    96   48.3   19.1   29.2   1.03   0.69   66.7   12.7   16.5    0.7   0.69   0.51    0.00    5.40
 2013 036   100    97   48.3   19.8   28.5   1.02   0.68   66.8   12.4   16.1    0.7   0.68   0.51    0.00    5.50
 2013 037   101    98   48.4   20.4   27.9   1.02   0.66   66.9   12.1   15.8    0.7   0.66   0.51    0.00    5.59
 2013 038   102    99   48.4   21.0   27.4   1.02   0.65   67.0   11.9   15.5    0.6   0.65   0.51    0.00    5.69
 2013 039   103   100   48.4   21.6   26.8   1.01   0.64   67.0   11.6   15.2    0.6   0.64   0.52    0.00    5.78
 2013 040   104   101   48.4   22.1   26.3   1.01   0.62   67.1   11.4   14.9    0.6   0.62   0.52    0.00    5.88
 2013 041   105   102   48.5   22.8   25.8   1.00   0.61   67.3   11.2   14.6    0.6   0.61   0.52    0.00    5.98
 2013 042   106   103   48.6   23.5   25.1   0.99   0.60   67.4   11.0   14.1    0.6   0.60   0.53    0.00    6.07
 2013 043   107   104   48.6   24.2   24.5   0.99   0.59   67.5   10.7   13.7    0.6   0.59   0.53    0.00    6.17
 2013 044   108   105   48.6   24.2   24.5   0.99   0.59   67.6   10.7   13.7    0.6   0.59   0.53    0.00    6.17
 2013 045   109   106   48.6   24.2   24.5   0.99   0.59   67.7   10.7   13.7    0.6   0.59   0.53    0.00    6.17
 2013 046   110   107   48.6   24.2   24.5   0.99   0.59   67.8   10.7   13.7    0.6   0.59   0.53    0.00    6.17

*DSSAT Cropping System Model Ver. 4.0.2.000               Aug 16, 2016; 17:55:43

*RUN  14        : UYMZ                    
 MODEL          : MZCER040 - Maize           
 EXPERIMENT     : UYMZ0214 MZ    late to create DSS                             
 TREATMENT  1   : UYMZ                    

@YEAR DOY   DAS   DAP   CNAD   GNAD   VNAD   GN%D   VN%D   NUPC   LNAD   SNAD   LN%D   SN%D   RN%D   SNN0C   SNN1C
 2013 305     3     0    0.0    0.0    0.0   0.00   0.00    0.0    0.0    0.0    0.0   0.00   0.00    0.00    0.00
 2013 306     4     1    0.0    0.0    0.0   0.00   0.00    0.0    0.0    0.0    0.0   0.00   0.00    0.00    0.00
 2013 307     5     2    0.0    0.0    0.0   0.00   0.00    0.0    0.0    0.0    0.0   0.00   0.00    0.00    0.00
 2013 308     6     3    0.0    0.0    0.0   0.00   0.00    0.0    0.0    0.0    0.0   0.00   0.00    0.00    0.00
 2013 309     7     4    0.0    0.0    0.0   0.00   0.00    0.0    0.0    0.0    0.0   0.00   0.00    0.00    0.00
 2013 310     8     5    0.0    0.0    0.0   0.00   0.00    0.0    0.0    0.0    0.0   0.00   0.00    0.00    0.00
 2013 311     9     6    0.0    0.0    0.0   0.00   0.00    0.0    0.0    0.0    0.0   0.00   0.00    0.00    0.00
 2013 312    10     7    1.2    0.0    1.2   0.00   4.40    0.0    0.6    0.6    4.4   4.40   0.00    0.00    0.00
 2013 313    11     8    1.3    0.0    1.3   0.00   4.51    0.2    0.6    0.6    4.5   4.51   1.11    0.00    0.00
 2013 314    12     9    1.3    0.0    1.3   0.00   4.51    0.2    0.6    0.6    4.5   4.51   1.05    0.00    0.00
 2013 315    13    10    1.3    0.0    1.3   0.00   4.51    0.2    0.6    0.6    4.5   4.51   1.01    0.00    0.00
 2013 316    14    11    1.2    0.0    1.2   0.00   4.37    0.2    0.6    0.6    4.4   4.37   1.24    0.00    0.00
 2013 317    15    12    1.2    0.0    1.2   0.00   4.33    0.3    0.6    0.6    4.3   4.33   1.24    0.00    0.00
 2013 318    16    13    1.2    0.0    1.2   0.00   4.27    0.3    0.6    0.6    4.3   4.27   1.27    0.00    0.00
 2013 319    17    14    1.2    0.0    1.2   0.00   3.69    0.4    0.7    0.5    3.7   3.69   1.22    0.00    0.01
 2013 320    18    15    1.3    0.0    1.3   0.00   3.64    0.7    0.8    0.5    3.6   3.64   1.37    0.00    0.01
 2013 321    19    16    1.5    0.0    1.5   0.00   3.39    1.1    1.1    0.5    3.4   3.39   1.32    0.00    0.01
 2013 322    20    17    1.8    0.0    1.8   0.00   3.26    1.6    1.4    0.5    3.3   3.26   1.29    0.00    0.01
 2013 323    21    18    2.3    0.0    2.3   0.00   3.45    1.9    1.8    0.5    3.4   3.45   1.12    0.00    0.02
 2013 324    22    19    2.7    0.0    2.7   0.00   3.42    2.4    2.2    0.5    3.4   3.42   1.12    0.00    0.02
 2013 325    23    20    3.1    0.0    3.1   0.00   3.48    3.2    2.6    0.5    3.5   3.48   1.27    0.00    0.03
 2013 326    24    21    3.5    0.0    3.5   0.00   3.30    4.2    3.1    0.5    3.3   3.30   1.35    0.00    0.03
 2013 327    25    22    4.2    0.0    4.2   0.00   3.20    5.3    3.7    0.4    3.2   3.20   1.31    0.00    0.04
 2013 328    26    23    5.0    0.0    5.0   0.00   3.22    6.7    4.6    0.5    3.2   3.22   1.28    0.00    0.06
 2013 329    27    24    6.1    0.0    6.1   0.00   3.20    7.6    5.6    0.4    3.2   3.20   1.14    0.00    0.07
 2013 330    28    25    7.1    0.0    7.1   0.00   3.27    8.6    6.6    0.5    3.3   3.27   1.11    0.00    0.08
 2013 331    29    26    7.7    0.0    7.7   0.00   3.17    9.3    7.2    0.4    3.2   3.17   1.07    0.00    0.10
 2013 332    30    27    8.4    0.0    8.4   0.00   3.03   10.6    8.0    0.4    3.0   3.03   0.96    0.00    0.11
 2013 333    31    28    9.4    0.0    9.4   0.00   3.01   12.5    9.0    0.4    3.0   3.01   0.95    0.00    0.13
 2013 334    32    29   10.3    0.0   10.3   0.00   2.83   14.1    9.9    0.4    2.8   2.83   0.91    0.00    0.15
 2013 335    33    30   11.1    0.0   11.1   0.00   2.58   15.4   10.6    0.5    2.6   2.58   0.85    0.00    0.18
 2013 336    34    31   11.7    0.0   11.7   0.00   2.26   16.4   11.2    0.5    2.3   2.26   0.79    0.00    0.20
 2013 337    35    32   12.3    0.0   12.3   0.00   2.19   17.3   11.7    0.6    2.2   2.19   0.71    0.00    0.23
 2013 338    36    33   12.7    0.0   12.7   0.00   2.00   18.0   12.0    0.7    2.0   2.00   0.65    0.00    0.26
 2013 339    37    34   13.0    0.0   13.0   0.00   1.91   18.6   12.2    0.8    1.9   1.91   0.59    0.00    0.30
 2013 340    38    35   13.2    0.0   13.2   0.00   1.84   19.0   12.4    0.8    1.8   1.84   0.54    0.00    0.33
 2013 341    39    36   14.6    0.0   14.6   0.00   1.86   21.5   13.5    1.0    1.9   1.86   0.57    0.00    0.37
 2013 342    40    37   15.9    0.0   15.9   0.00   1.74   23.6   14.5    1.4    1.7   1.74   0.59    0.00    0.41
 2013 343    41    38   17.1    0.0   17.1   0.00   1.71   25.5   15.4    1.7    1.7   1.71   0.62    0.00    0.45
 2013 344    42    39   18.0    0.0   18.0   0.00   1.67   27.0   16.0    2.0    1.7   1.67   0.61    0.00    0.50
 2013 345    43    40   18.6    0.0   18.6   0.00   1.60   27.9   16.3    2.3    1.6   1.60   0.58    0.00    0.55
 2013 346    44    41   19.0    0.0   19.0   0.00   1.56   28.6   16.5    2.5    1.6   1.56   0.57    0.00    0.60
 2013 347    45    42   19.3    0.0   19.3   0.00   1.54   29.1   16.6    2.7    1.5   1.54   0.57    0.00    0.66
 2013 348    46    43   19.6    0.0   19.6   0.00   1.51   29.5   16.7    2.9    1.5   1.51   0.57    0.00    0.71
 2013 349    47    44   19.8    0.0   19.8   0.00   1.48   29.8   16.7    3.1    1.5   1.48   0.57    0.00    0.77
 2013 350    48    45   20.0    0.0   20.0   0.00   1.41   30.1   16.5    3.5    1.4   1.41   0.57    0.00    0.82
 2013 351    49    46   20.1    0.0   20.1   0.00   1.37   30.3   16.3    3.8    1.4   1.37   0.58    0.00    0.88
 2013 352    50    47   20.3    0.0   20.3   0.00   1.34   30.5   16.1    4.2    1.3   1.34   0.58    0.00    0.93
 2013 353    51    48   20.5    0.0   20.5   0.00   1.32   30.8   16.0    4.4    1.3   1.32   0.58    0.00    0.99
 2013 354    52    49   20.9    0.0   20.9   0.00   1.31   31.4   16.0    4.8    1.3   1.31   0.59    0.00    1.05
 2013 355    53    50   21.5    0.0   21.5   0.00   1.32   32.3   16.3    5.2    1.3   1.32   0.60    0.00    1.11
 2013 356    54    51   22.3    0.0   22.3   0.00   1.33   33.5   16.5    5.8    1.3   1.33   0.62    0.00    1.17
 2013 357    55    52   23.3    0.0   23.3   0.00   1.33   34.8   16.8    6.5    1.3   1.33   0.63    0.00    1.23
 2013 358    56    53   24.3    0.0   24.3   0.00   1.34   36.2   17.1    7.2    1.3   1.34   0.65    0.00    1.29
 2013 359    57    54   25.3    0.0   25.3   0.00   1.34   37.5   17.3    8.0    1.3   1.34   0.67    0.00    1.36
 2013 360    58    55   26.2    0.0   26.2   0.00   1.33   38.8   17.4    8.8    1.3   1.33   0.68    0.00    1.42
 2013 361    59    56   27.0    0.0   27.0   0.00   1.33   39.9   17.6    9.4    1.3   1.33   0.70    0.00    1.49
 2013 362    60    57   27.7    0.0   27.7   0.00   1.46   40.9   19.0    8.8    1.5   1.46   0.71    0.00    1.56
 2013 363    61    58   28.3    0.0   28.3   0.00   1.49   41.7   19.1    9.2    1.5   1.49   0.73    0.00    1.63
 2013 364    62    59   28.9    0.0   28.9   0.00   1.52   42.5   19.3    9.6    1.5   1.52   0.74    0.00    1.70
 2013 365    63    60   29.3    0.0   29.3   0.00   1.55   43.1   19.3   10.0    1.6   1.55   0.75    0.00    1.78
 2014 001    64    61   30.4    0.0   30.4   0.00   1.62   44.7   19.7   10.7    1.6   1.62   0.78    0.00    1.85
 2014 002    65    62   31.4    0.0   31.4   0.00   1.66   46.3   19.9   11.5    1.7   1.66   0.81    0.00    1.93
 2014 003    66    63   32.6    0.0   32.6   0.00   1.70   48.2   19.9   12.7    1.7   1.70   0.83    0.00    2.01
 2014 004    67    64   33.6    0.0   33.6   0.00   1.71   49.8   19.6   14.0    1.7   1.71   0.85    0.00    2.09
 2014 005    68    65   34.5    0.0   34.5   0.00   1.70   51.1   19.1   15.4    1.7   1.70   0.87    0.00    2.18
 2014 006    69    66   35.3    0.0   35.3   0.00   1.70   52.5   18.6   16.8    1.7   1.70   0.89    0.00    2.27
 2014 007    70    67   35.8    0.0   35.8   0.00   1.73   53.3   18.3   17.5    1.7   1.73   0.91    0.00    2.36
 2014 008    71    68   36.1    1.8   34.3   1.64   1.65   53.8   17.6   16.7    1.7   1.65   0.90    0.00    2.45
 2014 009    72    69   36.4    3.7   32.7   1.61   1.58   54.3   16.8   16.0    1.6   1.58   0.90    0.00    2.54
 2014 010    73    70   36.6    5.5   31.1   1.59   1.50   54.6   15.9   15.2    1.5   1.50   0.90    0.00    2.64
 2014 011    74    71   36.8    6.7   30.1   1.57   1.45   54.9   15.4   14.7    1.5   1.45   0.89    0.00    2.73
 2014 012    75    72   36.9    7.6   29.3   1.55   1.41   55.1   15.0   14.3    1.4   1.41   0.88    0.00    2.83
 2014 013    76    73   37.1    9.1   28.0   1.53   1.35   55.4   14.4   13.7    1.4   1.35   0.87    0.00    2.92
 2014 014    77    74   37.3   10.7   26.6   1.51   1.28   55.7   13.6   13.0    1.3   1.28   0.87    0.00    3.02
 2014 015    78    75   37.5   12.3   25.3   1.48   1.22   56.0   12.9   12.3    1.2   1.22   0.86    0.00    3.11
 2014 016    79    76   37.8   13.8   24.0   1.46   1.16   56.3   12.3   11.7    1.2   1.16   0.85    0.00    3.21
 2014 017    80    77   38.0   15.3   22.7   1.44   1.09   56.7   11.6   11.1    1.1   1.09   0.85    0.00    3.31
 2014 018    81    78   38.2   16.8   21.4   1.42   1.04   57.0   11.0   10.5    1.0   1.04   0.85    0.00    3.41
 2014 019    82    79   38.5   18.1   20.4   1.40   0.98   57.4   10.4    9.9    1.0   0.98   0.85    0.00    3.51
 2014 020    83    80   38.8   19.4   19.4   1.37   0.94   57.9    9.9    9.5    0.9   0.94   0.85    0.00    3.60
 2014 021    84    81   39.2   20.6   18.6   1.35   0.91   58.4    9.6    8.9    0.9   0.91   0.86    0.00    3.70
 2014 022    85    82   39.4   21.9   17.6   1.33   0.85   58.7    9.0    8.6    0.8   0.85   0.87    0.00    3.80
 2014 023    86    83   39.5   23.1   16.4   1.31   0.79   58.8    8.4    8.0    0.8   0.79   0.87    0.00    3.90
 2014 024    87    84   39.5   23.8   15.6   1.29   0.77   58.8    8.1    7.5    0.8   0.77   0.87    0.00    4.01
 2014 025    88    85   39.5   24.3   15.1   1.28   0.73   58.8    7.8    7.4    0.7   0.73   0.87    0.00    4.11
 2014 026    89    86   39.5   25.1   14.4   1.26   0.69   58.8    7.4    7.0    0.7   0.69   0.87    0.00    4.21
 2014 027    90    87   39.5   26.0   13.5   1.23   0.67   58.9    7.1    6.4    0.7   0.67   0.87    0.00    4.31
 2014 028    91    88   39.7   26.8   12.8   1.20   0.66   59.1    7.1    5.8    0.7   0.66   0.88    0.00    4.41
 2014 029    92    89   39.7   27.7   12.1   1.18   0.65   59.2    6.9    5.1    0.7   0.65   0.88    0.00    4.51
 2014 030    93    90   39.9   28.5   11.4   1.15   0.64   59.4    6.8    4.6    0.6   0.64   0.89    0.00    4.61
 2014 031    94    91   40.3   29.3   11.0   1.13   0.63   59.7    6.6    4.4    0.6   0.63   0.89    0.00    4.71
 2014 032    95    92   40.6   30.1   10.5   1.12   0.63   60.0    6.7    3.9    0.6   0.63   0.89    0.00    4.81
 2014 033    96    93   40.8   30.8   10.0   1.10   0.62   60.0    6.6    3.4    0.6   0.62   0.89    0.00    4.91
 2014 034    97    94   40.9   31.0    9.8   1.09   0.63   60.1    6.7    3.1    0.6   0.63   0.90    0.00    5.01
 2014 035    98    95   40.9   31.5    9.4   1.09   0.60   60.2    6.4    3.0    0.6   0.60   0.90    0.00    5.11
 2014 036    99    96   41.1   32.0    9.1   1.08   0.58   60.4    6.2    2.9    0.6   0.58   0.91    0.00    5.21
 2014 037   100    97   41.1   32.2    9.0   1.07   0.57   60.5    6.1    2.9    0.6   0.57   0.91    0.00    5.31
 2014 038   101    98   41.2   32.3    8.8   1.07   0.57   60.5    6.0    2.8    0.6   0.57   0.92    0.00    5.41
 2014 039   102    99   41.2   32.7    8.5   1.06   0.54   60.6    5.8    2.7    0.5   0.54   0.92    0.00    5.51
 2014 040   103   100   41.2   32.9    8.3   1.06   0.53   60.6    5.7    2.7    0.5   0.53   0.93    0.00    5.61
 2014 041   104   101   41.3   33.1    8.2   1.05   0.52   60.7    5.6    2.6    0.5   0.52   0.93    0.00    5.71
 2014 042   105   102   41.3   33.3    8.0   1.05   0.51   60.7    5.5    2.6    0.5   0.51   0.94    0.00    5.81
 2014 043   106   103   41.3   33.3    8.0   1.05   0.51   60.8    5.5    2.6    0.5   0.51   0.94    0.00    5.81
 2014 044   107   104   41.3   33.3    8.0   1.05   0.51   60.9    5.5    2.6    0.5   0.51   0.94    0.00    5.81
 2014 045   108   105   41.3   33.3    8.0   1.05   0.51   60.9    5.5    2.6    0.5   0.51   0.94    0.00    5.81
 2014 046   109   106   41.3   33.3    8.0   1.05   0.51   61.0    5.5    2.6    0.5   0.51   0.94    0.00    5.81
 2014 047   110   107   41.3   33.3    8.0   1.05   0.51   61.0    5.5    2.6    0.5   0.51   0.94    0.00    5.81
