*GROWTH ASPECTS OUTPUT FILE

*DSSAT Cropping System Model Ver. 4.0.2.000               Aug 16, 2016; 17:55:43

*RUN   1        : UYMZ                    
 MODEL          : MZCER040 - Maize           
 EXPERIMENT     : UYMZ0214 MZ    late to create DSS                             
 TREATMENT  1   : UYMZ                    

@YEAR DOY   DAS   DAP   L#SD   GSTD   LAID   LWAD   SWAD   GWAD   RWAD   CWAD   G#AD   GWGD   HIAD   PWAD   P#AD   WSPD   WSGD   NSTD   EWSD   LN%D   SH%D   HIPD   PWDD   PWTD     SLAD   CHTD   CWID   RDPD   RL1D   RL2D   RL3D   RL4D   RL5D   RL6D   RL7D   RL8D   RL9D   RL10   CDAD   LDAD   SDAD   SNW0C   SNW1C
 2000 305     3     0    0.0      0   0.00      0      0      0      0      0      0    0.0  0.000      0      0  0.000  0.000  0.000  0.000   0.00   0.00   0.00      0      0      0.0   0.00   0.00   0.03   0.00   0.00   0.00   0.00   0.00   0.00   0.00   0.00   0.00   0.00      0      0      0       0       0
 2000 306     4     1    0.0      0   0.00      0      0      0      0      0      0    0.0  0.000      0      0  0.000  0.000  0.000  0.000   0.00   0.00   0.00      0      0      0.0   0.00   0.00   0.04   0.00   0.00   0.00   0.00   0.00   0.00   0.00   0.00   0.00   0.00      0      0      0       0       0
 2000 307     5     2    0.0      0   0.00      0      0      0      0      0      0    0.0  0.000      0      0  0.000  0.000  0.000  0.000   0.00   0.00   0.00      0      0      0.0   0.00   0.00   0.06   0.00   0.00   0.00   0.00   0.00   0.00   0.00   0.00   0.00   0.00      0      0      0       0       0
 2000 308     6     3    0.0      0   0.00      0      0      0      0      0      0    0.0  0.000      0      0  0.000  0.000  0.000  0.000   0.00   0.00   0.00      0      0      0.0   0.00   0.00   0.07   0.00   0.00   0.00   0.00   0.00   0.00   0.00   0.00   0.00   0.00      0      0      0       0       0
 2000 309     7     4    0.0      0   0.00      0      0      0      0      0      0    0.0  0.000      0      0  0.000  0.000  0.000  0.000   0.00   0.00   0.00      0      0      0.0   0.00   0.00   0.08   0.00   0.00   0.00   0.00   0.00   0.00   0.00   0.00   0.00   0.00      0      0      0       0       0
 2000 310     8     5    0.0      0   0.00      0      0      0      0      0      0    0.0  0.000      0      0  0.000  0.000  0.000  0.000   0.00   0.00   0.00      0      0      0.0   0.00   0.00   0.10   0.00   0.00   0.00   0.00   0.00   0.00   0.00   0.00   0.00   0.00      0      0      0       0       0
 2000 311     9     6    0.0      0   0.00      0      0      0      0      0      0    0.0  0.000      0      0  0.000  0.000  0.000  0.000   0.00   0.00   0.00      0      0      0.0   0.00   0.00   0.12   0.00   0.00   0.00   0.00   0.00   0.00   0.00   0.00   0.00   0.00      0      0      0       0       0
 2000 312    10     7    0.0      0   0.00      0      0      0      0      0      0    0.0  0.000      0      0  0.000  0.000  0.000  0.000   0.00   0.00   0.00      0      0      0.0   0.00   0.00   0.13   0.00   0.00   0.00   0.00   0.00   0.00   0.00   0.00   0.00   0.00      0      0      0       0       0
 2000 313    11     8    1.0      1   0.00     14     14      0     14     28      0    0.0  0.000      0      0  0.000  0.000  0.012  0.000   4.40   0.00   0.00      0      0     20.3   0.00   0.00   0.14   0.28   0.12   0.00   0.00   0.00   0.00   0.00   0.00   0.00   0.00      0      0      0       0       0
 2000 314    12     9    2.0      1   0.01     14     14      0     15     28      0    0.0  0.000      0      0  0.000  0.000  0.011  0.000   4.49   0.00   0.00      0      0     37.0   0.00   0.00   0.15   0.28   0.13   0.00   0.00   0.00   0.00   0.00   0.00   0.00   0.00      0      0      0       0       0
 2000 315    13    10    2.0      1   0.01     14     14      0     15     28      0    0.0  0.000      0      0  0.000  0.000  0.000  0.000   4.46   0.00   0.00      0      0     52.9   0.00   0.00   0.16   0.28   0.14   0.00   0.00   0.00   0.00   0.00   0.00   0.00   0.00      0      0      0       0       0
 2000 316    14    11    3.0      1   0.01     14     14      0     17     28      0    0.0  0.000      0      0  0.000  0.000  0.000  0.000   4.41   0.00   0.00      0      0     78.2   0.00   0.00   0.17   0.28   0.17   0.00   0.00   0.00   0.00   0.00   0.00   0.00   0.00      0      0      0       0       0
 2000 317    15    12    3.0      1   0.01     14     14      0     19     28      0    0.0  0.000      0      0  0.000  0.000  0.000  0.000   4.37   0.00   0.00      0      0    100.7   0.00   0.00   0.17   0.28   0.20   0.00   0.00   0.00   0.00   0.00   0.00   0.00   0.00      0      0      0       0       0
 2000 318    16    13    3.0      1   0.02     14     14      0     23     28      0    0.0  0.000      0      0  0.000  0.000  0.000  0.000   4.34   0.00   0.00      0      0    121.2   0.00   0.00   0.18   0.28   0.26   0.01   0.00   0.00   0.00   0.00   0.00   0.00   0.00      0      0      0       0       0
 2000 319    17    14    3.0      1   0.02     14     14      0     25     28      0    0.0  0.000      0      0  0.000  0.000  0.000  0.000   4.32   0.00   0.00      0      0    133.1   0.00   0.00   0.18   0.27   0.31   0.01   0.00   0.00   0.00   0.00   0.00   0.00   0.00      0      0      0       0       0
 2000 320    18    15    3.0      1   0.02     14     14      0     29     28      0    0.0  0.000      0      0  0.000  0.000  0.000  0.000   4.30   0.00   0.00      0      0    145.0   0.00   0.00   0.19   0.27   0.37   0.02   0.00   0.00   0.00   0.00   0.00   0.00   0.00      0      0      0       0       1
 2000 321    19    16    4.0      1   0.03     14     14      0     34     28      0    0.0  0.000      0      0  0.000  0.000  0.000  0.000   4.27   0.00   0.00      0      0    216.6   0.00   0.00   0.19   0.27   0.45   0.03   0.00   0.00   0.00   0.00   0.00   0.00   0.00      0      0      0       0       1
 2000 322    20    17    4.0      1   0.05     14     14      0     42     28      0    0.0  0.000      0      0  0.000  0.000  0.000  0.000   4.22   0.00   0.00      0      0    341.4   0.00   0.00   0.20   0.27   0.58   0.05   0.00   0.00   0.00   0.00   0.00   0.00   0.00      0      0      0       0       1
 2000 323    21    18    5.0      1   0.07     22     14      0     50     36      0    0.0  0.000      0      0  0.000  0.000  0.000  0.000   3.22   0.00   0.00      0      0    312.3   0.00   0.00   0.21   0.27   0.70   0.08   0.00   0.00   0.00   0.00   0.00   0.00   0.00      0      0      0       0       1
 2000 324    22    19    5.0      1   0.08     29     14      0     54     43      0    0.0  0.000      0      0  0.000  0.000  0.000  0.000   3.53   0.00   0.00      0      0    297.1   0.00   0.00   0.22   0.26   0.76   0.09   0.00   0.00   0.00   0.00   0.00   0.00   0.00      0      0      0       0       1
 2000 325    23    20    5.0      1   0.10     35     14      0     73     49      0    0.0  0.000      0      0  0.000  0.000  0.000  0.000   3.58   0.00   0.00      0      0    285.4   0.00   0.00   0.23   0.33   1.00   0.15   0.00   0.00   0.00   0.00   0.00   0.00   0.00      0      0      0       0       2
 2000 326    24    21    5.0      1   0.12     44     14      0     89     58      0    0.0  0.000      0      0  0.000  0.000  0.000  0.000   3.41   0.00   0.00      0      0    271.8   0.00   0.00   0.23   0.33   1.23   0.21   0.00   0.00   0.00   0.00   0.00   0.00   0.00      0      0      0       0       2
 2000 327    25    22    6.0      1   0.15     57     14      0    101     71      0    0.0  0.000      0      0  0.000  0.000  0.000  0.000   3.29   0.00   0.00      0      0    257.9   0.00   0.00   0.24   0.32   1.39   0.26   0.00   0.00   0.00   0.00   0.00   0.00   0.00      0      0      0       0       2
 2000 328    26    23    6.0      1   0.19     76     14      0    117     90      0    0.0  0.000      0      0  0.000  0.000  0.000  0.000   3.11   0.00   0.00      0      0    242.9   0.00   0.00   0.26   0.32   1.58   0.34   0.00   0.00   0.00   0.00   0.00   0.00   0.00      0      0      0       0       3
 2000 329    27    24    6.0      1   0.20     86     14      0    157    100      0    0.0  0.000      0      0  0.000  0.000  0.000  0.000   3.57   0.00   0.00      0      0    237.1   0.00   0.00   0.26   0.33   2.04   0.56   0.00   0.00   0.00   0.00   0.00   0.00   0.00      0      0      0       0       4
 2000 330    28    25    7.0      1   0.23     99     14      0    198    113      0    0.0  0.000      0      0  0.000  0.000  0.000  0.000   3.45   0.00   0.00      0      0    230.2   0.00   0.00   0.27   0.33   2.48   0.80   0.00   0.00   0.00   0.00   0.00   0.00   0.00      0      0      0       0       4
 2000 331    29    26    7.0      2   0.27    115     14      0    237    129      0    0.0  0.000      0      0  0.000  0.000  0.000  0.000   3.40   0.00   0.00      0      0    238.6   0.00   0.00   0.28   0.33   2.88   1.04   0.00   0.00   0.00   0.00   0.00   0.00   0.00      0      0      0       0       5
 2000 332    30    27    7.0      2   0.33    148     14      0    285    162      0    0.0  0.000      0      0  0.000  0.000  0.004  0.000   3.10   0.00   0.00      0      0    226.5   0.00   0.00   0.30   0.32   3.33   1.36   0.00   0.00   0.00   0.00   0.00   0.00   0.00      0      0      0       0       6
 2000 333    31    28    8.0      2   0.38    174     14      0    310    188      0    0.0  0.000      0      0  0.000  0.000  0.000  0.000   3.28   0.00   0.00      0      0    218.8   0.00   0.00   0.32   0.32   3.55   1.54   0.00   0.00   0.00   0.00   0.00   0.00   0.00      0      0      0       0       8
 2000 334    32    29    8.0      2   0.42    197     14      0    389    211      0    0.0  0.000      0      0  0.000  0.000  0.000  0.000   3.77   0.00   0.00      0      0    213.3   0.00   0.00   0.33   0.32   4.00   2.06   0.07   0.00   0.00   0.00   0.00   0.00   0.00      0      0      0       0       9
 2000 335    33    30    8.0      3   0.46    225     14      0    471    239      0    0.0  0.000      0      0  0.000  0.000  0.022  0.000   3.68   0.00   0.00      0      0    206.4   0.00   0.00   0.34   0.32   4.00   2.59   0.18   0.00   0.00   0.00   0.00   0.00   0.00      0      0      0       0      11
 2000 336    34    31    8.0      3   0.52    260     14      0    560    274      0    0.0  0.000      0      0  0.000  0.000  0.022  0.000   3.56   0.00   0.00      0      0    200.5   0.00   0.00   0.35   0.32   4.00   3.15   0.35   0.00   0.00   0.00   0.00   0.00   0.00      0      0      0       0      14
 2000 337    35    32    9.0      3   0.59    302     15      0    650    317      0    0.0  0.000      0      0  0.000  0.000  0.022  0.000   3.51   0.00   0.00      0      0    194.6   0.00   0.00   0.37   0.31   4.00   3.70   0.56   0.00   0.00   0.00   0.00   0.00   0.00      0      0      0       0      17
 2000 338    36    33    9.0      3   0.64    335     16      0    693    351      0    0.0  0.000      0      0  0.000  0.000  0.022  0.000   3.47   0.00   0.00      0      0    190.4   0.00   0.00   0.38   0.31   4.00   3.96   0.69   0.00   0.00   0.00   0.00   0.00   0.00      0      0      0       0      20
 2000 339    37    34    9.0      3   0.69    370     17      0    798    387      0    0.0  0.000      0      0  0.000  0.000  0.022  0.000   3.44   0.00   0.00      0      0    186.5   0.00   0.00   0.39   0.31   4.00   4.00   1.01   0.00   0.00   0.00   0.00   0.00   0.00      0      0      0       0      23
 2000 340    38    35   10.0      3   0.75    414     20      0    917    434      0    0.0  0.000      0      0  0.000  0.000  0.022  0.000   3.40   0.00   0.00      0      0    182.3   0.00   0.00   0.41   0.31   4.00   4.00   1.42   0.00   0.00   0.00   0.00   0.00   0.00      0      0      0       0      27
 2000 341    39    36   10.0      3   0.87    493     26      0   1024    520      0    0.0  0.000      0      0  0.000  0.000  0.022  0.000   3.34   0.00   0.00      0      0    176.2   0.00   0.00   0.43   0.31   4.00   4.00   1.85   0.00   0.00   0.00   0.00   0.00   0.00      0      0      0       0      32
 2000 342    40    37   11.0      3   1.00    584     38      0   1085    622      0    0.0  0.000      0      0  0.000  0.000  0.022  0.000   3.28   0.00   0.00      0      0    170.4   0.00   0.00   0.45   0.30   4.00   4.00   2.12   0.00   0.00   0.00   0.00   0.00   0.00      0      0      0       0      37
 2000 343    41    38   11.0      3   1.12    674     54      0   1180    728      0    0.0  0.000      0      0  0.000  0.000  0.022  0.000   3.16   0.00   0.00      0      0    165.6   0.00   0.00   0.47   0.30   4.00   4.00   2.54   0.04   0.00   0.00   0.00   0.00   0.00      0      0      0       0      42
 2000 344    42    39   11.0      3   1.15    714     62      0   1293    776      0    0.0  0.000      0      0  0.301  0.534  0.022  0.000   3.14   0.00   0.00      0      0    161.4   0.00   0.00   0.48   0.30   4.00   4.00   3.03   0.12   0.00   0.00   0.00   0.00   0.00      0      0      0       0      48
 2000 345    43    40   12.0      3   1.19    757     73      0   1372    830      0    0.0  0.000      0      0  0.304  0.536  0.022  0.000   3.18   0.00   0.00      0      0    157.4   0.00   0.00   0.50   0.32   4.00   4.00   3.37   0.20   0.00   0.00   0.00   0.00   0.00      0      0      0       0      55
 2000 346    44    41   12.0      3   1.23    808     89      0   1451    897      0    0.0  0.000      0      0  0.397  0.598  0.022  0.000   3.12   0.00   0.00      0      0    152.7   0.00   0.00   0.51   0.32   4.00   4.00   3.75   0.32   0.00   0.00   0.00   0.00   0.00      0      0      0       0      62
 2000 347    45    42   12.0      3   1.26    854    107      0   1518    961      0    0.0  0.000      0      0  0.504  0.670  0.022  0.000   3.07   0.00   0.00      0      0    147.7   0.00   0.00   0.53   0.32   4.00   4.00   4.00   0.46   0.00   0.00   0.00   0.00   0.00      0      0      0       0      69
 2000 348    46    43   13.0      3   1.31    914    135      0   1551   1049      0    0.0  0.000      0      0  0.430  0.621  0.022  0.000   3.08   0.00   0.00      0      0    143.3   0.00   0.00   0.55   0.33   4.00   4.00   4.00   0.54   0.00   0.00   0.00   0.00   0.00      0      0      0       0      76
 2000 349    47    44   13.0      3   1.37    976    169      0   1633   1145      0    0.0  0.000      0      0  0.340  0.561  0.022  0.000   2.92   0.00   0.00      0      0    139.8   0.00   0.00   0.57   0.36   4.00   4.00   4.00   0.78   0.00   0.00   0.00   0.00   0.00      0      0      0       0      84
 2000 350    48    45   14.0      3   1.42   1026    199      0   1715   1225      0    0.0  0.000      0      0  0.073  0.383  0.022  0.000   2.85   0.00   0.00      0      0    138.6   0.00   0.00   0.58   0.40   4.00   4.00   4.00   1.07   0.00   0.00   0.00   0.00   0.00      0      0      0       0      92
 2000 351    49    46   14.0      3   1.49   1087    238      0   1893   1325      0    0.0  0.000      0      0  0.000  0.000  0.022  0.000   2.69   0.00   0.00      0      0    137.4   0.00   0.00   0.59   0.48   4.00   4.00   4.00   1.57   0.00   0.00   0.00   0.00   0.00      0      0      0       0     101
 2000 352    50    47   14.0      3   1.61   1187    309      0   2033   1495      0    0.0  0.000      0      0  0.000  0.000  0.022  0.000   2.44   0.00   0.00      0      0    135.8   0.00   0.00   0.60   0.55   4.00   4.00   4.00   1.95   0.00   0.00   0.00   0.00   0.00      0      0      0       0     110
 2000 353    51    48   14.0      3   1.63   1248    364      0   2058   1612      0    0.0  0.000      0      0  0.632  0.755  0.023  0.000   2.30   0.00   0.00      0      0    130.8   0.00   0.00   0.62   0.55   4.00   4.00   4.00   2.04   0.01   0.00   0.00   0.00   0.00      0      0      0       0     121
 2000 354    52    49   15.0      3   1.60   1273    397      0   2090   1669      0    0.0  0.000      0      0  0.718  0.813  0.034  0.000   2.25   0.00   0.00      0      0    125.9   0.00   0.00   0.62   0.55   4.00   4.00   4.00   2.16   0.02   0.00   0.00   0.00   0.00      0      0      0       0     131
 2000 355    53    50   15.0      3   1.56   1288    422      0   2127   1711      0    0.0  0.000      0      0  0.731  0.821  0.042  0.000   2.22   0.00   0.00      0      0    121.2   0.00   0.00   0.63   0.54   4.00   4.00   4.00   2.33   0.05   0.00   0.00   0.00   0.00      0      0      0       0     141
 2000 356    54    51   15.0      3   1.54   1314    470      0   2144   1784      0    0.0  0.000      0      0  0.653  0.769  0.044  0.000   2.15   0.00   0.00      0      0    117.2   0.00   0.00   0.64   0.54   4.00   3.99   4.00   2.47   0.09   0.00   0.00   0.00   0.00      0      0      0       0     152
 2000 357    55    52   16.0      3   1.51   1335    517      0   2167   1852      0    0.0  0.000      0      0  0.703  0.802  0.044  0.000   2.09   0.00   0.00      0      0    113.1   0.00   0.00   0.65   0.54   4.00   3.97   4.00   2.67   0.18   0.00   0.00   0.00   0.00      0      0      0       0     163
 2000 358    56    53   16.0      3   1.48   1351    556      0   2214   1906      0    0.0  0.000      0      0  0.574  0.717  0.047  0.000   2.06   0.00   0.00      0      0    109.9   0.00   0.00   0.65   0.53   4.00   3.96   3.98   3.04   0.37   0.00   0.00   0.00   0.00      0      0      0       0     174
 2000 359    57    54   16.0      3   1.46   1369    602      0   2276   1971      0    0.0  0.000      0      0  0.573  0.716  0.050  0.000   2.01   0.00   0.00      0      0    106.9   0.00   0.00   0.66   0.53   3.98   3.94   4.00   3.53   0.67   0.00   0.00   0.00   0.00      0      0      0       0     185
 2000 360    58    55   17.0      3   1.45   1397    683      0   2308   2080      0    0.0  0.000      0      0  0.597  0.732  0.049  0.000   1.93   0.00   0.00      0      0    103.9   0.00   0.00   0.68   0.53   3.96   3.92   3.98   3.79   0.88   0.00   0.00   0.00   0.00      0      0      0       0     196
 2000 361    59    56   17.0      3   1.46   1430    783      0   2304   2213      0    0.0  0.000      0      0  0.379  0.586  0.049  0.000   1.99   0.00   0.00      0      0    102.2   0.00   0.00   0.69   0.53   3.94   3.92   4.00   3.79   0.87   0.00   0.00   0.00   0.00      0      0      0       0     208
 2000 362    60    57   17.0      3   1.53   1495    996      0   2338   2491      0    0.0  0.000      0      0  0.000  0.000  0.041  0.000   1.89   0.00   0.00      0      0    102.3   0.00   0.00   0.71   0.54   3.94   4.00   4.00   3.94   0.90   0.00   0.00   0.00   0.00      0      0      0       0     219
 2000 363    61    58   18.0      3   1.59   1553   1192      0   2392   2745      0    0.0  0.000      0      0  0.000  0.000  0.038  0.000   1.80   0.00   0.00      0      0    102.3   0.00   0.00   0.72   0.58   3.96   4.00   4.00   4.00   0.97   0.00   0.00   0.00   0.00      0      0      0       0     231
 2000 364    62    59   18.0      3   1.64   1608   1378      0   2393   2985      0    0.0  0.000      0      0  0.000  0.000  0.046  0.000   1.73   0.00   0.00      0      0    102.1   0.00   0.00   0.73   0.59   3.95   3.98   4.00   4.00   0.98   0.00   0.00   0.00   0.00      0      0      0       0     243
 2000 365    63    60   18.0      3   1.68   1651   1523      0   2532   3173      0    0.0  0.000      0      0  0.000  0.000  0.054  0.000   1.68   0.00   0.00      0      0    101.8   0.00   0.00   0.74   0.58   4.00   4.00   4.00   4.00   1.21   0.00   0.00   0.00   0.00      0      0      0       0     255
 2000 366    64    61   18.0      3   1.73   1708   1715      0   2641   3424      0    0.0  0.000      0      0  0.000  0.000  0.061  0.000   1.60   0.00   0.00      0      0    101.4   0.00   0.00   0.75   0.58   4.00   4.00   4.00   4.00   1.42   0.00   0.00   0.00   0.00      0      0      0       0     267
 2001 001    65    62   18.0      3   1.80   1778   1946      0   2723   3724      0    0.0  0.000      0      0  0.000  0.000  0.065  0.000   1.51   0.00   0.00      0      0    101.0   0.00   0.00   0.77   0.58   4.00   4.00   4.00   4.00   1.61   0.00   0.00   0.00   0.00      0      0      0       0     281
 2001 002    66    63   18.0      3   1.86   1852   2190      0   2788   4043      0    0.0  0.000      0      0  0.000  0.000  0.073  0.000   1.41   0.00   0.00      0      0    100.4   0.00   0.00   0.78   0.57   4.00   4.00   4.00   4.00   1.79   0.00   0.00   0.00   0.00      0      0      0       0     294
 2001 003    67    64   18.0      4   1.84   1831   1913      0   2857   4330      0    0.0  0.000    586      0  0.000  0.000  0.085  0.000   1.55   0.00   0.14      0    586    100.5   0.00   0.00   0.80   0.57   4.00   4.00   4.00   4.00   2.01   0.00   0.00   0.00   0.00      0      0      0       0     308
 2001 004    68    65   18.0      4   1.82   1807   2007      0   2920   4637      0    0.0  0.000    823      0  0.000  0.000  0.097  0.000   1.54   0.00   0.18      0    823    100.6   0.00   0.00   0.82   0.78   4.00   4.00   4.00   4.00   2.22   0.00   0.00   0.00   0.00      0      0      0       0     322
 2001 005    69    66   18.0      4   1.80   1781   2111      0   2966   4975      0    0.0  0.000   1082      0  0.000  0.000  0.069  0.000   1.52   0.00   0.22      0   1082    101.2   0.00   0.00   0.82   0.78   4.00   4.00   4.00   4.00   2.39   0.00   0.00   0.00   0.00      0      0      0       0     337
 2001 006    70    67   18.0      4   1.79   1753   2184      0   2962   5203      0    0.0  0.000   1265      0  0.000  0.000  0.066  0.000   1.52   0.00   0.24      0   1265    102.0   0.00   0.00   0.82   0.82   4.00   4.00   4.00   4.00   2.41   0.00   0.00   0.00   0.00      0      0      0       0     352
 2001 007    71    68   18.0      4   1.77   1723   2242      0   2956   5373      0    0.0  0.000   1409      0  0.000  0.000  0.064  0.000   1.52   0.00   0.26      0   1409    102.9   0.00   0.00   0.82   0.86   4.00   4.00   3.99   3.99   2.41   0.00   0.00   0.00   0.00      0      0      0       0     367
 2001 008    72    69   18.0      4   1.76   1692   2324      0   2965   5628      0    0.0  0.000   1613      0  0.000  0.069  0.061  0.000   1.51   0.00   0.29      0   1613    104.1   0.00   0.00   0.82   0.99   4.00   4.00   4.00   4.00   2.43   0.00   0.00   0.00   0.00      0      0      0       0     381
 2001 009    73    70   18.0      4   1.74   1658   2369      0   3063   5753      0    0.0  0.000   1726      0  0.276  0.518  0.058  0.000   1.52   0.00   0.30      0   1726    104.7   0.00   0.00   0.82   1.59   4.00   4.00   4.00   4.00   2.54   0.00   0.00   0.00   0.00      0      0      0       0     396
 2001 010    74    71   18.0      4   1.72   1624   2434      0   3058   5946      0    0.0  0.000   1888      0  0.000  0.000  0.056  0.000   1.51   0.00   0.32      0   1888    106.1   0.00   0.00   0.82   1.63   4.00   4.00   4.00   4.00   2.54   0.00   0.00   0.00   0.00      0      0      0       0     412
 2001 011    75    72   18.0      4   1.71   1588   2487      0   3193   6098      0    0.0  0.000   2023      0  0.000  0.000  0.053  0.000   1.51   0.00   0.33      0   2023    107.8   0.00   0.00   0.82   2.44   4.00   4.00   4.00   4.00   2.69   0.00   0.00   0.00   0.00      0      0      0       0     427
 2001 012    76    73   18.0      4   1.70   1552   2544      0   3324   6259      0    0.0  0.000   2163      0  0.000  0.000  0.052  0.000   1.51   0.00   0.35      0   2163    109.6   0.00   0.00   0.82   2.43   4.00   4.00   4.00   4.00   2.86   0.00   0.00   0.00   0.00      0      0      0       0     443
 2001 013    77    74   18.0      4   1.69   1514   2613      0   3417   6462      0    0.0  0.000   2336      0  0.000  0.000  0.049  0.000   1.50   0.00   0.36      0   2336    111.7   0.00   0.00   0.82   2.41   4.00   4.00   4.00   4.00   2.98   0.00   0.00   0.00   0.00      0      0      0       0     459
 2001 014    78    75   18.0      5   1.67   1514   2613    250   3451   6712   2524    9.9  0.037   2586      7  0.000  0.248  0.085  0.000   1.42   9.68   0.39      0   2586    110.5   0.00   0.00   0.82   2.40   4.00   4.00   4.00   4.00   3.03   0.00   0.00   0.00   0.00      0      0      0       0     476
 2001 015    79    76   18.0      5   1.63   1514   2613    388   3457   6850   2524   15.4  0.057   2724      7  0.494  0.663  0.111  0.000   1.37  14.25   0.40      0   2724    107.8   0.00   0.00   0.82   2.39   4.00   4.00   4.00   4.00   3.05   0.00   0.00   0.00   0.00      0      0      0       0     494
 2001 016    80    77   18.0      5   1.58   1514   2613    509   3452   6971   2524   20.2  0.073   2845      7  0.657  0.772  0.117  0.000   1.34  17.89   0.41      0   2845    104.2   0.00   0.00   0.82   2.38   4.00   4.00   4.00   4.00   3.05   0.00   0.00   0.00   0.00      0      0      0       0     511
 2001 017    81    78   18.0      5   1.53   1514   2613    634   3437   7096   2524   25.1  0.089   2970      7  0.617  0.745  0.121  0.000   1.30  21.35   0.42      0   2970    101.0   0.00   0.00   0.82   2.38   3.99   3.99   3.98   3.98   3.03   0.00   0.00   0.00   0.00      0      0      0       0     528
 2001 018    82    79   18.0      5   1.50   1514   2565    818   3420   7233   2524   32.4  0.113   3154      7  0.000  0.000  0.128  0.000   1.26  25.94   0.44      0   3154     99.4   0.00   0.00   0.82   2.38   3.99   3.99   3.98   3.98   3.03   0.00   0.00   0.00   0.00      0      0      0       0     545
 2001 019    83    80   18.0      5   1.48   1514   2613    943   3474   7404   2524   37.3  0.127   3278      7  0.000  0.000  0.139  0.000   1.22  28.75   0.44      0   3278     97.7   0.00   0.00   0.82   2.75   4.00   4.00   4.00   4.00   3.09   0.00   0.00   0.00   0.00      0      0      0       0     563
 2001 020    84    81   18.0      5   1.45   1514   2613   1070   3526   7532   2524   42.4  0.142   3406      7  0.000  0.000  0.140  0.000   1.19  31.43   0.45      0   3406     96.0   0.00   0.00   0.82   3.11   4.00   4.00   4.00   4.00   3.15   0.00   0.00   0.00   0.00      0      0      0       0     580
 2001 021    85    82   18.0      5   1.43   1514   2613   1231   3553   7693   2524   48.8  0.160   3567      7  0.000  0.000  0.150  0.000   1.14  34.52   0.46      0   3567     94.2   0.00   0.00   0.82   3.10   4.00   4.00   4.00   4.00   3.19   0.00   0.00   0.00   0.00      0      0      0       0     598
 2001 022    86    83   18.0      5   1.40   1514   2613   1421   3579   7882   2524   56.3  0.180   3756      7  0.000  0.000  0.158  0.000   1.10  37.82   0.48      0   3756     92.3   0.00   0.00   0.82   3.08   4.00   4.00   4.00   4.00   3.23   0.00   0.00   0.00   0.00      0      0      0       0     615
 2001 023    87    84   18.0      5   1.37   1514   2613   1610   3606   8072   2524   63.8  0.199   3946      7  0.000  0.000  0.168  0.000   1.05  40.80   0.49      0   3946     90.4   0.00   0.00   0.82   3.06   4.00   4.00   4.00   4.00   3.27   0.00   0.00   0.00   0.00      0      0      0       0     633
 2001 024    88    85   18.0      5   1.34   1514   2613   1799   3619   8261   2524   71.3  0.218   4135      7  0.000  0.000  0.179  0.000   1.00  43.51   0.50      0   4135     88.3   0.00   0.00   0.82   3.21   4.00   4.00   4.00   4.00   3.29   0.00   0.00   0.00   0.00      0      0      0       0     651
 2001 025    89    86   18.0      5   1.31   1514   2613   1988   3621   8450   2524   78.8  0.235   4324      7  0.000  0.000  0.190  0.000   0.96  45.99   0.51      0   4324     86.2   0.00   0.00   0.82   3.31   4.00   4.00   4.00   4.00   3.29   0.00   0.00   0.00   0.00      0      0      0       0     669
 2001 026    90    87   18.0      5   1.27   1514   2613   2178   3621   8640   2524   86.3  0.252   4513      7  0.000  0.000  0.203  0.000   0.92  48.25   0.52      0   4513     84.1   0.00   0.00   0.82   3.39   4.00   4.00   4.00   4.00   3.29   0.00   0.00   0.00   0.00      0      0      0       0     687
 2001 027    91    88   18.0      5   1.24   1514   2613   2367   3605   8829   2524   93.8  0.268   4703      7  0.000  0.000  0.238  0.000   0.88  50.33   0.53      0   4703     81.8   0.00   0.00   0.82   3.38   3.99   3.98   3.98   3.98   3.28   0.00   0.00   0.00   0.00      0      0      0       0     706
 2001 028    92    89   18.0      5   1.20   1514   2613   2556   3603   9018   2524  101.3  0.283   4892      7  0.000  0.000  0.274  0.000   0.84  52.26   0.54      0   4892     79.5   0.00   0.00   0.82   3.45   4.00   4.00   3.99   3.99   3.28   0.00   0.00   0.00   0.00      0      0      0       0     724
 2001 029    93    90   18.0      5   1.17   1514   2613   2694   3620   9156   2524  106.7  0.294   5030      7  0.000  0.000  0.314  0.000   0.81  53.56   0.55      0   5030     77.2   0.00   0.00   0.82   3.43   4.00   4.00   4.00   4.00   3.31   0.00   0.00   0.00   0.00      0      0      0       0     742
 2001 030    94    91   18.0      5   1.13   1514   2613   2850   3630   9312   2524  112.9  0.306   5186      7  0.000  0.000  0.337  0.000   0.79  54.96   0.56      0   5186     74.8   0.00   0.00   0.82   3.41   4.00   4.00   4.00   4.00   3.33   0.00   0.00   0.00   0.00      0      0      0       0     760
 2001 031    95    92   18.0      5   1.10   1514   2613   3040   3613   9502   2524  120.4  0.320   5375      7  0.000  0.000  0.364  0.000   0.75  56.55   0.57      0   5375     72.4   0.00   0.00   0.82   3.40   3.99   3.98   3.98   3.98   3.31   0.00   0.00   0.00   0.00      0      0      0       0     778
 2001 032    96    93   18.0      5   1.06   1514   2613   3229   3602   9691   2524  127.9  0.333   5565      7  0.000  0.000  0.399  0.000   0.72  58.03   0.57      0   5565     70.0   0.00   0.00   0.82   3.39   4.00   3.98   3.98   3.97   3.30   0.00   0.00   0.00   0.00      0      0      0       0     796
 2001 033    97    94   18.0      5   1.02   1514   2568   3418   3584   9836   2524  135.4  0.348   5754      7  0.000  0.000  0.435  0.000   0.70  59.41   0.59      0   5754     67.6   0.00   0.00   0.82   3.39   4.00   3.98   3.98   3.97   3.30   0.00   0.00   0.00   0.00      0      0      0       0     814
 2001 034    98    95   18.0      5   0.99   1514   2602   3541   3583   9993   2524  140.3  0.354   5877      7  0.000  0.000  0.473  0.000   0.67  60.26   0.59      0   5877     65.1   0.00   0.00   0.82   3.46   4.00   4.00   3.99   3.98   3.30   0.00   0.00   0.00   0.00      0      0      0       0     832
 2001 035    99    96   18.0      5   0.95   1514   2613   3698   3571  10160   2524  146.5  0.364   6034      7  0.000  0.000  0.481  0.000   0.65  61.29   0.59      0   6034     62.7   0.00   0.00   0.82   3.44   4.00   4.00   3.98   3.97   3.29   0.00   0.00   0.00   0.00      0      0      0       0     850
 2001 036   100    97   18.0      5   0.91   1514   2591   3888   3553  10328   2524  154.0  0.376   6223      7  0.000  0.000  0.517  0.000   0.62  62.47   0.60      0   6223     60.3   0.00   0.00   0.82   3.44   4.00   4.00   3.98   3.97   3.29   0.00   0.00   0.00   0.00      0      0      0       0     868
 2001 037   101    98   18.0      5   0.88   1514   2536   4077   3535  10462   2524  161.5  0.390   6413      7  0.000  0.000  0.555  0.000   0.61  63.58   0.61      0   6413     57.9   0.00   0.00   0.82   3.44   4.00   4.00   3.98   3.97   3.29   0.00   0.00   0.00   0.00      0      0      0       0     885
 2001 038   102    99   18.0      5   0.84   1514   2460   4266   3517  10576   2524  169.0  0.403   6602      7  0.000  0.000  0.581  0.000   0.60  64.62   0.62      0   6602     55.6   0.00   0.00   0.82   3.44   4.00   4.00   3.98   3.97   3.29   0.00   0.00   0.00   0.00      0      0      0       0     903
 2001 039   103   100   18.0      5   0.81   1514   2369   4456   3500  10674   2524  176.5  0.417   6791      7  0.000  0.000  0.597  0.000   0.59  65.61   0.64      0   6791     53.3   0.00   0.00   0.82   3.44   4.00   4.00   3.98   3.97   3.29   0.00   0.00   0.00   0.00      0      0      0       0     921
 2001 040   104   101   18.0      5   0.77   1514   2292   4645   3482  10786   2524  184.0  0.431   6981      7  0.000  0.000  0.605  0.000   0.58  66.54   0.65      0   6981     51.0   0.00   0.00   0.82   3.44   4.00   4.00   3.98   3.97   3.29   0.00   0.00   0.00   0.00      0      0      0       0     938
 2001 041   105   102   18.0      5   0.74   1514   2183   4829   3465  10862   2524  191.3  0.445   7165      7  0.000  0.000  0.607  0.000   0.58  67.40   0.66      0   7165     48.9   0.00   0.00   0.82   3.44   4.00   4.00   3.98   3.97   3.29   0.00   0.00   0.00   0.00      0      0      0       0     956
 2001 042   106   103   18.0      5   0.71   1514   2107   4937   3448  10893   2524  195.6  0.453   7272      7  0.000  0.000  0.612  0.000   0.58  67.88   0.67      0   7272     46.8   0.00   0.00   0.82   3.44   4.00   4.00   3.98   3.97   3.29   0.00   0.00   0.00   0.00      0      0      0       0     973
 2001 043   107   104   18.0      5   0.68   1514   2082   5068   3430  10999   2524  200.8  0.461   7403      7  0.000  0.000  0.598  0.000   0.57  68.45   0.67      0   7403     44.9   0.00   0.00   0.82   3.44   4.00   4.00   3.98   3.97   3.29   0.00   0.00   0.00   0.00      0      0      0       0     990
 2001 044   108   105   18.0      5   0.65   1514   2053   5199   3413  11101   2524  206.0  0.468   7535      7  0.000  0.000  0.606  0.000   0.56  69.00   0.68      0   7535     43.0   0.00   0.00   0.82   3.44   4.00   4.00   3.98   3.97   3.29   0.00   0.00   0.00   0.00      0      0      0       0    1007
 2001 045   109   106   18.0      5   0.62   1514   1931   5381   3396  11162   2524  213.2  0.482   7717      7  0.000  0.000  0.624  0.000   0.57  69.73   0.69      0   7717     41.2   0.00   0.00   0.82   3.44   4.00   4.00   3.98   3.97   3.29   0.00   0.00   0.00   0.00      0      0      0       0    1024
 2001 046   110   107   18.0      5   0.60   1514   1840   5559   3379  11249   2524  220.2  0.494   7895      7  0.000  0.000  0.633  0.000   0.57  70.42   0.70      0   7895     39.4   0.00   0.00   0.82   3.44   4.00   4.00   3.98   3.97   3.29   0.00   0.00   0.00   0.00      0      0      0       0    1041
 2001 047   111   108   18.0      5   0.57   1514   1734   5747   3362  11331   2524  227.7  0.507   8083      7  0.000  0.000  0.616  0.000   0.57  71.10   0.71      0   8083     37.7   0.00   0.00   0.82   3.44   4.00   4.00   3.98   3.97   3.29   0.00   0.00   0.00   0.00      0      0      0       0    1058
 2001 048   112   109   18.0      5   0.55   1514   1639   5936   3345  11424   2524  235.2  0.520   8272      7  0.000  0.000  0.609  0.000   0.57  71.76   0.72      0   8272     36.1   0.00   0.00   0.82   3.44   4.00   4.00   3.98   3.97   3.29   0.00   0.00   0.00   0.00      0      0      0       0    1075
 2001 049   113   110   18.0      5   0.52   1514   1551   6023   3329  11423   2524  238.6  0.527   8358      7  0.000  0.000  0.594  0.000   0.58  72.06   0.73      0   8358     34.6   0.00   0.00   0.82   3.44   4.00   4.00   3.98   3.97   3.29   0.00   0.00   0.00   0.00      0      0      0       0    1092
 2001 050   114   111   18.0      5   0.50   1514   1551   6110   3312  11510   2524  242.1  0.531   8446      7  0.000  0.000  0.573  0.000   0.57  72.35   0.73      0   8446     33.2   0.00   0.00   0.82   3.44   4.00   4.00   3.98   3.97   3.29   0.00   0.00   0.00   0.00      0      0      0       0    1108
 2001 051   115   112   18.0      5   0.50   1514   1551   6110   3312  11510   2524  242.1  0.531   8446      7  0.000  0.000  0.573  0.000   0.57  72.35   0.73      0   8446     33.2   0.00   0.00   0.82   3.44   4.00   4.00   3.98   3.97   3.29   0.00   0.00   0.00   0.00      0      0      0       0    1108
 2001 052   116   113   18.0      5   0.50   1514   1551   6110   3312  11510   2524  242.1  0.531   8446      7  0.000  0.000  0.573  0.000   0.57  72.35   0.73      0   8446     33.2   0.00   0.00   0.82   3.44   4.00   4.00   3.98   3.97   3.29   0.00   0.00   0.00   0.00      0      0      0       0    1108
 2001 053   117   114   18.0      5   0.50   1514   1551   6110   3312  11510   2524  242.1  0.531   8446      7  0.000  0.000  0.573  0.000   0.57  72.35   0.73      0   8446     33.2   0.00   0.00   0.82   3.44   4.00   4.00   3.98   3.97   3.29   0.00   0.00   0.00   0.00      0      0      0       0    1108

*DSSAT Cropping System Model Ver. 4.0.2.000               Aug 16, 2016; 17:55:43

*RUN   2        : UYMZ                    
 MODEL          : MZCER040 - Maize           
 EXPERIMENT     : UYMZ0214 MZ    late to create DSS                             
 TREATMENT  1   : UYMZ                    

@YEAR DOY   DAS   DAP   L#SD   GSTD   LAID   LWAD   SWAD   GWAD   RWAD   CWAD   G#AD   GWGD   HIAD   PWAD   P#AD   WSPD   WSGD   NSTD   EWSD   LN%D   SH%D   HIPD   PWDD   PWTD     SLAD   CHTD   CWID   RDPD   RL1D   RL2D   RL3D   RL4D   RL5D   RL6D   RL7D   RL8D   RL9D   RL10   CDAD   LDAD   SDAD   SNW0C   SNW1C
 2001 305     3     0    0.0      0   0.00      0      0      0      0      0      0    0.0  0.000      0      0  0.000  0.000  0.000  0.000   0.00   0.00   0.00      0      0      0.0   0.00   0.00   0.03   0.00   0.00   0.00   0.00   0.00   0.00   0.00   0.00   0.00   0.00      0      0      0       0       0
 2001 306     4     1    0.0      0   0.00      0      0      0      0      0      0    0.0  0.000      0      0  0.000  0.000  0.000  0.000   0.00   0.00   0.00      0      0      0.0   0.00   0.00   0.03   0.00   0.00   0.00   0.00   0.00   0.00   0.00   0.00   0.00   0.00      0      0      0       0       0
 2001 307     5     2    0.0      0   0.00      0      0      0      0      0      0    0.0  0.000      0      0  0.000  0.000  0.000  0.000   0.00   0.00   0.00      0      0      0.0   0.00   0.00   0.03   0.00   0.00   0.00   0.00   0.00   0.00   0.00   0.00   0.00   0.00      0      0      0       0       0
 2001 308     6     3    0.0      0   0.00      0      0      0      0      0      0    0.0  0.000      0      0  0.000  0.000  0.000  0.000   0.00   0.00   0.00      0      0      0.0   0.00   0.00   0.03   0.00   0.00   0.00   0.00   0.00   0.00   0.00   0.00   0.00   0.00      0      0      0       0       0
 2001 309     7     4    0.0      0   0.00      0      0      0      0      0      0    0.0  0.000      0      0  0.000  0.000  0.000  0.000   0.00   0.00   0.00      0      0      0.0   0.00   0.00   0.05   0.00   0.00   0.00   0.00   0.00   0.00   0.00   0.00   0.00   0.00      0      0      0       0       0
 2001 310     8     5    0.0      0   0.00      0      0      0      0      0      0    0.0  0.000      0      0  0.000  0.000  0.000  0.000   0.00   0.00   0.00      0      0      0.0   0.00   0.00   0.06   0.00   0.00   0.00   0.00   0.00   0.00   0.00   0.00   0.00   0.00      0      0      0       0       0
 2001 311     9     6    0.0      0   0.00      0      0      0      0      0      0    0.0  0.000      0      0  0.000  0.000  0.000  0.000   0.00   0.00   0.00      0      0      0.0   0.00   0.00   0.07   0.00   0.00   0.00   0.00   0.00   0.00   0.00   0.00   0.00   0.00      0      0      0       0       0
 2001 312    10     7    0.0      0   0.00      0      0      0      0      0      0    0.0  0.000      0      0  0.000  0.000  0.000  0.000   0.00   0.00   0.00      0      0      0.0   0.00   0.00   0.08   0.00   0.00   0.00   0.00   0.00   0.00   0.00   0.00   0.00   0.00      0      0      0       0       0
 2001 313    11     8    0.0      0   0.00      0      0      0      0      0      0    0.0  0.000      0      0  0.000  0.000  0.000  0.000   0.00   0.00   0.00      0      0      0.0   0.00   0.00   0.10   0.00   0.00   0.00   0.00   0.00   0.00   0.00   0.00   0.00   0.00      0      0      0       0       0
 2001 314    12     9    0.0      0   0.00      0      0      0      0      0      0    0.0  0.000      0      0  0.000  0.000  0.000  0.000   0.00   0.00   0.00      0      0      0.0   0.00   0.00   0.12   0.00   0.00   0.00   0.00   0.00   0.00   0.00   0.00   0.00   0.00      0      0      0       0       0
 2001 315    13    10    1.0      1   0.00     14     14      0     14     28      0    0.0  0.000      0      0  0.000  0.000  0.012  0.000   4.40   0.00   0.00      0      0     21.7   0.00   0.00   0.13   0.28   0.10   0.00   0.00   0.00   0.00   0.00   0.00   0.00   0.00      0      0      0       0       0
 2001 316    14    11    2.0      1   0.01     14     14      0     15     28      0    0.0  0.000      0      0  0.000  0.000  0.015  0.000   4.53   0.00   0.00      0      0     38.7   0.00   0.00   0.14   0.28   0.12   0.00   0.00   0.00   0.00   0.00   0.00   0.00   0.00      0      0      0       0       0
 2001 317    15    12    2.0      1   0.01     14     14      0     15     28      0    0.0  0.000      0      0  0.000  0.000  0.000  0.000   4.53   0.00   0.00      0      0     55.8   0.00   0.00   0.15   0.27   0.13   0.00   0.00   0.00   0.00   0.00   0.00   0.00   0.00      0      0      0       0       0
 2001 318    16    13    3.0      1   0.01     14     14      0     17     28      0    0.0  0.000      0      0  0.000  0.000  0.000  0.000   4.45   0.00   0.00      0      0     78.1   0.00   0.00   0.16   0.27   0.17   0.00   0.00   0.00   0.00   0.00   0.00   0.00   0.00      0      0      0       0       0
 2001 319    17    14    3.0      1   0.01     14     14      0     20     28      0    0.0  0.000      0      0  0.000  0.000  0.000  0.000   4.41   0.00   0.00      0      0    102.6   0.00   0.00   0.17   0.27   0.20   0.00   0.00   0.00   0.00   0.00   0.00   0.00   0.00      0      0      0       0       0
 2001 320    18    15    3.0      1   0.02     14     14      0     23     28      0    0.0  0.000      0      0  0.000  0.000  0.000  0.000   4.38   0.00   0.00      0      0    117.6   0.00   0.00   0.17   0.27   0.26   0.01   0.00   0.00   0.00   0.00   0.00   0.00   0.00      0      0      0       0       0
 2001 321    19    16    3.0      1   0.02     14     14      0     28     28      0    0.0  0.000      0      0  0.000  0.000  0.000  0.000   4.34   0.00   0.00      0      0    141.8   0.00   0.00   0.18   0.27   0.34   0.02   0.00   0.00   0.00   0.00   0.00   0.00   0.00      0      0      0       0       0
 2001 322    20    17    4.0      1   0.04     14     14      0     32     28      0    0.0  0.000      0      0  0.000  0.000  0.000  0.000   4.29   0.00   0.00      0      0    274.0   0.00   0.00   0.19   0.27   0.41   0.03   0.00   0.00   0.00   0.00   0.00   0.00   0.00      0      0      0       0       1
 2001 323    21    18    4.0      1   0.06     20     14      0     39     34      0    0.0  0.000      0      0  0.000  0.000  0.000  0.000   3.47   0.00   0.00      0      0    319.2   0.00   0.00   0.20   0.26   0.50   0.05   0.00   0.00   0.00   0.00   0.00   0.00   0.00      0      0      0       0       1
 2001 324    22    19    5.0      1   0.09     32     14      0     42     46      0    0.0  0.000      0      0  0.000  0.000  0.000  0.000   3.08   0.00   0.00      0      0    290.2   0.00   0.00   0.22   0.26   0.55   0.07   0.00   0.00   0.00   0.00   0.00   0.00   0.00      0      0      0       0       1
 2001 325    23    20    5.0      1   0.12     45     14      0     55     59      0    0.0  0.000      0      0  0.000  0.000  0.000  0.000   3.22   0.00   0.00      0      0    271.2   0.00   0.00   0.23   0.26   0.71   0.13   0.00   0.00   0.00   0.00   0.00   0.00   0.00      0      0      0       0       1
 2001 326    24    21    6.0      1   0.15     59     14      0     79     73      0    0.0  0.000      0      0  0.000  0.000  0.000  0.000   3.27   0.00   0.00      0      0    256.3   0.00   0.00   0.24   0.26   1.00   0.25   0.00   0.00   0.00   0.00   0.00   0.00   0.00      0      0      0       0       1
 2001 327    25    22    6.0      1   0.18     73     14      0     86     87      0    0.0  0.000      0      0  0.000  0.000  0.000  0.000   3.34   0.00   0.00      0      0    245.0   0.00   0.00   0.24   0.26   1.05   0.30   0.00   0.00   0.00   0.00   0.00   0.00   0.00      0      0      0       0       2
 2001 328    26    23    6.0      1   0.20     86     14      0    111    100      0    0.0  0.000      0      0  0.000  0.000  0.000  0.000   3.47   0.00   0.00      0      0    237.1   0.00   0.00   0.25   0.27   1.23   0.51   0.00   0.00   0.00   0.00   0.00   0.00   0.00      0      0      0       0       2
 2001 329    27    24    6.0      1   0.23     98     14      0    158    112      0    0.0  0.000      0      0  0.000  0.000  0.000  0.000   3.55   0.00   0.00      0      0    231.1   0.00   0.00   0.26   0.27   1.51   0.93   0.00   0.00   0.00   0.00   0.00   0.00   0.00      0      0      0       0       3
 2001 330    28    25    7.0      1   0.26    118     14      0    205    132      0    0.0  0.000      0      0  0.000  0.000  0.000  0.000   3.32   0.00   0.00      0      0    222.4   0.00   0.00   0.27   0.26   1.75   1.38   0.00   0.00   0.00   0.00   0.00   0.00   0.00      0      0      0       0       4
 2001 331    29    26    7.0      2   0.29    126     14      0    258    140      0    0.0  0.000      0      0  0.000  0.000  0.000  0.000   3.65   0.00   0.00      0      0    234.2   0.00   0.00   0.27   0.26   2.00   1.92   0.00   0.00   0.00   0.00   0.00   0.00   0.00      0      0      0       0       5
 2001 332    30    27    7.0      2   0.33    145     14      0    320    159      0    0.0  0.000      0      0  0.000  0.000  0.003  0.000   3.44   0.00   0.00      0      0    227.6   0.00   0.00   0.28   0.26   2.22   2.58   0.00   0.00   0.00   0.00   0.00   0.00   0.00      0      0      0       0       6
 2001 333    31    28    8.0      2   0.37    167     14      0    353    181      0    0.0  0.000      0      0  0.000  0.000  0.000  0.000   3.35   0.00   0.00      0      0    220.9   0.00   0.00   0.29   0.28   2.30   2.94   0.00   0.00   0.00   0.00   0.00   0.00   0.00      0      0      0       0       7
 2001 334    32    29    8.0      2   0.41    188     14      0    392    202      0    0.0  0.000      0      0  0.000  0.000  0.000  0.000   3.77   0.00   0.00      0      0    215.7   0.00   0.00   0.30   0.28   2.39   3.40   0.00   0.00   0.00   0.00   0.00   0.00   0.00      0      0      0       0       9
 2001 335    33    30    8.0      3   0.44    211     14      0    454    225      0    0.0  0.000      0      0  0.000  0.000  0.022  0.000   3.68   0.00   0.00      0      0    209.2   0.00   0.00   0.31   0.27   2.41   4.00   0.00   0.00   0.00   0.00   0.00   0.00   0.00      0      0      0       0      11
 2001 336    34    31    8.0      3   0.47    228     14      0    473    242      0    0.0  0.000      0      0  0.000  0.000  0.022  0.000   3.59   0.00   0.00      0      0    205.7   0.00   0.00   0.32   0.27   2.42   4.00   0.05   0.00   0.00   0.00   0.00   0.00   0.00      0      0      0       0      13
 2001 337    35    32    8.0      3   0.50    248     14      0    535    262      0    0.0  0.000      0      0  0.000  0.000  0.022  0.000   3.55   0.00   0.00      0      0    202.0   0.00   0.00   0.33   0.27   2.44   4.00   0.25   0.00   0.00   0.00   0.00   0.00   0.00      0      0      0       0      16
 2001 338    36    33    9.0      3   0.54    274     15      0    585    289      0    0.0  0.000      0      0  0.000  0.000  0.022  0.000   3.52   0.00   0.00      0      0    197.9   0.00   0.00   0.34   0.27   2.46   4.00   0.47   0.00   0.00   0.00   0.00   0.00   0.00      0      0      0       0      18
 2001 339    37    34    9.0      3   0.61    318     16      0    652    334      0    0.0  0.000      0      0  0.000  0.000  0.022  0.000   3.47   0.00   0.00      0      0    192.2   0.00   0.00   0.36   0.31   2.49   4.00   0.84   0.00   0.00   0.00   0.00   0.00   0.00      0      0      0       0      21
 2001 340    38    35    9.0      3   0.69    369     18      0    757    387      0    0.0  0.000      0      0  0.000  0.000  0.022  0.000   3.42   0.00   0.00      0      0    186.6   0.00   0.00   0.37   0.36   2.53   4.00   1.51   0.00   0.00   0.00   0.00   0.00   0.00      0      0      0       0      25
 2001 341    39    36   10.0      3   0.78    433     22      0    819    456      0    0.0  0.000      0      0  0.000  0.000  0.022  0.000   3.35   0.00   0.00      0      0    180.8   0.00   0.00   0.39   0.39   2.56   4.00   1.98   0.00   0.00   0.00   0.00   0.00   0.00      0      0      0       0      28
 2001 342    40    37   10.0      3   0.83    467     25      0    945    492      0    0.0  0.000      0      0  0.000  0.000  0.022  0.000   3.32   0.00   0.00      0      0    177.9   0.00   0.00   0.40   0.46   2.61   4.00   2.99   0.00   0.00   0.00   0.00   0.00   0.00      0      0      0       0      33
 2001 343    41    38   10.0      3   0.89    507     29      0   1070    536      0    0.0  0.000      0      0  0.000  0.000  0.022  0.000   3.29   0.00   0.00      0      0    174.8   0.00   0.00   0.41   0.46   2.68   4.00   4.00   0.00   0.00   0.00   0.00   0.00   0.00      0      0      0       0      37
 2001 344    42    39   10.0      3   0.96    563     36      0   1204    600      0    0.0  0.000      0      0  0.000  0.000  0.022  0.000   3.18   0.00   0.00      0      0    171.1   0.00   0.00   0.43   0.45   2.76   4.00   4.00   0.00   0.00   0.00   0.00   0.00   0.00      0      0      0       0      43
 2001 345    43    40   11.0      3   1.08    650     51      0   1333    701      0    0.0  0.000      0      0  0.000  0.000  0.022  0.000   2.93   0.00   0.00      0      0    166.3   0.00   0.00   0.44   0.45   2.84   4.00   4.00   0.00   0.00   0.00   0.00   0.00   0.00      0      0      0       0      49
 2001 346    44    41   11.0      3   1.21    744     72      0   1442    816      0    0.0  0.000      0      0  0.000  0.000  0.022  0.000   2.65   0.00   0.00      0      0    161.9   0.00   0.00   0.46   0.45   2.92   4.00   4.00   0.00   0.00   0.00   0.00   0.00   0.00      0      0      0       0      55
 2001 347    45    42   12.0      3   1.35    860    103      0   1487    963      0    0.0  0.000      0      0  0.000  0.000  0.022  0.000   2.36   0.00   0.00      0      0    157.3   0.00   0.00   0.48   0.44   2.95   4.00   4.00   0.18   0.00   0.00   0.00   0.00   0.00      0      0      0       0      63
 2001 348    46    43   12.0      3   1.47    959    135      0   1639   1094      0    0.0  0.000      0      0  0.000  0.000  0.033  0.000   2.28   0.00   0.00      0      0    153.7   0.00   0.00   0.49   0.44   3.07   4.00   4.00   1.00   0.00   0.00   0.00   0.00   0.00      0      0      0       0      70
 2001 349    47    44   12.0      3   1.57   1042    166      0   1802   1208      0    0.0  0.000      0      0  0.000  0.000  0.042  0.000   2.25   0.00   0.00      0      0    150.6   0.00   0.00   0.51   0.44   3.19   4.00   4.00   2.04   0.00   0.00   0.00   0.00   0.00      0      0      0       0      78
 2001 350    48    45   13.0      3   1.66   1124    199      0   1953   1323      0    0.0  0.000      0      0  0.000  0.000  0.047  0.000   2.20   0.00   0.00      0      0    147.8   0.00   0.00   0.52   0.44   3.31   4.00   4.00   3.11   0.00   0.00   0.00   0.00   0.00      0      0      0       0      87
 2001 351    49    46   13.0      3   1.74   1198    234      0   2125   1431      0    0.0  0.000      0      0  0.000  0.217  0.050  0.000   2.11   0.00   0.00      0      0    145.3   0.00   0.00   0.53   0.43   3.45   4.00   4.00   4.00   0.00   0.00   0.00   0.00   0.00      0      0      0       0      97
 2001 352    50    47   13.0      3   1.80   1259    266      0   2212   1525      0    0.0  0.000      0      0  0.165  0.444  0.058  0.000   2.04   0.00   0.00      0      0    142.9   0.00   0.00   0.54   0.43   3.51   4.00   4.00   4.00   0.00   0.00   0.00   0.00   0.00      0      0      0       0     108
 2001 353    51    48   14.0      3   1.91   1382    303      0   2210   1684      0    0.0  0.000      0      0  0.312  0.542  0.065  0.000   1.89   0.00   0.00      0      0    138.6   0.00   0.00   0.56   0.43   3.50   3.98   4.00   4.00   0.00   0.00   0.00   0.00   0.00      0      0      0       0     119
 2001 354    52    49   14.0      3   1.89   1418    347      0   2226   1765      0    0.0  0.000      0      0  0.738  0.826  0.070  0.000   1.84   0.00   0.00      0      0    132.9   0.00   0.00   0.57   0.42   3.50   3.97   4.00   4.00   0.00   0.00   0.00   0.00   0.00      0      0      0       0     130
 2001 355    53    50   14.0      3   1.89   1460    412      0   2220   1872      0    0.0  0.000      0      0  0.478  0.653  0.087  0.000   1.76   0.00   0.00      0      0    129.3   0.00   0.00   0.58   0.43   3.49   3.95   4.00   4.00   0.00   0.00   0.00   0.00   0.00      0      0      0       0     141
 2001 356    54    51   14.0      3   1.87   1489    463      0   2304   1952      0    0.0  0.000      0      0  0.488  0.659  0.092  0.000   1.71   0.00   0.00      0      0    125.9   0.00   0.00   0.59   0.50   3.54   3.97   4.00   4.00   0.00   0.00   0.00   0.00   0.00      0      0      0       0     152
 2001 357    55    52   15.0      3   1.85   1514    513      0   2359   2027      0    0.0  0.000      0      0  0.607  0.738  0.102  0.000   1.66   0.00   0.00      0      0    121.9   0.00   0.00   0.60   0.54   3.58   3.97   4.00   4.00   0.00   0.00   0.00   0.00   0.00      0      0      0       0     163
 2001 358    56    53   15.0      3   1.79   1527    545      0   2376   2072      0    0.0  0.000      0      0  0.809  0.873  0.106  0.000   1.64   0.00   0.00      0      0    116.9   0.00   0.00   0.61   0.54   3.58   3.96   4.00   4.00   0.00   0.00   0.00   0.00   0.00      0      0      0       0     175
 2001 359    57    54   15.0      3   1.72   1537    572      0   2388   2109      0    0.0  0.000      0      0  0.834  0.890  0.110  0.000   1.62   0.00   0.00      0      0    112.0   0.00   0.00   0.61   0.54   3.59   3.96   4.00   4.00   0.01   0.00   0.00   0.00   0.00      0      0      0       0     187
 2001 360    58    55   16.0      3   1.66   1547    599      0   2396   2146      0    0.0  0.000      0      0  0.851  0.901  0.108  0.000   1.60   0.00   0.00      0      0    107.3   0.00   0.00   0.62   0.53   3.60   3.94   3.98   4.00   0.04   0.00   0.00   0.00   0.00      0      0      0       0     199
 2001 361    59    56   16.0      3   1.60   1556    630      0   2399   2186      0    0.0  0.000      0      0  0.845  0.897  0.104  0.000   1.59   0.00   0.00      0      0    102.8   0.00   0.00   0.63   0.53   3.60   3.92   3.96   4.00   0.07   0.00   0.00   0.00   0.00      0      0      0       0     211
 2001 362    60    57   17.0      3   1.55   1567    665      0   2404   2232      0    0.0  0.000      0      0  0.824  0.883  0.099  0.000   1.59   0.00   0.00      0      0     98.6   0.00   0.00   0.64   0.53   3.61   3.90   3.94   4.00   0.12   0.00   0.00   0.00   0.00      0      0      0       0     223
 2001 363    61    58   17.0      3   1.50   1578    705      0   2414   2283      0    0.0  0.000      0      0  0.784  0.857  0.094  0.000   1.58   0.00   0.00      0      0     94.9   0.00   0.00   0.65   0.52   3.63   3.88   3.92   4.00   0.20   0.00   0.00   0.00   0.00      0      0      0       0     235
 2001 364    62    59   17.0      3   1.46   1593    759      0   2424   2353      0    0.0  0.000      0      0  0.705  0.804  0.090  0.000   1.57   0.00   0.00      0      0     91.7   0.00   0.00   0.66   0.56   3.65   3.86   3.90   4.00   0.31   0.00   0.00   0.00   0.00      0      0      0       0     247
 2001 365    63    60   17.0      3   1.48   1621    856      0   2419   2476      0    0.0  0.000      0      0  0.223  0.482  0.086  0.000   1.57   0.00   0.00      0      0     91.1   0.00   0.00   0.67   0.56   3.63   3.84   3.91   4.00   0.32   0.00   0.00   0.00   0.00      0      0      0       0     259
 2002 001    64    61   17.0      3   1.52   1673   1037      0   2495   2710      0    0.0  0.000      0      0  0.000  0.000  0.077  0.000   1.52   0.00   0.00      0      0     90.9   0.00   0.00   0.69   0.62   3.68   3.85   4.00   4.00   0.53   0.00   0.00   0.00   0.00      0      0      0       0     271
 2002 002    65    62   17.0      3   1.57   1727   1225      0   2590   2952      0    0.0  0.000      0      0  0.000  0.000  0.073  0.000   1.46   0.00   0.00      0      0     90.7   0.00   0.00   0.70   0.71   3.75   3.88   4.00   4.00   0.84   0.00   0.00   0.00   0.00      0      0      0       0     284
 2002 003    66    63   17.0      3   1.61   1779   1403      0   2675   3182      0    0.0  0.000      0      0  0.000  0.000  0.081  0.000   1.40   0.00   0.00      0      0     90.4   0.00   0.00   0.71   0.71   3.83   3.90   4.00   4.00   1.18   0.00   0.00   0.00   0.00      0      0      0       0     297
 2002 004    67    64   17.0      3   1.64   1827   1568      0   2724   3395      0    0.0  0.000      0      0  0.000  0.000  0.090  0.000   1.36   0.00   0.00      0      0     90.0   0.00   0.00   0.72   0.77   3.87   3.91   4.00   4.00   1.42   0.00   0.00   0.00   0.00      0      0      0       0     310
 2002 005    68    65   17.0      4   1.62   1805   1340      0   2715   3493      0    0.0  0.000    348      0  0.000  0.000  0.099  0.000   1.52   0.00   0.10      0    348     89.9   0.00   0.00   0.73   0.77   3.86   3.90   3.98   4.00   1.43   0.00   0.00   0.00   0.00      0      0      0       0     324
 2002 006    69    66   17.0      4   1.60   1782   1393      0   2763   3654      0    0.0  0.000    479      0  0.000  0.000  0.105  0.000   1.54   0.00   0.13      0    479     89.9   0.00   0.00   0.74   0.85   3.92   3.92   3.99   4.00   1.71   0.00   0.00   0.00   0.00      0      0      0       0     337
 2002 007    70    67   17.0      4   1.59   1758   1452      0   2878   3838      0    0.0  0.000    628      0  0.000  0.000  0.075  0.000   1.54   0.00   0.16      0    628     90.3   0.00   0.00   0.75   1.07   4.00   4.00   4.00   4.00   2.37   0.00   0.00   0.00   0.00      0      0      0       0     351
 2002 008    71    68   17.0      4   1.57   1732   1519      0   2959   4044      0    0.0  0.000    794      0  0.000  0.000  0.070  0.000   1.55   0.00   0.20      0    794     90.9   0.00   0.00   0.76   1.25   4.00   4.00   4.00   4.00   2.89   0.00   0.00   0.00   0.00      0      0      0       0     365
 2002 009    72    69   17.0      4   1.56   1704   1593      0   3032   4277      0    0.0  0.000    980      0  0.000  0.000  0.066  0.000   1.54   0.00   0.23      0    980     91.6   0.00   0.00   0.78   1.25   4.00   4.00   4.00   4.00   3.43   0.00   0.00   0.00   0.00      0      0      0       0     380
 2002 010    73    70   17.0      4   1.55   1675   1673      0   3108   4529      0    0.0  0.000   1180      0  0.000  0.000  0.062  0.000   1.53   0.00   0.26      0   1180     92.4   0.00   0.00   0.79   1.24   4.00   4.00   4.00   4.00   3.99   0.00   0.00   0.00   0.00      0      0      0       0     395
 2002 011    74    71   17.0      4   1.54   1644   1763      0   3157   4814      0    0.0  0.000   1406      0  0.000  0.000  0.059  0.000   1.52   0.00   0.29      0   1406     93.5   0.00   0.00   0.81   1.23   4.00   4.00   4.00   4.00   4.00   0.00   0.00   0.00   0.00      0      0      0       0     411
 2002 012    75    72   17.0      4   1.53   1612   1864      0   3175   5134      0    0.0  0.000   1658      0  0.000  0.000  0.055  0.000   1.51   0.00   0.32      0   1658     94.7   0.00   0.00   0.81   1.23   4.00   4.00   4.00   4.00   4.00   0.00   0.00   0.00   0.00      0      0      0       0     427
 2002 013    76    73   17.0      4   1.52   1577   1967      0   3175   5457      0    0.0  0.000   1913      0  0.000  0.000  0.052  0.000   1.49   0.00   0.35      0   1913     96.2   0.00   0.00   0.81   1.27   4.00   4.00   4.00   3.99   4.00   0.00   0.00   0.00   0.00      0      0      0       0     443
 2002 014    77    74   17.0      4   1.51   1541   2024      0   3246   5620      0    0.0  0.000   2056      0  0.000  0.000  0.052  0.000   1.50   0.00   0.37      0   2056     97.8   0.00   0.00   0.81   1.55   4.00   4.00   4.00   4.00   4.00   0.00   0.00   0.00   0.00      0      0      0       0     459
 2002 015    78    75   17.0      4   1.50   1504   2074      0   3367   5760      0    0.0  0.000   2182      0  0.000  0.000  0.052  0.000   1.50   0.00   0.38      0   2182     99.5   0.00   0.00   0.81   1.54   4.00   4.00   4.00   4.00   4.00   0.00   0.00   0.00   0.00      0      0      0       0     475
 2002 016    79    76   17.0      4   1.49   1466   2129      0   3467   5915      0    0.0  0.000   2320      0  0.000  0.000  0.050  0.000   1.50   0.00   0.39      0   2320    101.5   0.00   0.00   0.81   1.53   4.00   4.00   4.00   4.00   4.00   0.00   0.00   0.00   0.00      0      0      0       0     492
 2002 017    80    77   17.0      5   1.47   1466   2129    183   3466   6098   2176    8.4  0.030   2503      7  0.000  0.000  0.088  0.000   1.44   7.30   0.41      0   2503    100.4   0.00   0.00   0.81   1.52   4.00   4.00   4.00   4.00   4.00   0.00   0.00   0.00   0.00      0      0      0       0     509
 2002 018    81    78   17.0      5   1.45   1466   2129    311   3522   6227   2176   14.3  0.050   2632      7  0.000  0.204  0.108  0.000   1.39  11.83   0.42      0   2632     99.0   0.00   0.00   0.81   1.52   4.00   4.00   4.00   4.00   4.00   0.00   0.00   0.00   0.00      0      0      0       0     526
 2002 019    82    79   17.0      5   1.43   1466   2129    442   3556   6357   2176   20.3  0.070   2762      7  0.280  0.520  0.116  0.000   1.34  16.01   0.43      0   2762     97.6   0.00   0.00   0.81   1.51   4.00   4.00   4.00   4.00   4.00   0.00   0.00   0.00   0.00      0      0      0       0     544
 2002 020    83    80   17.0      5   1.40   1466   2129    567   3564   6483   2176   26.1  0.087   2887      7  0.425  0.617  0.123  0.000   1.30  19.64   0.45      0   2887     95.5   0.00   0.00   0.81   1.50   4.00   4.00   4.00   4.00   4.00   0.00   0.00   0.00   0.00      0      0      0       0     562
 2002 021    84    81   17.0      5   1.36   1466   2129    654   3573   6569   2176   30.1  0.100   2974      7  0.541  0.695  0.132  0.000   1.27  21.98   0.45      0   2974     92.9   0.00   0.00   0.81   1.49   4.00   4.00   4.00   4.00   4.00   0.00   0.00   0.00   0.00      0      0      0       0     579
 2002 022    85    82   17.0      5   1.32   1466   2129    746   3571   6662   2176   34.3  0.112   3066      7  0.646  0.765  0.137  0.000   1.24  24.33   0.46      0   3066     89.9   0.00   0.00   0.81   1.48   4.00   4.00   4.00   4.00   4.00   0.00   0.00   0.00   0.00      0      0      0       0     597
 2002 023    86    83   17.0      5   1.27   1466   2129    845   3559   6761   2176   38.9  0.125   3166      7  0.713  0.809  0.141  0.000   1.20  26.70   0.47      0   3166     86.7   0.00   0.00   0.81   1.48   4.00   4.00   3.99   3.99   3.99   0.00   0.00   0.00   0.00      0      0      0       0     615
 2002 024    87    84   17.0      5   1.25   1466   2080    999   3541   6864   2176   45.9  0.145   3319      7  0.109  0.407  0.146  0.000   1.16  30.09   0.48      0   3319     85.1   0.00   0.00   0.81   1.48   4.00   4.00   3.99   3.99   3.99   0.00   0.00   0.00   0.00      0      0      0       0     633
 2002 025    88    85   17.0      5   1.20   1466   2080   1094   3524   6960   2176   50.3  0.157   3414      7  0.755  0.837  0.158  0.000   1.13  32.04   0.49      0   3414     81.9   0.00   0.00   0.81   1.47   3.98   3.98   3.97   3.97   3.97   0.00   0.00   0.00   0.00      0      0      0       0     651
 2002 026    89    86   17.0      5   1.16   1466   2073   1191   3506   7050   2176   54.7  0.169   3511      7  0.739  0.827  0.158  0.000   1.09  33.92   0.50      0   3511     78.9   0.00   0.00   0.81   1.47   3.98   3.98   3.97   3.97   3.97   0.00   0.00   0.00   0.00      0      0      0       0     668
 2002 027    90    87   17.0      5   1.12   1466   2053   1287   3489   7126   2176   59.2  0.181   3607      7  0.664  0.776  0.166  0.000   1.07  35.68   0.51      0   3607     76.3   0.00   0.00   0.81   1.47   3.98   3.98   3.97   3.97   3.97   0.00   0.00   0.00   0.00      0      0      0       0     686
 2002 028    91    88   17.0      5   1.09   1466   2116   1419   3503   7321   2176   65.2  0.194   3740      7  0.341  0.561  0.170  0.000   1.00  37.96   0.51      0   3740     74.7   0.00   0.00   0.81   1.46   4.00   3.96   3.96   4.00   4.00   0.00   0.00   0.00   0.00      0      0      0       0     703
 2002 029    92    89   17.0      5   1.05   1466   2104   1509   3485   7400   2176   69.4  0.204   3829      7  0.749  0.833  0.180  0.000   0.98  39.41   0.52      0   3829     71.9   0.00   0.00   0.81   1.46   4.00   3.96   3.96   4.00   4.00   0.00   0.00   0.00   0.00      0      0      0       0     721
 2002 030    93    90   17.0      5   1.00   1466   2046   1588   3468   7420   2176   73.0  0.214   3908      7  0.943  0.962  0.194  0.000   0.97  40.63   0.53      0   3908     68.5   0.00   0.00   0.81   1.46   4.00   3.96   3.96   4.00   4.00   0.00   0.00   0.00   0.00      0      0      0       0     738
 2002 031    94    91   17.0      5   0.98   1466   2079   1751   3466   7615   2176   80.5  0.230   4071      7  0.000  0.332  0.197  0.000   0.91  43.01   0.53      0   4071     66.8   0.00   0.00   0.81   1.45   4.00   3.98   3.94   3.98   3.98   0.00   0.00   0.00   0.00      0      0      0       0     756
 2002 032    95    92   17.0      5   0.94   1466   2077   1829   3449   7692   2176   84.1  0.238   4150      7  0.775  0.851  0.220  0.000   0.89  44.08   0.54      0   4150     64.2   0.00   0.00   0.81   1.45   4.00   3.98   3.94   3.98   3.98   0.00   0.00   0.00   0.00      0      0      0       0     773
 2002 033    96    93   17.0      5   0.90   1466   2072   1887   3432   7745   2176   86.7  0.244   4207      7  0.845  0.897  0.252  0.000   0.87  44.85   0.54      0   4207     61.5   0.00   0.00   0.81   1.45   4.00   3.98   3.94   3.98   3.98   0.00   0.00   0.00   0.00      0      0      0       0     790
 2002 034    97    94   17.0      5   0.86   1466   2065   1948   3415   7799   2176   89.5  0.250   4268      7  0.841  0.894  0.264  0.000   0.85  45.64   0.55      0   4268     58.9   0.00   0.00   0.81   1.45   4.00   3.98   3.94   3.98   3.98   0.00   0.00   0.00   0.00      0      0      0       0     807
 2002 035    98    95   17.0      5   0.83   1466   2027   2038   3398   7851   2176   93.7  0.260   4359      7  0.778  0.853  0.273  0.000   0.84  46.77   0.56      0   4359     56.6   0.00   0.00   0.81   1.45   4.00   3.98   3.94   3.98   3.98   0.00   0.00   0.00   0.00      0      0      0       0     824
 2002 036    99    96   17.0      5   0.80   1466   1990   2121   3381   7897   2176   97.5  0.269   4441      7  0.747  0.832  0.297  0.000   0.82  47.76   0.56      0   4441     54.5   0.00   0.00   0.81   1.45   4.00   3.98   3.94   3.98   3.98   0.00   0.00   0.00   0.00      0      0      0       0     841
 2002 037   100    97   17.0      5   0.78   1466   1928   2257   3364   7971   2176  103.8  0.283   4577      7  0.000  0.000  0.304  0.000   0.80  49.31   0.57      0   4577     52.9   0.00   0.00   0.81   1.45   4.00   3.98   3.94   3.98   3.98   0.00   0.00   0.00   0.00      0      0      0       0     858
 2002 038   101    98   17.0      5   0.75   1466   1930   2413   3348   8129   2176  110.9  0.297   4733      7  0.000  0.000  0.328  0.000   0.76  50.98   0.58      0   4733     51.3   0.00   0.00   0.81   1.45   3.99   3.96   3.92   3.96   3.96   0.00   0.00   0.00   0.00      0      0      0       0     875
 2002 039   102    99   17.0      5   0.73   1466   1849   2554   3331   8189   2176  117.4  0.312   4874      7  0.000  0.000  0.356  0.000   0.74  52.39   0.60      0   4874     49.7   0.00   0.00   0.81   1.45   3.99   3.96   3.92   3.96   3.96   0.00   0.00   0.00   0.00      0      0      0       0     892
 2002 040   103   100   17.0      5   0.70   1466   1804   2717   3314   8307   2176  124.9  0.327   5037      7  0.000  0.183  0.399  0.000   0.72  53.94   0.61      0   5037     48.0   0.00   0.00   0.81   1.45   3.99   3.96   3.92   3.96   3.96   0.00   0.00   0.00   0.00      0      0      0       0     908
 2002 041   104   101   17.0      5   0.68   1466   1791   2873   3298   8450   2176  132.0  0.340   5193      7  0.000  0.000  0.414  0.000   0.69  55.32   0.61      0   5193     46.4   0.00   0.00   0.81   1.45   3.99   3.96   3.92   3.96   3.96   0.00   0.00   0.00   0.00      0      0      0       0     925
 2002 042   105   102   17.0      5   0.66   1466   1758   3036   3281   8580   2176  139.5  0.354   5356      7  0.000  0.000  0.436  0.000   0.67  56.68   0.62      0   5356     44.8   0.00   0.00   0.81   1.45   3.99   3.96   3.92   3.96   3.96   0.00   0.00   0.00   0.00      0      0      0       0     942
 2002 043   106   103   17.0      5   0.63   1466   1684   3199   3265   8669   2176  147.0  0.369   5519      7  0.000  0.000  0.471  0.000   0.65  57.96   0.64      0   5519     43.2   0.00   0.00   0.81   1.45   3.99   3.96   3.92   3.96   3.96   0.00   0.00   0.00   0.00      0      0      0       0     958
 2002 044   107   104   17.0      5   0.61   1466   1649   3362   3248   8797   2176  154.5  0.382   5682      7  0.000  0.000  0.504  0.000   0.63  59.17   0.65      0   5682     41.5   0.00   0.00   0.81   1.45   3.99   3.96   3.92   3.96   3.96   0.00   0.00   0.00   0.00      0      0      0       0     974
 2002 045   108   105   17.0      5   0.59   1466   1597   3525   3232   8908   2176  162.0  0.396   5846      7  0.000  0.000  0.525  0.000   0.61  60.31   0.66      0   5846     39.9   0.00   0.00   0.81   1.45   3.99   3.96   3.92   3.96   3.96   0.00   0.00   0.00   0.00      0      0      0       0     990
 2002 046   109   106   17.0      5   0.56   1466   1549   3653   3216   8989   2176  167.9  0.406   5974      7  0.000  0.000  0.555  0.000   0.60  61.16   0.66      0   5974     38.3   0.00   0.00   0.81   1.45   3.99   3.96   3.92   3.96   3.96   0.00   0.00   0.00   0.00      0      0      0       0    1007
 2002 047   110   107   17.0      5   0.54   1466   1535   3755   3200   9077   2176  172.6  0.414   6076      7  0.000  0.000  0.571  0.000   0.59  61.81   0.67      0   6076     36.8   0.00   0.00   0.81   1.45   3.99   3.96   3.92   3.96   3.96   0.00   0.00   0.00   0.00      0      0      0       0    1023
 2002 048   111   108   17.0      5   0.52   1466   1482   3874   3184   9142   2176  178.1  0.424   6195      7  0.000  0.000  0.579  0.000   0.58  62.54   0.68      0   6195     35.3   0.00   0.00   0.81   1.45   3.99   3.96   3.92   3.96   3.96   0.00   0.00   0.00   0.00      0      0      0       0    1039
 2002 049   112   109   17.0      5   0.50   1466   1398   4019   3168   9203   2176  184.7  0.437   6339      7  0.000  0.000  0.605  0.000   0.58  63.40   0.69      0   6339     33.8   0.00   0.00   0.81   1.45   3.99   3.96   3.92   3.96   3.96   0.00   0.00   0.00   0.00      0      0      0       0    1055
 2002 050   113   110   17.0      5   0.47   1466   1278   4172   3152   9236   2176  191.8  0.452   6492      7  0.000  0.000  0.613  0.000   0.59  64.26   0.70      0   6492     32.4   0.00   0.00   0.81   1.45   3.99   3.96   3.92   3.96   3.96   0.00   0.00   0.00   0.00      0      0      0       0    1070
 2002 051   114   111   17.0      5   0.45   1466   1178   4306   3136   9270   2176  197.9  0.465   6626      7  0.000  0.000  0.603  0.000   0.59  64.98   0.71      0   6626     31.0   0.00   0.00   0.81   1.45   3.99   3.96   3.92   3.96   3.96   0.00   0.00   0.00   0.00      0      0      0       0    1086
 2002 052   115   112   17.0      5   0.44   1466   1110   4343   3121   9239   2176  199.6  0.470   6663      7  0.000  0.000  0.585  0.000   0.60  65.18   0.72      0   6663     29.8   0.00   0.00   0.81   1.45   3.99   3.96   3.92   3.96   3.96   0.00   0.00   0.00   0.00      0      0      0       0    1102
 2002 053   116   113   17.0      5   0.42   1466   1110   4398   3105   9294   2176  202.2  0.473   6718      7  0.000  0.000  0.540  0.000   0.59  65.46   0.72      0   6718     28.6   0.00   0.00   0.81   1.45   3.99   3.96   3.92   3.96   3.96   0.00   0.00   0.00   0.00      0      0      0       0    1118
 2002 054   117   114   17.0      5   0.40   1466   1110   4475   3090   9371   2176  205.7  0.478   6795      7  0.000  0.000  0.522  0.000   0.57  65.86   0.73      0   6795     27.5   0.00   0.00   0.81   1.45   3.99   3.96   3.92   3.96   3.96   0.00   0.00   0.00   0.00      0      0      0       0    1133
 2002 055   118   115   17.0      5   0.39   1466   1110   4546   3074   9442   2176  209.0  0.481   6866      7  0.000  0.000  0.554  0.000   0.56  66.21   0.73      0   6866     26.4   0.00   0.00   0.81   1.45   3.99   3.96   3.92   3.96   3.96   0.00   0.00   0.00   0.00      0      0      0       0    1149
 2002 056   119   116   17.0      5   0.37   1466   1110   4600   3059   9496   2176  211.4  0.484   6920      7  0.000  0.000  0.578  0.000   0.55  66.47   0.73      0   6920     25.3   0.00   0.00   0.81   1.45   3.99   3.96   3.92   3.96   3.96   0.00   0.00   0.00   0.00      0      0      0       0    1164
 2002 057   120   117   17.0      5   0.37   1466   1110   4600   3059   9496   2176  211.4  0.484   6920      7  0.000  0.000  0.578  0.000   0.55  66.47   0.73      0   6920     25.3   0.00   0.00   0.81   1.45   3.99   3.96   3.92   3.96   3.96   0.00   0.00   0.00   0.00      0      0      0       0    1164
 2002 058   121   118   17.0      5   0.37   1466   1110   4600   3059   9496   2176  211.4  0.484   6920      7  0.000  0.000  0.578  0.000   0.55  66.47   0.73      0   6920     25.3   0.00   0.00   0.81   1.45   3.99   3.96   3.92   3.96   3.96   0.00   0.00   0.00   0.00      0      0      0       0    1164
 2002 059   122   119   17.0      5   0.37   1466   1110   4600   3059   9496   2176  211.4  0.484   6920      7  0.000  0.000  0.578  0.000   0.55  66.47   0.73      0   6920     25.3   0.00   0.00   0.81   1.45   3.99   3.96   3.92   3.96   3.96   0.00   0.00   0.00   0.00      0      0      0       0    1164

*DSSAT Cropping System Model Ver. 4.0.2.000               Aug 16, 2016; 17:55:43

*RUN   3        : UYMZ                    
 MODEL          : MZCER040 - Maize           
 EXPERIMENT     : UYMZ0214 MZ    late to create DSS                             
 TREATMENT  1   : UYMZ                    

@YEAR DOY   DAS   DAP   L#SD   GSTD   LAID   LWAD   SWAD   GWAD   RWAD   CWAD   G#AD   GWGD   HIAD   PWAD   P#AD   WSPD   WSGD   NSTD   EWSD   LN%D   SH%D   HIPD   PWDD   PWTD     SLAD   CHTD   CWID   RDPD   RL1D   RL2D   RL3D   RL4D   RL5D   RL6D   RL7D   RL8D   RL9D   RL10   CDAD   LDAD   SDAD   SNW0C   SNW1C
 2002 305     3     0    0.0      0   0.00      0      0      0      0      0      0    0.0  0.000      0      0  0.000  0.000  0.000  0.000   0.00   0.00   0.00      0      0      0.0   0.00   0.00   0.03   0.00   0.00   0.00   0.00   0.00   0.00   0.00   0.00   0.00   0.00      0      0      0       0       0
 2002 306     4     1    0.0      0   0.00      0      0      0      0      0      0    0.0  0.000      0      0  0.000  0.000  0.000  0.000   0.00   0.00   0.00      0      0      0.0   0.00   0.00   0.03   0.00   0.00   0.00   0.00   0.00   0.00   0.00   0.00   0.00   0.00      0      0      0       0       0
 2002 307     5     2    0.0      0   0.00      0      0      0      0      0      0    0.0  0.000      0      0  0.000  0.000  0.000  0.000   0.00   0.00   0.00      0      0      0.0   0.00   0.00   0.03   0.00   0.00   0.00   0.00   0.00   0.00   0.00   0.00   0.00   0.00      0      0      0       0       0
 2002 308     6     3    0.0      0   0.00      0      0      0      0      0      0    0.0  0.000      0      0  0.000  0.000  0.000  0.000   0.00   0.00   0.00      0      0      0.0   0.00   0.00   0.03   0.00   0.00   0.00   0.00   0.00   0.00   0.00   0.00   0.00   0.00      0      0      0       0       0
 2002 309     7     4    0.0      0   0.00      0      0      0      0      0      0    0.0  0.000      0      0  0.000  0.000  0.000  0.000   0.00   0.00   0.00      0      0      0.0   0.00   0.00   0.03   0.00   0.00   0.00   0.00   0.00   0.00   0.00   0.00   0.00   0.00      0      0      0       0       0
 2002 310     8     5    0.0      0   0.00      0      0      0      0      0      0    0.0  0.000      0      0  0.000  0.000  0.000  0.000   0.00   0.00   0.00      0      0      0.0   0.00   0.00   0.03   0.00   0.00   0.00   0.00   0.00   0.00   0.00   0.00   0.00   0.00      0      0      0       0       0
 2002 311     9     6    0.0      0   0.00      0      0      0      0      0      0    0.0  0.000      0      0  0.000  0.000  0.000  0.000   0.00   0.00   0.00      0      0      0.0   0.00   0.00   0.04   0.00   0.00   0.00   0.00   0.00   0.00   0.00   0.00   0.00   0.00      0      0      0       0       0
 2002 312    10     7    0.0      0   0.00      0      0      0      0      0      0    0.0  0.000      0      0  0.000  0.000  0.000  0.000   0.00   0.00   0.00      0      0      0.0   0.00   0.00   0.06   0.00   0.00   0.00   0.00   0.00   0.00   0.00   0.00   0.00   0.00      0      0      0       0       0
 2002 313    11     8    0.0      0   0.00      0      0      0      0      0      0    0.0  0.000      0      0  0.000  0.000  0.000  0.000   0.00   0.00   0.00      0      0      0.0   0.00   0.00   0.08   0.00   0.00   0.00   0.00   0.00   0.00   0.00   0.00   0.00   0.00      0      0      0       0       0
 2002 314    12     9    0.0      0   0.00      0      0      0      0      0      0    0.0  0.000      0      0  0.000  0.000  0.000  0.000   0.00   0.00   0.00      0      0      0.0   0.00   0.00   0.08   0.00   0.00   0.00   0.00   0.00   0.00   0.00   0.00   0.00   0.00      0      0      0       0       0
 2002 315    13    10    0.0      0   0.00      0      0      0      0      0      0    0.0  0.000      0      0  0.000  0.000  0.000  0.000   0.00   0.00   0.00      0      0      0.0   0.00   0.00   0.09   0.00   0.00   0.00   0.00   0.00   0.00   0.00   0.00   0.00   0.00      0      0      0       0       0
 2002 316    14    11    0.0      0   0.00      0      0      0      0      0      0    0.0  0.000      0      0  0.000  0.000  0.000  0.000   0.00   0.00   0.00      0      0      0.0   0.00   0.00   0.11   0.00   0.00   0.00   0.00   0.00   0.00   0.00   0.00   0.00   0.00      0      0      0       0       0
 2002 317    15    12    2.0      1   0.00     14     14      0     14     28      0    0.0  0.000      0      0  0.000  0.000  0.012  0.000   4.40   0.00   0.00      0      0     32.8   0.00   0.00   0.13   0.28   0.09   0.00   0.00   0.00   0.00   0.00   0.00   0.00   0.00      0      0      0       0       0
 2002 318    16    13    2.0      1   0.01     14     14      0     15     28      0    0.0  0.000      0      0  0.000  0.000  0.012  0.000   4.50   0.00   0.00      0      0     65.9   0.00   0.00   0.15   0.28   0.11   0.00   0.00   0.00   0.00   0.00   0.00   0.00   0.00      0      0      0       0       0
[...]
 2013 350    48    45   15.0      3   1.35   1168    245      0   1966   1413      0    0.0  0.000      0      0  0.799  0.866  0.170  0.000   1.41   0.00   0.00      0      0    115.9   0.00   0.00   0.60   0.74   3.98   3.81   3.98   4.00   0.00   0.00   0.00   0.00   0.00      0      0      0       0     123
 2013 351    49    46   15.0      3   1.32   1189    278      0   1964   1467      0    0.0  0.000      0      0  0.839  0.893  0.168  0.000   1.37   0.00   0.00      0      0    111.2   0.00   0.00   0.61   0.74   3.98   3.80   3.96   4.00   0.00   0.00   0.00   0.00   0.00      0      0      0       0     133
 2013 352    50    47   16.0      3   1.28   1203    310      0   1964   1514      0    0.0  0.000      0      0  0.843  0.896  0.178  0.000   1.34   0.00   0.00      0      0    106.6   0.00   0.00   0.62   0.74   3.96   3.78   3.95   4.00   0.01   0.00   0.00   0.00   0.00      0      0      0       0     143
 2013 353    51    48   16.0      3   1.24   1213    335      0   1967   1548      0    0.0  0.000      0      0  0.864  0.910  0.182  0.000   1.32   0.00   0.00      0      0    102.1   0.00   0.00   0.63   0.73   3.94   3.77   3.94   4.00   0.04   0.00   0.00   0.00   0.00      0      0      0       0     153
 2013 354    52    49   17.0      3   1.20   1226    369      0   1973   1595      0    0.0  0.000      0      0  0.806  0.871  0.182  0.000   1.31   0.00   0.00      0      0     98.2   0.00   0.00   0.64   0.73   3.92   3.75   3.92   4.00   0.08   0.00   0.00   0.00   0.00      0      0      0       0     163
 2013 355    53    50   17.0      3   1.16   1234    396      0   1976   1630      0    0.0  0.000      0      0  0.857  0.905  0.174  0.000   1.32   0.00   0.00      0      0     94.1   0.00   0.00   0.64   0.72   3.90   3.73   3.90   4.00   0.13   0.00   0.00   0.00   0.00      0      0      0       0     172
 2013 356    54    51   18.0      3   1.13   1247    437      0   1983   1684      0    0.0  0.000      0      0  0.794  0.863  0.164  0.000   1.33   0.00   0.00      0      0     90.6   0.00   0.00   0.65   0.72   3.88   3.71   3.88   4.00   0.20   0.00   0.00   0.00   0.00      0      0      0       0     182
 2013 357    55    52   18.0      3   1.10   1261    486      0   1991   1747      0    0.0  0.000      0      0  0.763  0.843  0.149  0.000   1.33   0.00   0.00      0      0     87.5   0.00   0.00   0.66   0.71   3.86   3.69   3.86   4.00   0.30   0.00   0.00   0.00   0.00      0      0      0       0     192
 2013 358    56    53   18.0      3   1.08   1275    542      0   2001   1817      0    0.0  0.000      0      0  0.736  0.824  0.137  0.000   1.34   0.00   0.00      0      0     84.6   0.00   0.00   0.68   0.71   3.84   3.68   3.84   4.00   0.44   0.00   0.00   0.00   0.00      0      0      0       0     202
 2013 359    57    54   18.0      3   1.06   1290    597      0   2007   1888      0    0.0  0.000      0      0  0.750  0.834  0.129  0.000   1.34   0.00   0.00      0      0     81.8   0.00   0.00   0.69   0.71   3.82   3.66   3.82   4.00   0.56   0.00   0.00   0.00   0.00      0      0      0       0     212
 2013 360    58    55   18.0      3   1.04   1307    659      0   2001   1965      0    0.0  0.000      0      0  0.743  0.829  0.123  0.000   1.33   0.00   0.00      0      0     79.2   0.00   0.00   0.70   0.70   3.80   3.64   3.80   3.98   0.60   0.00   0.00   0.00   0.00      0      0      0       0     222
 2013 361    59    56   18.0      3   1.01   1319    707      0   1998   2027      0    0.0  0.000      0      0  0.774  0.850  0.119  0.000   1.33   0.00   0.00      0      0     76.5   0.00   0.00   0.72   0.70   3.78   3.62   3.78   3.96   0.66   0.00   0.00   0.00   0.00      0      0      0       0     232
 2013 362    60    57   18.0      4   0.97   1303    603      0   1995   2060      0    0.0  0.000    154      0  0.817  0.878  0.116  0.000   1.46   0.00   0.07      0    154     74.3   0.00   0.00   0.73   0.69   3.76   3.60   3.76   3.94   0.72   0.00   0.00   0.00   0.00      0      0      0       0     242
 2013 363    61    58   18.0      4   0.93   1285    619      0   1987   2097      0    0.0  0.000    193      0  0.774  0.850  0.111  0.000   1.49   0.00   0.09      0    193     72.5   0.00   0.00   0.74   0.69   3.74   3.58   3.74   3.93   0.74   0.00   0.00   0.00   0.00      0      0      0       0     252
 2013 364    62    59   18.0      4   0.89   1265    634      0   1982   2128      0    0.0  0.000    229      0  0.828  0.886  0.081  0.000   1.52   0.00   0.11      0    229     70.6   0.00   0.00   0.75   0.70   3.72   3.56   3.72   3.91   0.79   0.00   0.00   0.00   0.00      0      0      0       0     262
 2013 365    63    60   18.0      4   0.86   1244    648      0   1975   2157      0    0.0  0.000    265      0  0.729  0.820  0.072  0.000   1.55   0.00   0.12      0    265     69.1   0.00   0.00   0.76   0.69   3.70   3.55   3.71   3.89   0.80   0.00   0.00   0.00   0.00      0      0      0       0     272
 2014 001    64    61   18.0      4   0.83   1221    662      0   1967   2185      0    0.0  0.000    301      0  0.808  0.872  0.063  0.000   1.62   0.00   0.14      0    301     67.6   0.00   0.00   0.77   0.69   3.69   3.53   3.69   3.87   0.81   0.00   0.00   0.00   0.00      0      0      0       0     282
 2014 002    65    62   18.0      4   0.82   1198    690      0   1961   2257      0    0.0  0.000    370      0  0.000  0.000  0.051  0.000   1.66   0.00   0.16      0    370     68.5   0.00   0.00   0.78   0.69   3.67   3.51   3.68   3.87   0.82   0.00   0.00   0.00   0.00      0      0      0       0     292
 2014 003    66    63   18.0      4   0.82   1173    747      0   2010   2433      0    0.0  0.000    513      0  0.000  0.000  0.043  0.000   1.70   0.00   0.21      0    513     69.5   0.00   0.00   0.79   0.74   3.70   3.52   3.69   4.00   1.02   0.00   0.00   0.00   0.00      0      0      0       0     302
 2014 004    67    64   18.0      4   0.81   1147    819      0   2034   2659      0    0.0  0.000    693      0  0.000  0.000  0.035  0.000   1.71   0.00   0.26      0    693     70.8   0.00   0.00   0.80   0.74   3.72   3.52   3.68   4.00   1.15   0.00   0.00   0.00   0.00      0      0      0       0     312
 2014 005    68    65   18.0      4   0.81   1120    903      0   2036   2924      0    0.0  0.000    902      0  0.000  0.000  0.031  0.000   1.70   0.00   0.31      0    902     72.2   0.00   0.00   0.80   0.73   3.72   3.51   3.67   4.00   1.20   0.00   0.00   0.00   0.00      0      0      0       0     322
 2014 006    69    66   18.0      4   0.81   1091    986      0   2039   3188      0    0.0  0.000   1111      0  0.000  0.000  0.027  0.000   1.70   0.00   0.35      0   1111     73.9   0.00   0.00   0.80   0.74   3.71   3.50   3.65   4.00   1.25   0.00   0.00   0.00   0.00      0      0      0       0     332
 2014 007    70    67   18.0      4   0.80   1061   1011      0   2033   3244      0    0.0  0.000   1172      0  0.000  0.000  0.026  0.000   1.73   0.00   0.36      0   1172     75.7   0.00   0.00   0.80   0.75   3.70   3.48   3.64   3.98   1.26   0.00   0.00   0.00   0.00      0      0      0       0     342
 2014 008    71    68   18.0      5   0.80   1061   1011    111   2071   3355   1562    7.1  0.033   1283      7  0.000  0.000  0.018  0.000   1.65   8.68   0.38      0   1283     75.5   0.00   0.00   0.80   0.89   3.83   3.54   3.67   4.00   1.50   0.00   0.00   0.00   0.00      0      0      0       0     352
 2014 009    72    69   18.0      5   0.80   1061   1011    229   2093   3472   1562   14.6  0.066   1400      7  0.000  0.000  0.035  0.000   1.58  16.32   0.40      0   1400     75.2   0.00   0.00   0.80   1.00   3.92   3.57   3.70   4.00   1.63   0.00   0.00   0.00   0.00      0      0      0       0     363
 2014 010    73    70   18.0      5   0.79   1061   1011    346   2106   3590   1562   22.1  0.096   1517      7  0.000  0.000  0.049  0.000   1.50  22.78   0.42      0   1517     74.7   0.00   0.00   0.80   1.10   4.00   3.60   3.72   4.00   1.68   0.00   0.00   0.00   0.00      0      0      0       0     373
 2014 011    74    71   18.0      5   0.79   1061   1011    426   2133   3670   1562   27.3  0.116   1597      7  0.000  0.000  0.068  0.000   1.45  26.65   0.44      0   1597     74.1   0.00   0.00   0.80   1.09   4.00   3.69   3.78   4.00   1.73   0.00   0.00   0.00   0.00      0      0      0       0     384
 2014 012    75    72   18.0      5   0.78   1061   1011    491   2167   3735   1562   31.4  0.131   1663      7  0.000  0.000  0.078  0.000   1.41  29.53   0.45      0   1663     73.4   0.00   0.00   0.80   1.09   4.00   3.81   3.86   4.00   1.78   0.00   0.00   0.00   0.00      0      0      0       0     394
 2014 013    76    73   18.0      5   0.77   1061   1011    593   2196   3837   1562   38.0  0.155   1765      7  0.000  0.000  0.084  0.000   1.35  33.61   0.46      0   1765     72.6   0.00   0.00   0.80   1.08   4.00   3.91   3.93   4.00   1.82   0.00   0.00   0.00   0.00      0      0      0       0     405
 2014 014    77    74   18.0      5   0.76   1061   1011    710   2226   3954   1562   45.5  0.180   1882      7  0.000  0.000  0.098  0.000   1.28  37.74   0.48      0   1882     71.7   0.00   0.00   0.80   1.07   4.00   4.00   4.00   4.00   1.86   0.00   0.00   0.00   0.00      0      0      0       0     416
 2014 015    78    75   18.0      5   0.75   1061   1011    828   2254   4071   1562   53.0  0.203   1999      7  0.000  0.000  0.113  0.000   1.22  41.39   0.49      0   1999     70.7   0.00   0.00   0.80   1.07   4.00   4.00   4.00   4.00   1.90   0.00   0.00   0.00   0.00      0      0      0       0     427
 2014 016    79    76   18.0      5   0.74   1061   1011    945   2282   4189   1562   60.5  0.226   2116      7  0.000  0.000  0.127  0.000   1.16  44.64   0.51      0   2116     69.6   0.00   0.00   0.80   1.06   4.00   4.00   4.00   4.00   1.94   0.00   0.00   0.00   0.00      0      0      0       0     439
 2014 017    80    77   18.0      5   0.73   1061   1011   1062   2301   4306   1562   68.0  0.247   2234      7  0.000  0.000  0.141  0.000   1.09  47.54   0.52      0   2234     68.4   0.00   0.00   0.80   1.05   4.00   4.00   4.00   4.00   1.97   0.00   0.00   0.00   0.00      0      0      0       0     450
 2014 018    81    78   18.0      5   0.71   1061   1011   1179   2326   4423   1562   75.5  0.267   2351      7  0.000  0.000  0.156  0.000   1.04  50.15   0.53      0   2351     67.0   0.00   0.00   0.80   1.05   4.00   4.00   4.00   4.00   2.00   0.00   0.00   0.00   0.00      0      0      0       0     461
 2014 019    82    79   18.0      5   0.70   1061   1011   1296   2341   4540   1562   83.0  0.285   2468      7  0.000  0.000  0.172  0.000   0.98  52.52   0.54      0   2468     65.6   0.00   0.00   0.80   1.04   4.00   4.00   4.00   4.00   2.03   0.00   0.00   0.00   0.00      0      0      0       0     473
 2014 020    83    80   18.0      5   0.68   1061   1011   1413   2336   4657   1562   90.5  0.303   2585      7  0.000  0.000  0.186  0.000   0.94  54.67   0.56      0   2585     64.1   0.00   0.00   0.80   1.08   4.00   4.00   3.99   3.99   2.02   0.00   0.00   0.00   0.00      0      0      0       0     485
 2014 021    84    81   18.0      5   0.66   1061    983   1530   2325   4747   1562   98.0  0.322   2702      7  0.000  0.000  0.199  0.000   0.91  56.64   0.57      0   2702     62.5   0.00   0.00   0.80   1.08   4.00   4.00   3.99   3.99   2.02   0.00   0.00   0.00   0.00      0      0      0       0     496
 2014 022    85    82   18.0      5   0.65   1061   1011   1648   2328   4891   1562  105.5  0.337   2819      7  0.000  0.000  0.232  0.000   0.85  58.44   0.58      0   2819     60.8   0.00   0.00   0.80   1.15   4.00   4.00   4.00   3.99   2.03   0.00   0.00   0.00   0.00      0      0      0       0     508
 2014 023    86    83   18.0      5   0.63   1061   1011   1765   2319   5008   1562  113.0  0.352   2936      7  0.000  0.000  0.260  0.000   0.79  60.10   0.59      0   2936     59.1   0.00   0.00   0.80   1.16   3.99   3.99   3.98   3.98   2.02   0.00   0.00   0.00   0.00      0      0      0       0     520
 2014 024    87    84   18.0      5   0.61   1061    979   1850   2307   5062   1562  118.4  0.365   3022      7  0.000  0.000  0.341  0.000   0.77  61.22   0.60      0   3022     57.3   0.00   0.00   0.80   1.16   3.99   3.99   3.98   3.98   2.02   0.00   0.00   0.00   0.00      0      0      0       0     531
 2014 025    88    85   18.0      5   0.59   1061   1011   1908   2321   5151   1562  122.1  0.370   3079      7  0.000  0.000  0.385  0.000   0.73  61.95   0.60      0   3079     55.4   0.00   0.00   0.80   1.29   4.00   4.00   4.00   4.00   2.04   0.00   0.00   0.00   0.00      0      0      0       0     543
 2014 026    89    86   18.0      5   0.57   1061   1011   1997   2323   5241   1562  127.9  0.381   3169      7  0.000  0.000  0.392  0.000   0.69  63.02   0.60      0   3169     53.6   0.00   0.00   0.80   1.28   4.00   4.00   4.00   4.00   2.04   0.00   0.00   0.00   0.00      0      0      0       0     554
 2014 027    90    87   18.0      5   0.55   1061    954   2114   2311   5302   1562  135.4  0.399   3286      7  0.000  0.000  0.450  0.000   0.67  64.34   0.62      0   3286     51.7   0.00   0.00   0.80   1.28   4.00   4.00   4.00   4.00   2.04   0.00   0.00   0.00   0.00      0      0      0       0     566
 2014 028    91    88   18.0      5   0.53   1061    872   2231   2300   5336   1562  142.9  0.418   3403      7  0.000  0.000  0.502  0.000   0.66  65.57   0.64      0   3403     49.8   0.00   0.00   0.80   1.28   4.00   4.00   4.00   4.00   2.04   0.00   0.00   0.00   0.00      0      0      0       0     578
 2014 029    92    89   18.0      5   0.51   1061    790   2348   2288   5371   1562  150.4  0.437   3520      7  0.000  0.000  0.517  0.000   0.65  66.71   0.66      0   3520     47.9   0.00   0.00   0.80   1.28   4.00   4.00   4.00   4.00   2.04   0.00   0.00   0.00   0.00      0      0      0       0     589
 2014 030    93    90   18.0      5   0.49   1061    726   2466   2277   5425   1562  157.9  0.455   3637      7  0.000  0.000  0.530  0.000   0.64  67.79   0.67      0   3637     46.0   0.00   0.00   0.80   1.28   4.00   4.00   4.00   4.00   2.04   0.00   0.00   0.00   0.00      0      0      0       0     601
 2014 031    94    91   18.0      5   0.47   1061    698   2583   2266   5514   1562  165.4  0.468   3755      7  0.000  0.000  0.529  0.000   0.63  68.79   0.68      0   3755     44.2   0.00   0.00   0.80   1.28   4.00   4.00   4.00   4.00   2.04   0.00   0.00   0.00   0.00      0      0      0       0     612
 2014 032    95    92   18.0      5   0.45   1061    616   2698   2254   5547   1562  172.7  0.486   3870      7  0.000  0.000  0.526  0.000   0.63  69.72   0.70      0   3870     42.5   0.00   0.00   0.80   1.28   4.00   4.00   4.00   4.00   2.04   0.00   0.00   0.00   0.00      0      0      0       0     623
 2014 033    96    93   18.0      5   0.43   1061    540   2807   2243   5580   1562  179.7  0.503   3978      7  0.000  0.000  0.549  0.000   0.62  70.55   0.71      0   3978     40.8   0.00   0.00   0.80   1.28   4.00   4.00   4.00   4.00   2.04   0.00   0.00   0.00   0.00      0      0      0       0     635
 2014 034    97    94   18.0      5   0.42   1061    501   2835   2232   5569   1562  181.5  0.509   4007      7  0.000  0.000  0.549  0.000   0.63  70.76   0.72      0   4007     39.2   0.00   0.00   0.80   1.28   4.00   4.00   4.00   4.00   2.04   0.00   0.00   0.00   0.00      0      0      0       0     646
 2014 035    98    95   18.0      5   0.40   1061    501   2904   2221   5638   1562  186.0  0.515   4076      7  0.000  0.000  0.508  0.000   0.60  71.25   0.72      0   4076     37.7   0.00   0.00   0.80   1.28   4.00   4.00   4.00   4.00   2.04   0.00   0.00   0.00   0.00      0      0      0       0     657
 2014 036    99    96   18.0      5   0.39   1061    501   2975   2210   5709   1562  190.5  0.521   4146      7  0.000  0.000  0.520  0.000   0.58  71.74   0.73      0   4146     36.3   0.00   0.00   0.80   1.28   4.00   4.00   4.00   4.00   2.04   0.00   0.00   0.00   0.00      0      0      0       0     668
 2014 037   100    97   18.0      5   0.37   1061    501   2997   2198   5731   1562  191.9  0.523   4169      7  0.000  0.000  0.551  0.000   0.57  71.89   0.73      0   4169     34.9   0.00   0.00   0.80   1.28   4.00   4.00   4.00   4.00   2.04   0.00   0.00   0.00   0.00      0      0      0       0     679
 2014 038   101    98   18.0      5   0.36   1061    501   3019   2187   5753   1562  193.3  0.525   4191      7  0.000  0.000  0.560  0.000   0.57  72.04   0.73      0   4191     33.5   0.00   0.00   0.80   1.28   4.00   4.00   4.00   4.00   2.04   0.00   0.00   0.00   0.00      0      0      0       0     690
 2014 039   102    99   18.0      5   0.34   1061    501   3072   2177   5806   1562  196.7  0.529   4244      7  0.000  0.000  0.566  0.000   0.54  72.39   0.73      0   4244     32.1   0.00   0.00   0.80   1.28   4.00   4.00   4.00   4.00   2.04   0.00   0.00   0.00   0.00      0      0      0       0     701
 2014 040   103   100   18.0      5   0.33   1061    501   3105   2166   5839   1562  198.8  0.532   4277      7  0.000  0.000  0.602  0.000   0.53  72.60   0.73      0   4277     30.8   0.00   0.00   0.80   1.28   4.00   4.00   4.00   4.00   2.04   0.00   0.00   0.00   0.00      0      0      0       0     712
 2014 041   104   101   18.0      5   0.31   1061    501   3136   2155   5870   1562  200.8  0.534   4308      7  0.000  0.000  0.620  0.000   0.52  72.80   0.73      0   4308     29.5   0.00   0.00   0.80   1.28   4.00   4.00   4.00   4.00   2.04   0.00   0.00   0.00   0.00      0      0      0       0     723
 2014 042   105   102   18.0      5   0.30   1061    501   3169   2144   5903   1562  202.9  0.537   4341      7  0.000  0.000  0.636  0.000   0.51  73.01   0.74      0   4341     28.2   0.00   0.00   0.80   1.28   4.00   4.00   4.00   4.00   2.04   0.00   0.00   0.00   0.00      0      0      0       0     733
 2014 043   106   103   18.0      5   0.30   1061    501   3169   2144   5903   1562  202.9  0.537   4341      7  0.000  0.000  0.636  0.000   0.51  73.01   0.74      0   4341     28.2   0.00   0.00   0.80   1.28   4.00   4.00   4.00   4.00   2.04   0.00   0.00   0.00   0.00      0      0      0       0     733
 2014 044   107   104   18.0      5   0.30   1061    501   3169   2144   5903   1562  202.9  0.537   4341      7  0.000  0.000  0.636  0.000   0.51  73.01   0.74      0   4341     28.2   0.00   0.00   0.80   1.28   4.00   4.00   4.00   4.00   2.04   0.00   0.00   0.00   0.00      0      0      0       0     733
 2014 045   108   105   18.0      5   0.30   1061    501   3169   2144   5903   1562  202.9  0.537   4341      7  0.000  0.000  0.636  0.000   0.51  73.01   0.74      0   4341     28.2   0.00   0.00   0.80   1.28   4.00   4.00   4.00   4.00   2.04   0.00   0.00   0.00   0.00      0      0      0       0     733
 2014 046   109   106   18.0      5   0.30   1061    501   3169   2144   5903   1562  202.9  0.537   4341      7  0.000  0.000  0.636  0.000   0.51  73.01   0.74      0   4341     28.2   0.00   0.00   0.80   1.28   4.00   4.00   4.00   4.00   2.04   0.00   0.00   0.00   0.00      0      0      0       0     733
 2014 047   110   107   18.0      5   0.30   1061    501   3169   2144   5903   1562  202.9  0.537   4341      7  0.000  0.000  0.636  0.000   0.51  73.01   0.74      0   4341     28.2   0.00   0.00   0.80   1.28   4.00   4.00   4.00   4.00   2.04   0.00   0.00   0.00   0.00      0      0      0       0     733
