*SOIL TEMPERATURE OUTPUT FILE (DAILY)

*DSSAT Cropping System Model Ver. 4.0.2.000               Aug 16, 2016; 17:55:43

*RUN   1        : UYMZ                    
 MODEL          : MZCER040 - Maize           
 EXPERIMENT     : UYMZ0214 MZ    late to create DSS                             
 TREATMENT  1   : UYMZ                    

@YEAR DOY   DAS  TS1D  TS2D  TS3D  TS4D  TS5D  TS6D  TS7D  TS8D  TS9D  TS10
 2000 302     0  16.5  16.2  15.8  15.6  15.6  15.7  15.9   0.0   0.0   0.0
 2000 303     1  16.4  16.0  15.6  15.5  15.5  15.6  15.9   0.0   0.0   0.0
 2000 304     2  17.7  17.2  16.6  16.2  16.0  16.0  16.1   0.0   0.0   0.0
 2000 305     3  18.9  18.2  17.4  16.7  16.4  16.3  16.4   0.0   0.0   0.0
 2000 306     4  20.0  19.2  18.1  17.3  16.9  16.6  16.6   0.0   0.0   0.0
 2000 307     5  21.5  20.5  19.2  18.1  17.4  17.0  16.8   0.0   0.0   0.0
 2000 308     6  22.4  21.3  19.8  18.5  17.8  17.3  17.0   0.0   0.0   0.0
 2000 309     7  21.6  20.6  19.2  18.1  17.5  17.0  16.8   0.0   0.0   0.0
 2000 310     8  21.5  20.4  19.1  18.0  17.4  17.0  16.8   0.0   0.0   0.0
 2000 311     9  21.1  20.2  18.9  17.9  17.3  16.9  16.7   0.0   0.0   0.0
 2000 312    10  20.6  19.7  18.5  17.6  17.1  16.7  16.6   0.0   0.0   0.0
 2000 313    11  20.5  19.6  18.5  17.6  17.0  16.7  16.6   0.0   0.0   0.0
 2000 314    12  20.6  19.7  18.5  17.6  17.1  16.7  16.6   0.0   0.0   0.0
 2000 315    13  20.2  19.4  18.3  17.4  16.9  16.6  16.5   0.0   0.0   0.0
 2000 316    14  20.6  19.7  18.5  17.6  17.1  16.7  16.6   0.0   0.0   0.0
 2000 317    15  21.0  20.1  18.8  17.8  17.2  16.8  16.7   0.0   0.0   0.0
 2000 318    16  21.1  20.1  18.9  17.9  17.2  16.8  16.7   0.0   0.0   0.0
 2000 319    17  20.0  19.2  18.2  17.3  16.8  16.6  16.5   0.0   0.0   0.0
 2000 320    18  19.2  18.5  17.6  16.9  16.5  16.3  16.3   0.0   0.0   0.0
 2000 321    19  18.8  18.1  17.3  16.7  16.4  16.2  16.2   0.0   0.0   0.0
 2000 322    20  19.7  19.0  18.0  17.2  16.7  16.5  16.4   0.0   0.0   0.0
 2000 323    21  21.1  20.2  18.9  17.9  17.3  16.8  16.6   0.0   0.0   0.0
 2000 324    22  22.4  21.3  19.8  18.5  17.7  17.2  16.9   0.0   0.0   0.0
 2000 325    23  23.5  22.2  20.5  19.1  18.1  17.5  17.1   0.0   0.0   0.0
 2000 326    24  24.0  22.7  20.9  19.4  18.4  17.6  17.2   0.0   0.0   0.0
 2000 327    25  23.5  22.3  20.6  19.1  18.2  17.5  17.1   0.0   0.0   0.0
 2000 328    26  23.7  22.5  20.7  19.2  18.3  17.5  17.1   0.0   0.0   0.0
 2000 329    27  23.2  22.0  20.4  19.0  18.1  17.4  17.0   0.0   0.0   0.0
 2000 330    28  23.4  22.2  20.5  19.1  18.2  17.5  17.0   0.0   0.0   0.0
 2000 331    29  23.7  22.4  20.7  19.2  18.2  17.5  17.1   0.0   0.0   0.0
 2000 332    30  24.5  23.1  21.3  19.7  18.6  17.8  17.2   0.0   0.0   0.0
 2000 333    31  23.3  22.1  20.4  19.0  18.1  17.4  17.0   0.0   0.0   0.0
 2000 334    32  23.4  22.2  20.5  19.1  18.1  17.5  17.0   0.0   0.0   0.0
 2000 335    33  23.5  22.3  20.6  19.2  18.2  17.5  17.0   0.0   0.0   0.0
 2000 336    34  23.4  22.2  20.6  19.1  18.2  17.5  17.0   0.0   0.0   0.0
 2000 337    35  23.1  21.9  20.3  19.0  18.0  17.4  17.0   0.0   0.0   0.0
 2000 338    36  22.8  21.6  20.1  18.8  17.9  17.3  16.9   0.0   0.0   0.0
 2000 339    37  22.8  21.7  20.2  18.9  18.0  17.3  16.9   0.0   0.0   0.0
 2000 340    38  23.3  22.1  20.5  19.1  18.1  17.4  17.0   0.0   0.0   0.0
 2000 341    39  24.2  22.9  21.1  19.6  18.5  17.7  17.2   0.0   0.0   0.0
 2000 342    40  25.0  23.6  21.6  19.9  18.8  17.9  17.3   0.0   0.0   0.0
 2000 343    41  26.7  25.1  22.8  20.8  19.4  18.3  17.6   0.0   0.0   0.0
 2000 344    42  28.1  26.3  23.8  21.5  20.0  18.7  17.9   0.0   0.0   0.0
 2000 345    43  28.5  26.6  24.0  21.7  20.1  18.8  17.9   0.0   0.0   0.0
 2000 346    44  28.3  26.4  23.9  21.6  20.0  18.8  17.9   0.0   0.0   0.0
 2000 347    45  28.8  26.9  24.2  21.9  20.2  18.9  18.0   0.0   0.0   0.0
 2000 348    46  29.1  27.2  24.5  22.1  20.3  19.0  18.0   0.0   0.0   0.0
 2000 349    47  29.6  27.6  24.8  22.3  20.5  19.1  18.1   0.0   0.0   0.0
 2000 350    48  28.8  26.9  24.3  22.0  20.3  18.9  18.0   0.0   0.0   0.0
 2000 351    49  27.3  25.6  23.3  21.2  19.7  18.5  17.7   0.0   0.0   0.0
 2000 352    50  26.3  24.8  22.7  20.7  19.3  18.3  17.5   0.0   0.0   0.0
 2000 353    51  26.0  24.5  22.4  20.5  19.2  18.2  17.5   0.0   0.0   0.0
 2000 354    52  25.5  24.1  22.1  20.3  19.0  18.1  17.4   0.0   0.0   0.0
 2000 355    53  25.6  24.1  22.1  20.3  19.1  18.1  17.4   0.0   0.0   0.0
 2000 356    54  26.7  25.1  22.9  20.9  19.5  18.4  17.6   0.0   0.0   0.0
 2000 357    55  26.7  25.1  22.9  20.9  19.5  18.4  17.6   0.0   0.0   0.0
 2000 358    56  25.1  23.8  21.9  20.1  18.9  18.0  17.3   0.0   0.0   0.0
 2000 359    57  25.0  23.7  21.8  20.1  18.9  17.9  17.3   0.0   0.0   0.0
 2000 360    58  26.9  25.3  23.1  21.1  19.6  18.5  17.6   0.0   0.0   0.0
 2000 361    59  28.1  26.3  23.9  21.6  20.0  18.8  17.9   0.0   0.0   0.0
 2000 362    60  27.8  26.1  23.8  21.7  20.1  18.8  17.9   0.0   0.0   0.0
 2000 363    61  28.8  27.0  24.5  22.2  20.5  19.1  18.1   0.0   0.0   0.0
 2000 364    62  28.4  26.6  24.2  22.0  20.3  19.0  18.0   0.0   0.0   0.0
 2000 365    63  26.5  25.1  23.0  21.1  19.6  18.5  17.7   0.0   0.0   0.0
 2000 366    64  25.6  24.3  22.4  20.6  19.3  18.2  17.5   0.0   0.0   0.0
 2001 001    65  26.5  25.0  22.9  21.0  19.6  18.4  17.6   0.0   0.0   0.0
 2001 002    66  27.7  26.0  23.7  21.6  20.0  18.7  17.9   0.0   0.0   0.0
 2001 003    67  29.1  27.3  24.7  22.3  20.5  19.1  18.1   0.0   0.0   0.0
 2001 004    68  31.1  29.0  26.0  23.3  21.3  19.7  18.5   0.0   0.0   0.0
 2001 005    69  32.4  30.1  26.9  24.0  21.8  20.0  18.7   0.0   0.0   0.0
 2001 006    70  32.5  30.2  27.0  24.0  21.8  20.0  18.7   0.0   0.0   0.0
 2001 007    71  31.6  29.4  26.4  23.6  21.5  19.8  18.6   0.0   0.0   0.0
 2001 008    72  30.6  28.6  25.7  23.1  21.1  19.5  18.4   0.0   0.0   0.0
 2001 009    73  30.0  28.0  25.3  22.8  20.9  19.4  18.3   0.0   0.0   0.0
 2001 010    74  27.8  26.2  23.9  21.7  20.1  18.8  17.9   0.0   0.0   0.0
 2001 011    75  26.0  24.6  22.7  20.8  19.5  18.4  17.6   0.0   0.0   0.0
 2001 012    76  25.5  24.2  22.3  20.6  19.3  18.2  17.5   0.0   0.0   0.0
 2001 013    77  25.6  24.3  22.4  20.6  19.3  18.3  17.5   0.0   0.0   0.0
 2001 014    78  25.1  23.9  22.1  20.4  19.1  18.1  17.4   0.0   0.0   0.0
 2001 015    79  26.1  24.7  22.7  20.9  19.5  18.4  17.6   0.0   0.0   0.0
 2001 016    80  27.7  26.1  23.8  21.7  20.1  18.8  17.9   0.0   0.0   0.0
 2001 017    81  28.9  27.2  24.7  22.3  20.6  19.2  18.1   0.0   0.0   0.0
 2001 018    82  28.1  26.5  24.2  22.0  20.3  19.0  18.0   0.0   0.0   0.0
 2001 019    83  27.0  25.6  23.5  21.5  20.0  18.8  17.9   0.0   0.0   0.0
 2001 020    84  26.4  25.0  23.0  21.2  19.8  18.6  17.8   0.0   0.0   0.0
 2001 021    85  25.4  24.2  22.4  20.7  19.4  18.4  17.6   0.0   0.0   0.0
 2001 022    86  25.0  23.8  22.1  20.5  19.3  18.3  17.5   0.0   0.0   0.0
 2001 023    87  26.4  25.1  23.1  21.2  19.8  18.6  17.8   0.0   0.0   0.0
 2001 024    88  28.1  26.5  24.3  22.1  20.5  19.1  18.1   0.0   0.0   0.0
 2001 025    89  29.2  27.4  25.0  22.6  20.9  19.4  18.3   0.0   0.0   0.0
 2001 026    90  30.1  28.2  25.6  23.1  21.2  19.7  18.5   0.0   0.0   0.0
 2001 027    91  29.6  27.8  25.3  22.9  21.1  19.6  18.4   0.0   0.0   0.0
 2001 028    92  28.5  26.9  24.6  22.4  20.7  19.3  18.2   0.0   0.0   0.0
 2001 029    93  27.3  25.8  23.8  21.8  20.3  19.0  18.0   0.0   0.0   0.0
 2001 030    94  26.8  25.4  23.4  21.5  20.1  18.8  17.9   0.0   0.0   0.0
 2001 031    95  26.3  25.0  23.1  21.3  19.9  18.7  17.8   0.0   0.0   0.0
 2001 032    96  26.2  25.0  23.1  21.3  19.9  18.7  17.8   0.0   0.0   0.0
 2001 033    97  26.8  25.5  23.5  21.6  20.1  18.9  17.9   0.0   0.0   0.0
 2001 034    98  27.0  25.6  23.6  21.7  20.2  18.9  18.0   0.0   0.0   0.0
 2001 035    99  26.9  25.6  23.6  21.7  20.2  18.9  18.0   0.0   0.0   0.0
 2001 036   100  27.3  25.9  23.9  21.9  20.3  19.0  18.0   0.0   0.0   0.0
 2001 037   101  27.6  26.1  24.0  22.0  20.4  19.1  18.1   0.0   0.0   0.0
 2001 038   102  27.9  26.4  24.3  22.3  20.7  19.3  18.2   0.0   0.0   0.0
 2001 039   103  28.5  27.0  24.8  22.6  20.9  19.4  18.3   0.0   0.0   0.0
 2001 040   104  29.4  27.7  25.3  23.0  21.2  19.7  18.5   0.0   0.0   0.0
 2001 041   105  28.8  27.2  24.9  22.7  21.0  19.5  18.4   0.0   0.0   0.0
 2001 042   106  27.0  25.7  23.8  21.9  20.4  19.1  18.1   0.0   0.0   0.0
 2001 043   107  25.5  24.4  22.8  21.2  19.9  18.8  17.9   0.0   0.0   0.0
 2001 044   108  25.0  24.0  22.5  20.9  19.7  18.6  17.8   0.0   0.0   0.0
 2001 045   109  23.9  23.0  21.7  20.4  19.3  18.3  17.6   0.0   0.0   0.0
 2001 046   110  24.0  23.1  21.8  20.4  19.3  18.4  17.6   0.0   0.0   0.0
 2001 047   111  25.8  24.7  23.0  21.4  20.0  18.9  18.0   0.0   0.0   0.0
 2001 048   112  26.9  25.6  23.8  21.9  20.5  19.2  18.2   0.0   0.0   0.0
 2001 049   113  27.7  26.4  24.4  22.4  20.8  19.4  18.3   0.0   0.0   0.0
 2001 050   114  28.5  27.0  24.9  22.8  21.1  19.6  18.5   0.0   0.0   0.0
 2001 051   115  29.3  27.8  25.5  23.2  21.5  19.9  18.7   0.0   0.0   0.0
 2001 052   116  30.0  28.3  25.9  23.6  21.7  20.1  18.8   0.0   0.0   0.0
 2001 053   117  30.6  28.9  26.4  23.9  22.0  20.3  18.9   0.0   0.0   0.0

*DSSAT Cropping System Model Ver. 4.0.2.000               Aug 16, 2016; 17:55:43

*RUN   2        : UYMZ                    
 MODEL          : MZCER040 - Maize           
 EXPERIMENT     : UYMZ0214 MZ    late to create DSS                             
 TREATMENT  1   : UYMZ                    

@YEAR DOY   DAS  TS1D  TS2D  TS3D  TS4D  TS5D  TS6D  TS7D  TS8D  TS9D  TS10
 2001 302     0  20.7  19.8  18.6  17.7  17.2  16.8  16.7   0.0   0.0   0.0
 2001 303     1  20.3  19.4  18.3  17.5  17.0  16.7  16.6   0.0   0.0   0.0
 2001 304     2  20.2  19.4  18.3  17.4  16.9  16.7  16.6   0.0   0.0   0.0
 2001 305     3  20.4  19.5  18.4  17.5  17.0  16.7  16.6   0.0   0.0   0.0
 2001 306     4  20.7  19.8  18.6  17.7  17.1  16.8  16.7   0.0   0.0   0.0
 2001 307     5  20.7  19.7  18.6  17.6  17.1  16.8  16.7   0.0   0.0   0.0
 2001 308     6  21.6  20.6  19.2  18.1  17.5  17.0  16.8   0.0   0.0   0.0
 2001 309     7  22.9  21.6  20.1  18.8  17.9  17.4  17.0   0.0   0.0   0.0
 2001 310     8  22.5  21.4  19.9  18.6  17.8  17.3  17.0   0.0   0.0   0.0
 2001 311     9  21.7  20.7  19.3  18.2  17.5  17.1  16.8   0.0   0.0   0.0
 2001 312    10  21.0  20.0  18.8  17.8  17.2  16.8  16.7   0.0   0.0   0.0
 2001 313    11  21.2  20.2  18.9  17.9  17.3  16.9  16.7   0.0   0.0   0.0
 2001 314    12  20.4  19.6  18.5  17.6  17.0  16.7  16.6   0.0   0.0   0.0
 2001 315    13  21.1  20.1  18.9  17.9  17.3  16.9  16.7   0.0   0.0   0.0
 2001 316    14  21.6  20.6  19.3  18.2  17.5  17.0  16.8   0.0   0.0   0.0
 2001 317    15  21.9  20.8  19.4  18.3  17.5  17.1  16.8   0.0   0.0   0.0
 2001 318    16  21.4  20.4  19.1  18.0  17.4  16.9  16.7   0.0   0.0   0.0
 2001 319    17  21.5  20.5  19.2  18.1  17.4  17.0  16.7   0.0   0.0   0.0
 2001 320    18  20.6  19.8  18.6  17.7  17.1  16.7  16.6   0.0   0.0   0.0
 2001 321    19  21.1  20.1  18.9  17.9  17.2  16.8  16.6   0.0   0.0   0.0
 2001 322    20  22.6  21.4  19.9  18.6  17.8  17.2  16.9   0.0   0.0   0.0
 2001 323    21  24.2  22.8  21.0  19.5  18.4  17.7  17.2   0.0   0.0   0.0
 2001 324    22  25.4  23.9  21.8  20.1  18.9  18.0  17.4   0.0   0.0   0.0
 2001 325    23  27.0  25.3  22.9  20.9  19.5  18.4  17.7   0.0   0.0   0.0
 2001 326    24  27.6  25.8  23.4  21.2  19.7  18.6  17.8   0.0   0.0   0.0
 2001 327    25  26.6  24.9  22.7  20.7  19.4  18.3  17.6   0.0   0.0   0.0
 2001 328    26  24.9  23.5  21.6  19.9  18.8  17.9  17.4   0.0   0.0   0.0
 2001 329    27  23.2  22.0  20.4  19.0  18.1  17.4  17.0   0.0   0.0   0.0
 2001 330    28  22.9  21.8  20.2  18.9  18.0  17.3  17.0   0.0   0.0   0.0
 2001 331    29  22.1  21.0  19.6  18.4  17.6  17.1  16.8   0.0   0.0   0.0
 2001 332    30  22.0  21.0  19.6  18.4  17.6  17.1  16.8   0.0   0.0   0.0
 2001 333    31  22.0  20.9  19.6  18.4  17.6  17.1  16.8   0.0   0.0   0.0
 2001 334    32  21.7  20.7  19.4  18.3  17.5  17.0  16.7   0.0   0.0   0.0
 2001 335    33  20.9  20.1  18.9  17.9  17.2  16.8  16.6   0.0   0.0   0.0
 2001 336    34  19.9  19.2  18.2  17.4  16.8  16.5  16.4   0.0   0.0   0.0
 2001 337    35  19.2  18.6  17.7  17.0  16.6  16.3  16.2   0.0   0.0   0.0
 2001 338    36  19.0  18.4  17.5  16.9  16.5  16.2  16.2   0.0   0.0   0.0
 2001 339    37  19.9  19.2  18.2  17.4  16.8  16.5  16.4   0.0   0.0   0.0
 2001 340    38  20.7  19.9  18.8  17.8  17.2  16.7  16.5   0.0   0.0   0.0
 2001 341    39  22.8  21.7  20.2  18.9  18.0  17.3  16.9   0.0   0.0   0.0
 2001 342    40  22.9  21.7  20.2  18.9  18.0  17.3  16.9   0.0   0.0   0.0
 2001 343    41  22.8  21.7  20.2  18.9  18.0  17.3  16.9   0.0   0.0   0.0
 2001 344    42  22.8  21.7  20.2  18.9  18.0  17.3  16.9   0.0   0.0   0.0
 2001 345    43  23.6  22.4  20.8  19.3  18.3  17.5  17.1   0.0   0.0   0.0
 2001 346    44  23.7  22.5  20.8  19.3  18.3  17.6  17.1   0.0   0.0   0.0
 2001 347    45  25.2  23.8  21.8  20.1  18.9  18.0  17.3   0.0   0.0   0.0
 2001 348    46  26.4  24.8  22.6  20.7  19.3  18.3  17.6   0.0   0.0   0.0
 2001 349    47  26.2  24.7  22.6  20.7  19.3  18.2  17.5   0.0   0.0   0.0
 2001 350    48  25.1  23.7  21.8  20.1  18.9  17.9  17.3   0.0   0.0   0.0
 2001 351    49  24.2  22.9  21.2  19.6  18.5  17.7  17.1   0.0   0.0   0.0
 2001 352    50  23.7  22.5  20.8  19.4  18.3  17.6  17.1   0.0   0.0   0.0
 2001 353    51  24.0  22.8  21.1  19.5  18.5  17.6  17.1   0.0   0.0   0.0
 2001 354    52  25.2  23.8  21.9  20.1  18.9  18.0  17.3   0.0   0.0   0.0
 2001 355    53  25.2  23.8  21.9  20.2  18.9  18.0  17.3   0.0   0.0   0.0
 2001 356    54  24.8  23.5  21.7  20.0  18.8  17.9  17.3   0.0   0.0   0.0
 2001 357    55  25.5  24.1  22.1  20.3  19.1  18.1  17.4   0.0   0.0   0.0
 2001 358    56  26.1  24.6  22.5  20.6  19.3  18.2  17.5   0.0   0.0   0.0
 2001 359    57  26.1  24.6  22.5  20.6  19.3  18.2  17.5   0.0   0.0   0.0
 2001 360    58  27.7  26.0  23.6  21.5  19.9  18.7  17.8   0.0   0.0   0.0
 2001 361    59  29.7  27.8  25.0  22.5  20.7  19.2  18.2   0.0   0.0   0.0
 2001 362    60  30.6  28.5  25.6  22.9  21.0  19.4  18.3   0.0   0.0   0.0
 2001 363    61  30.4  28.4  25.5  22.9  21.0  19.4  18.3   0.0   0.0   0.0
 2001 364    62  30.6  28.5  25.6  23.0  21.0  19.5  18.3   0.0   0.0   0.0
 2001 365    63  29.5  27.6  24.9  22.4  20.6  19.2  18.1   0.0   0.0   0.0
 2002 001    64  28.3  26.5  24.1  21.9  20.3  19.0  18.0   0.0   0.0   0.0
 2002 002    65  27.1  25.5  23.3  21.3  19.8  18.6  17.8   0.0   0.0   0.0
 2002 003    66  26.3  24.8  22.8  20.9  19.5  18.4  17.6   0.0   0.0   0.0
 2002 004    67  25.1  23.8  22.0  20.3  19.0  18.1  17.4   0.0   0.0   0.0
 2002 005    68  24.0  22.9  21.3  19.8  18.7  17.8  17.2   0.0   0.0   0.0
 2002 006    69  23.4  22.3  20.9  19.5  18.5  17.7  17.1   0.0   0.0   0.0
 2002 007    70  23.0  22.1  20.7  19.3  18.4  17.6  17.1   0.0   0.0   0.0
 2002 008    71  23.4  22.3  20.9  19.5  18.5  17.7  17.1   0.0   0.0   0.0
 2002 009    72  24.2  23.0  21.4  19.9  18.8  17.9  17.3   0.0   0.0   0.0
 2002 010    73  26.0  24.6  22.7  20.8  19.5  18.4  17.6   0.0   0.0   0.0
 2002 011    74  27.8  26.2  23.9  21.8  20.2  18.9  17.9   0.0   0.0   0.0
 2002 012    75  29.5  27.7  25.1  22.6  20.8  19.3  18.2   0.0   0.0   0.0
 2002 013    76  30.5  28.5  25.7  23.1  21.2  19.6  18.4   0.0   0.0   0.0
 2002 014    77  29.5  27.6  25.0  22.6  20.8  19.3  18.2   0.0   0.0   0.0
 2002 015    78  28.3  26.6  24.2  22.0  20.4  19.0  18.0   0.0   0.0   0.0
 2002 016    79  26.8  25.3  23.3  21.3  19.8  18.6  17.8   0.0   0.0   0.0
 2002 017    80  24.9  23.7  22.0  20.4  19.1  18.1  17.4   0.0   0.0   0.0
 2002 018    81  23.6  22.6  21.1  19.7  18.6  17.8  17.2   0.0   0.0   0.0
 2002 019    82  24.6  23.4  21.8  20.2  19.0  18.0  17.4   0.0   0.0   0.0
 2002 020    83  25.7  24.4  22.6  20.8  19.5  18.4  17.6   0.0   0.0   0.0
 2002 021    84  26.0  24.6  22.7  20.9  19.5  18.4  17.6   0.0   0.0   0.0
 2002 022    85  26.8  25.4  23.3  21.4  19.9  18.7  17.8   0.0   0.0   0.0
 2002 023    86  28.0  26.4  24.1  22.0  20.3  19.0  18.0   0.0   0.0   0.0
 2002 024    87  28.2  26.6  24.2  22.1  20.4  19.0  18.0   0.0   0.0   0.0
 2002 025    88  28.4  26.8  24.4  22.2  20.5  19.1  18.1   0.0   0.0   0.0
 2002 026    89  29.0  27.3  24.9  22.5  20.8  19.3  18.2   0.0   0.0   0.0
 2002 027    90  28.5  26.9  24.5  22.3  20.6  19.2  18.1   0.0   0.0   0.0
 2002 028    91  28.5  26.8  24.5  22.3  20.6  19.2  18.1   0.0   0.0   0.0
 2002 029    92  28.0  26.4  24.2  22.0  20.4  19.1  18.0   0.0   0.0   0.0
 2002 030    93  28.1  26.5  24.2  22.1  20.5  19.1  18.1   0.0   0.0   0.0
 2002 031    94  28.2  26.6  24.4  22.2  20.5  19.2  18.1   0.0   0.0   0.0
 2002 032    95  27.9  26.4  24.2  22.1  20.4  19.1  18.1   0.0   0.0   0.0
 2002 033    96  26.3  25.0  23.1  21.3  19.9  18.7  17.8   0.0   0.0   0.0
 2002 034    97  26.4  25.1  23.2  21.3  19.9  18.7  17.8   0.0   0.0   0.0
 2002 035    98  25.7  24.5  22.7  21.0  19.7  18.5  17.7   0.0   0.0   0.0
 2002 036    99  24.7  23.6  22.1  20.5  19.3  18.3  17.5   0.0   0.0   0.0
 2002 037   100  24.4  23.4  21.9  20.4  19.2  18.2  17.5   0.0   0.0   0.0
 2002 038   101  24.8  23.7  22.2  20.6  19.4  18.4  17.6   0.0   0.0   0.0
 2002 039   102  24.1  23.1  21.7  20.3  19.1  18.2  17.5   0.0   0.0   0.0
 2002 040   103  23.8  22.9  21.5  20.2  19.1  18.1  17.4   0.0   0.0   0.0
 2002 041   104  24.3  23.3  21.9  20.4  19.3  18.3  17.6   0.0   0.0   0.0
 2002 042   105  25.6  24.4  22.8  21.1  19.8  18.7  17.8   0.0   0.0   0.0
 2002 043   106  26.2  25.0  23.2  21.5  20.1  18.9  18.0   0.0   0.0   0.0
 2002 044   107  27.3  26.0  24.0  22.0  20.5  19.2  18.2   0.0   0.0   0.0
 2002 045   108  27.8  26.4  24.3  22.3  20.7  19.3  18.3   0.0   0.0   0.0
 2002 046   109  27.4  26.0  24.1  22.1  20.6  19.2  18.2   0.0   0.0   0.0
 2002 047   110  26.1  24.9  23.2  21.5  20.1  18.9  18.0   0.0   0.0   0.0
 2002 048   111  25.1  24.1  22.5  21.0  19.7  18.6  17.8   0.0   0.0   0.0
 2002 049   112  24.3  23.4  22.0  20.6  19.5  18.4  17.7   0.0   0.0   0.0
 2002 050   113  23.3  22.5  21.3  20.1  19.1  18.2  17.5   0.0   0.0   0.0
 2002 051   114  23.0  22.3  21.2  20.0  19.0  18.1  17.5   0.0   0.0   0.0
 2002 052   115  23.0  22.3  21.1  20.0  19.0  18.2  17.5   0.0   0.0   0.0
 2002 053   116  23.0  22.3  21.2  20.0  19.1  18.2  17.5   0.0   0.0   0.0
 2002 054   117  22.6  21.9  20.9  19.8  18.9  18.1  17.4   0.0   0.0   0.0
 2002 055   118  22.5  21.9  20.9  19.8  18.9  18.1  17.4   0.0   0.0   0.0
 2002 056   119  23.8  23.0  21.8  20.5  19.4  18.4  17.7   0.0   0.0   0.0
 2002 057   120  25.9  24.8  23.2  21.5  20.2  19.0  18.1   0.0   0.0   0.0
 2002 058   121  27.8  26.5  24.5  22.5  20.9  19.5  18.4   0.0   0.0   0.0
 2002 059   122  28.9  27.4  25.2  23.1  21.3  19.8  18.6   0.0   0.0   0.0

*DSSAT Cropping System Model Ver. 4.0.2.000               Aug 16, 2016; 17:55:43

*RUN   3        : UYMZ                    
 MODEL          : MZCER040 - Maize           
 EXPERIMENT     : UYMZ0214 MZ    late to create DSS                             
 TREATMENT  1   : UYMZ                    

@YEAR DOY   DAS  TS1D  TS2D  TS3D  TS4D  TS5D  TS6D  TS7D  TS8D  TS9D  TS10
 2002 302     0  19.3  18.5  17.6  16.9  16.6  16.4  16.4   0.0   0.0   0.0
 2002 303     1  19.5  18.7  17.8  17.0  16.7  16.5  16.5   0.0   0.0   0.0
 2002 304     2  20.1  19.2  18.2  17.4  16.9  16.7  16.6   0.0   0.0   0.0
 2002 305     3  21.0  20.0  18.8  17.8  17.2  16.9  16.7   0.0   0.0   0.0
 2002 306     4  22.1  20.9  19.5  18.3  17.6  17.2  16.9   0.0   0.0   0.0
 2002 307     5  22.8  21.6  20.0  18.7  17.9  17.4  17.1   0.0   0.0   0.0
 2002 308     6  21.8  20.7  19.3  18.2  17.5  17.1  16.9   0.0   0.0   0.0
 2002 309     7  20.7  19.8  18.6  17.7  17.1  16.8  16.7   0.0   0.0   0.0
 2002 310     8  20.2  19.4  18.3  17.4  16.9  16.6  16.6   0.0   0.0   0.0
 2002 311     9  20.1  19.2  18.2  17.3  16.9  16.6  16.5   0.0   0.0   0.0
 2002 312    10  19.7  18.9  17.9  17.2  16.7  16.5  16.4   0.0   0.0   0.0
 2002 313    11  20.7  19.8  18.6  17.7  17.1  16.8  16.6   0.0   0.0   0.0
 2002 314    12  20.2  19.3  18.3  17.4  16.9  16.6  16.5   0.0   0.0   0.0
 2002 315    13  19.2  18.5  17.6  16.9  16.5  16.3  16.3   0.0   0.0   0.0
 2002 316    14  19.2  18.5  17.6  16.9  16.5  16.3  16.3   0.0   0.0   0.0
 2002 317    15  21.1  20.1  18.9  17.9  17.3  16.9  16.7   0.0   0.0   0.0
 2002 318    16  22.9  21.7  20.1  18.8  17.9  17.3  17.0   0.0   0.0   0.0
 2002 319    17  24.6  23.2  21.3  19.7  18.6  17.8  17.3   0.0   0.0   0.0
 2002 320    18  27.2  25.4  23.0  21.0  19.6  18.5  17.8   0.0   0.0   0.0
 2002 321    19  27.6  25.8  23.3  21.2  19.7  18.6  17.9   0.0   0.0   0.0
 2002 322    20  26.8  25.1  22.8  20.8  19.4  18.4  17.7   0.0   0.0   0.0
 2002 323    21  26.3  24.7  22.5  20.5  19.2  18.3  17.6   0.0   0.0   0.0
 2002 324    22  26.1  24.5  22.4  20.5  19.2  18.2  17.6   0.0   0.0   0.0
 2002 325    23  24.5  23.1  21.2  19.6  18.5  17.8  17.3   0.0   0.0   0.0
 2002 326    24  24.0  22.7  20.9  19.4  18.4  17.6  17.2   0.0   0.0   0.0
 2002 327    25  25.1  23.6  21.6  19.9  18.8  17.9  17.4   0.0   0.0   0.0
 2002 328    26  25.7  24.1  22.0  20.2  19.0  18.1  17.5   0.0   0.0   0.0
 2002 329    27  25.6  24.1  22.0  20.2  19.0  18.0  17.4   0.0   0.0   0.0
 2002 330    28  26.8  25.1  22.9  20.9  19.5  18.4  17.7   0.0   0.0   0.0
 2002 331    29  26.1  24.5  22.4  20.5  19.2  18.2  17.6   0.0   0.0   0.0
 2002 332    30  24.4  23.0  21.2  19.6  18.5  17.7  17.2   0.0   0.0   0.0
 2002 333    31  23.1  21.9  20.3  19.0  18.0  17.4  17.0   0.0   0.0   0.0
 2002 334    32  23.5  22.3  20.6  19.2  18.2  17.5  17.0   0.0   0.0   0.0
 2002 335    33  22.1  21.1  19.7  18.5  17.7  17.1  16.8   0.0   0.0   0.0
 2002 336    34  22.5  21.4  20.0  18.7  17.8  17.2  16.9   0.0   0.0   0.0
 2002 337    35  23.4  22.2  20.6  19.2  18.2  17.5  17.0   0.0   0.0   0.0
 2002 338    36  23.3  22.1  20.5  19.1  18.1  17.4  17.0   0.0   0.0   0.0
 2002 339    37  23.5  22.3  20.7  19.2  18.2  17.5  17.0   0.0   0.0   0.0
 2002 340    38  25.0  23.5  21.6  19.9  18.8  17.9  17.3   0.0   0.0   0.0
 2002 341    39  24.8  23.4  21.5  19.8  18.7  17.8  17.3   0.0   0.0   0.0
 2002 342    40  23.6  22.4  20.7  19.3  18.3  17.5  17.1   0.0   0.0   0.0
 2002 343    41  23.7  22.5  20.8  19.3  18.3  17.5  17.1   0.0   0.0   0.0
 2002 344    42  23.0  21.9  20.3  19.0  18.0  17.4  16.9   0.0   0.0   0.0
 2002 345    43  22.1  21.1  19.7  18.5  17.7  17.1  16.8   0.0   0.0   0.0
 2002 346    44  22.4  21.3  19.9  18.7  17.8  17.2  16.8   0.0   0.0   0.0
 2002 347    45  22.9  21.8  20.3  19.0  18.0  17.3  16.9   0.0   0.0   0.0
 2002 348    46  23.3  22.2  20.6  19.2  18.2  17.4  17.0   0.0   0.0   0.0
 2002 349    47  24.5  23.2  21.4  19.7  18.6  17.8  17.2   0.0   0.0   0.0
 2002 350    48  25.5  24.1  22.1  20.3  19.0  18.0  17.4   0.0   0.0   0.0
 2002 351    49  25.7  24.2  22.2  20.4  19.1  18.1  17.4   0.0   0.0   0.0
 2002 352    50  26.5  24.9  22.7  20.8  19.4  18.3  17.6   0.0   0.0   0.0
 2002 353    51  26.5  24.9  22.7  20.8  19.4  18.3  17.6   0.0   0.0   0.0
 2002 354    52  26.0  24.5  22.4  20.5  19.2  18.2  17.5   0.0   0.0   0.0
 2002 355    53  26.0  24.5  22.4  20.5  19.2  18.2  17.5   0.0   0.0   0.0
 2002 356    54  25.2  23.8  21.9  20.2  18.9  18.0  17.3   0.0   0.0   0.0
 2002 357    55  23.9  22.7  21.1  19.6  18.5  17.7  17.1   0.0   0.0   0.0
 2002 358    56  23.5  22.4  20.8  19.4  18.4  17.6  17.1   0.0   0.0   0.0
 2002 359    57  24.0  22.8  21.2  19.7  18.6  17.7  17.2   0.0   0.0   0.0
 2002 360    58  24.6  23.4  21.6  20.0  18.8  17.9  17.3   0.0   0.0   0.0
 2002 361    59  27.0  25.4  23.2  21.1  19.7  18.5  17.7   0.0   0.0   0.0
 2002 362    60  28.1  26.3  23.9  21.7  20.1  18.8  17.9   0.0   0.0   0.0
 2002 363    61  28.2  26.4  24.0  21.8  20.2  18.9  17.9   0.0   0.0   0.0
 2002 364    62  26.6  25.1  23.1  21.1  19.7  18.6  17.7   0.0   0.0   0.0
 2002 365    63  24.6  23.4  21.7  20.1  19.0  18.0  17.4   0.0   0.0   0.0
 2003 001    64  22.8  21.8  20.4  19.1  18.2  17.5  17.0   0.0   0.0   0.0
 2003 002    65  22.5  21.6  20.2  19.0  18.1  17.4  16.9   0.0   0.0   0.0
 2003 003    66  23.0  22.0  20.6  19.2  18.3  17.5  17.0   0.0   0.0   0.0
 2003 004    67  24.4  23.2  21.5  19.9  18.8  17.9  17.3   0.0   0.0   0.0
 2003 005    68  26.2  24.7  22.7  20.8  19.5  18.4  17.6   0.0   0.0   0.0
 2003 006    69  27.1  25.5  23.3  21.3  19.8  18.6  17.7   0.0   0.0   0.0
 2003 007    70  27.1  25.5  23.3  21.3  19.8  18.6  17.8   0.0   0.0   0.0
 2003 008    71  27.4  25.8  23.5  21.4  19.9  18.7  17.8   0.0   0.0   0.0
 2003 009    72  27.8  26.1  23.8  21.7  20.1  18.8  17.9   0.0   0.0   0.0
 2003 010    73  27.8  26.2  23.9  21.7  20.1  18.8  17.9   0.0   0.0   0.0
 2003 011    74  27.4  25.8  23.6  21.5  20.0  18.7  17.8   0.0   0.0   0.0
 2003 012    75  27.9  26.3  23.9  21.7  20.1  18.8  17.9   0.0   0.0   0.0
 2003 013    76  28.4  26.6  24.2  22.0  20.3  19.0  18.0   0.0   0.0   0.0
 2003 014    77  29.0  27.2  24.7  22.3  20.6  19.1  18.1   0.0   0.0   0.0
 2003 015    78  29.3  27.5  24.9  22.5  20.7  19.2  18.2   0.0   0.0   0.0
 2003 016    79  30.7  28.7  25.9  23.2  21.2  19.6  18.4   0.0   0.0   0.0
 2003 017    80  31.7  29.5  26.5  23.7  21.6  19.9  18.6   0.0   0.0   0.0
 2003 018    81  30.5  28.5  25.7  23.1  21.2  19.6  18.4   0.0   0.0   0.0
 2003 019    82  28.0  26.4  24.1  21.9  20.3  18.9  18.0   0.0   0.0   0.0
 2003 020    83  27.0  25.5  23.4  21.4  19.9  18.7  17.8   0.0   0.0   0.0
 2003 021    84  26.3  25.0  23.0  21.1  19.7  18.5  17.7   0.0   0.0   0.0
 2003 022    85  24.6  23.5  21.8  20.3  19.1  18.1  17.4   0.0   0.0   0.0
 2003 023    86  24.3  23.2  21.6  20.1  19.0  18.0  17.3   0.0   0.0   0.0
 2003 024    87  25.7  24.4  22.6  20.8  19.5  18.4  17.6   0.0   0.0   0.0
 2003 025    88  26.2  24.8  22.9  21.1  19.7  18.5  17.7   0.0   0.0   0.0
 2003 026    89  26.4  25.1  23.1  21.2  19.8  18.6  17.7   0.0   0.0   0.0
 2003 027    90  28.4  26.8  24.4  22.2  20.5  19.1  18.1   0.0   0.0   0.0
 2003 028    91  29.7  27.9  25.3  22.9  21.0  19.5  18.3   0.0   0.0   0.0
 2003 029    92  30.7  28.7  26.0  23.4  21.4  19.8  18.5   0.0   0.0   0.0
 2003 030    93  31.9  29.8  26.8  24.0  21.9  20.1  18.7   0.0   0.0   0.0
 2003 031    94  33.1  30.8  27.6  24.6  22.3  20.4  19.0   0.0   0.0   0.0
 2003 032    95  32.7  30.6  27.5  24.5  22.3  20.4  18.9   0.0   0.0   0.0
 2003 033    96  32.1  30.0  27.1  24.2  22.1  20.2  18.8   0.0   0.0   0.0
 2003 034    97  31.4  29.4  26.6  23.9  21.9  20.1  18.8   0.0   0.0   0.0
 2003 035    98  29.5  27.8  25.4  23.0  21.2  19.6  18.4   0.0   0.0   0.0
 2003 036    99  27.3  25.9  23.9  21.9  20.3  19.0  18.0   0.0   0.0   0.0
 2003 037   100  27.0  25.6  23.7  21.7  20.2  19.0  18.0   0.0   0.0   0.0
 2003 038   101  26.5  25.2  23.3  21.5  20.1  18.8  17.9   0.0   0.0   0.0
 2003 039   102  26.4  25.1  23.3  21.4  20.0  18.8  17.9   0.0   0.0   0.0
 2003 040   103  27.2  25.9  23.8  21.9  20.4  19.1  18.1   0.0   0.0   0.0
 2003 041   104  27.4  26.0  23.9  22.0  20.4  19.1  18.1   0.0   0.0   0.0
 2003 042   105  26.3  25.1  23.3  21.5  20.1  18.8  17.9   0.0   0.0   0.0
 2003 043   106  26.6  25.3  23.5  21.6  20.2  19.0  18.0   0.0   0.0   0.0
 2003 044   107  26.2  25.0  23.3  21.5  20.1  18.9  18.0   0.0   0.0   0.0
 2003 045   108  25.7  24.6  22.9  21.2  19.9  18.8  17.9   0.0   0.0   0.0
 2003 046   109  25.7  24.6  22.9  21.2  19.9  18.8  17.9   0.0   0.0   0.0
 2003 047   110  24.9  23.9  22.4  20.9  19.7  18.6  17.8   0.0   0.0   0.0
 2003 048   111  23.9  23.0  21.7  20.4  19.3  18.3  17.6   0.0   0.0   0.0
 2003 049   112  24.3  23.4  22.0  20.6  19.5  18.5  17.7   0.0   0.0   0.0
 2003 050   113  23.3  22.6  21.4  20.1  19.1  18.2  17.5   0.0   0.0   0.0
 2003 051   114  22.1  21.5  20.5  19.5  18.7  17.9  17.3   0.0   0.0   0.0
 2003 052   115  22.3  21.7  20.7  19.7  18.8  18.0  17.3   0.0   0.0   0.0
 2003 053   116  22.8  22.1  21.1  19.9  19.0  18.1  17.4   0.0   0.0   0.0
 2003 054   117  21.6  21.1  20.2  19.3  18.5  17.8  17.2   0.0   0.0   0.0
 2003 055   118  21.8  21.2  20.4  19.4  18.6  17.9  17.3   0.0   0.0   0.0
 2003 056   119  23.1  22.4  21.3  20.1  19.1  18.2  17.5   0.0   0.0   0.0
 2003 057   120  25.2  24.2  22.7  21.2  19.9  18.8  17.9   0.0   0.0   0.0

*DSSAT Cropping System Model Ver. 4.0.2.000               Aug 16, 2016; 17:55:43

*RUN   4        : UYMZ                    
 MODEL          : MZCER040 - Maize           
 EXPERIMENT     : UYMZ0214 MZ    late to create DSS                             
 TREATMENT  1   : UYMZ                    

@YEAR DOY   DAS  TS1D  TS2D  TS3D  TS4D  TS5D  TS6D  TS7D  TS8D  TS9D  TS10
 2003 302     0  23.4  22.1  20.5  19.1  18.2  17.6  17.2   0.0   0.0   0.0
 2003 303     1  24.5  23.0  21.1  19.6  18.6  17.8  17.4   0.0   0.0   0.0
 2003 304     2  23.2  21.9  20.3  18.9  18.1  17.5  17.2   0.0   0.0   0.0
 2003 305     3  21.7  20.6  19.3  18.2  17.5  17.1  16.9   0.0   0.0   0.0
 2003 306     4  20.6  19.7  18.5  17.6  17.1  16.8  16.7   0.0   0.0   0.0
 2003 307     5  19.7  18.9  17.9  17.1  16.7  16.5  16.5   0.0   0.0   0.0
 2003 308     6  18.4  17.8  17.0  16.5  16.2  16.2  16.2   0.0   0.0   0.0
 2003 309     7  19.7  18.9  17.9  17.2  16.7  16.5  16.5   0.0   0.0   0.0
 2003 310     8  21.5  20.5  19.2  18.1  17.4  17.0  16.8   0.0   0.0   0.0
 2003 311     9  23.4  22.1  20.4  19.0  18.1  17.5  17.1   0.0   0.0   0.0
 2003 312    10  24.0  22.7  20.9  19.4  18.4  17.7  17.2   0.0   0.0   0.0
 2003 313    11  25.0  23.5  21.5  19.8  18.7  17.9  17.4   0.0   0.0   0.0
 2003 314    12  25.8  24.2  22.0  20.2  19.0  18.1  17.5   0.0   0.0   0.0
 2003 315    13  25.4  23.9  21.8  20.1  18.9  18.1  17.5   0.0   0.0   0.0
 2003 316    14  24.0  22.7  20.9  19.4  18.4  17.7  17.2   0.0   0.0   0.0
 2003 317    15  22.7  21.5  20.0  18.7  17.9  17.3  17.0   0.0   0.0   0.0
 2003 318    16  21.6  20.6  19.2  18.1  17.4  17.0  16.8   0.0   0.0   0.0
 2003 319    17  20.7  19.8  18.6  17.7  17.1  16.7  16.6   0.0   0.0   0.0
 2003 320    18  20.3  19.4  18.3  17.4  16.9  16.6  16.5   0.0   0.0   0.0
 2003 321    19  20.3  19.4  18.3  17.5  16.9  16.6  16.5   0.0   0.0   0.0
 2003 322    20  20.4  19.6  18.5  17.6  17.0  16.7  16.5   0.0   0.0   0.0
 2003 323    21  20.6  19.8  18.6  17.7  17.1  16.7  16.6   0.0   0.0   0.0
 2003 324    22  19.7  18.9  18.0  17.2  16.7  16.4  16.4   0.0   0.0   0.0
 2003 325    23  20.1  19.3  18.3  17.4  16.9  16.6  16.5   0.0   0.0   0.0
 2003 326    24  22.1  21.1  19.6  18.4  17.6  17.1  16.8   0.0   0.0   0.0
 2003 327    25  23.3  22.1  20.4  19.0  18.1  17.4  17.0   0.0   0.0   0.0
 2003 328    26  23.4  22.2  20.6  19.1  18.2  17.5  17.1   0.0   0.0   0.0
 2003 329    27  25.2  23.7  21.8  20.0  18.8  18.0  17.4   0.0   0.0   0.0
 2003 330    28  26.1  24.5  22.4  20.5  19.2  18.2  17.5   0.0   0.0   0.0
 2003 331    29  25.5  24.0  22.0  20.2  19.0  18.0  17.4   0.0   0.0   0.0
 2003 332    30  25.6  24.1  22.1  20.2  19.0  18.1  17.5   0.0   0.0   0.0
 2003 333    31  25.7  24.2  22.1  20.3  19.0  18.1  17.5   0.0   0.0   0.0
 2003 334    32  24.4  23.0  21.2  19.6  18.5  17.7  17.2   0.0   0.0   0.0
 2003 335    33  23.9  22.6  20.9  19.4  18.3  17.6  17.1   0.0   0.0   0.0
 2003 336    34  22.6  21.5  20.0  18.7  17.8  17.2  16.9   0.0   0.0   0.0
 2003 337    35  22.3  21.2  19.8  18.5  17.7  17.1  16.8   0.0   0.0   0.0
 2003 338    36  20.9  20.1  18.9  17.9  17.2  16.8  16.6   0.0   0.0   0.0
 2003 339    37  20.9  20.1  18.9  17.9  17.2  16.8  16.6   0.0   0.0   0.0
 2003 340    38  21.0  20.1  18.9  17.9  17.2  16.8  16.6   0.0   0.0   0.0
 2003 341    39  21.7  20.7  19.4  18.3  17.5  17.0  16.7   0.0   0.0   0.0
 2003 342    40  20.8  20.0  18.9  17.9  17.2  16.8  16.5   0.0   0.0   0.0
 2003 343    41  21.6  20.7  19.4  18.3  17.6  17.0  16.7   0.0   0.0   0.0
 2003 344    42  22.0  21.0  19.7  18.5  17.7  17.1  16.8   0.0   0.0   0.0
 2003 345    43  21.5  20.6  19.4  18.2  17.5  17.0  16.7   0.0   0.0   0.0
 2003 346    44  21.3  20.4  19.2  18.1  17.4  16.9  16.6   0.0   0.0   0.0
 2003 347    45  23.0  21.9  20.4  19.0  18.1  17.4  17.0   0.0   0.0   0.0
 2003 348    46  24.6  23.3  21.5  19.8  18.7  17.8  17.2   0.0   0.0   0.0
 2003 349    47  24.7  23.4  21.5  19.9  18.7  17.9  17.3   0.0   0.0   0.0
 2003 350    48  24.0  22.8  21.1  19.6  18.5  17.7  17.1   0.0   0.0   0.0
 2003 351    49  24.1  22.9  21.2  19.6  18.5  17.7  17.2   0.0   0.0   0.0
 2003 352    50  24.0  22.8  21.1  19.6  18.5  17.7  17.1   0.0   0.0   0.0
 2003 353    51  24.5  23.2  21.4  19.8  18.7  17.8  17.2   0.0   0.0   0.0
 2003 354    52  26.3  24.8  22.7  20.7  19.4  18.3  17.6   0.0   0.0   0.0
 2003 355    53  28.5  26.7  24.2  21.9  20.2  18.9  18.0   0.0   0.0   0.0
 2003 356    54  28.3  26.5  24.0  21.8  20.1  18.8  17.9   0.0   0.0   0.0
 2003 357    55  28.0  26.3  23.8  21.6  20.0  18.8  17.9   0.0   0.0   0.0
 2003 358    56  26.7  25.1  23.0  21.0  19.5  18.4  17.6   0.0   0.0   0.0
 2003 359    57  26.2  24.7  22.6  20.7  19.3  18.3  17.5   0.0   0.0   0.0
 2003 360    58  25.8  24.4  22.4  20.5  19.2  18.2  17.5   0.0   0.0   0.0
 2003 361    59  25.9  24.4  22.4  20.6  19.2  18.2  17.5   0.0   0.0   0.0
 2003 362    60  25.0  23.7  21.8  20.1  18.9  18.0  17.3   0.0   0.0   0.0
 2003 363    61  25.0  23.7  21.8  20.1  18.9  18.0  17.3   0.0   0.0   0.0
 2003 364    62  24.9  23.6  21.8  20.1  18.9  18.0  17.3   0.0   0.0   0.0
 2003 365    63  23.3  22.2  20.7  19.3  18.3  17.5  17.0   0.0   0.0   0.0
 2004 001    64  23.0  21.9  20.4  19.1  18.1  17.4  17.0   0.0   0.0   0.0
 2004 002    65  24.4  23.1  21.4  19.8  18.7  17.8  17.2   0.0   0.0   0.0
 2004 003    66  25.7  24.3  22.3  20.5  19.2  18.2  17.4   0.0   0.0   0.0
 2004 004    67  26.0  24.5  22.5  20.7  19.3  18.2  17.5   0.0   0.0   0.0
 2004 005    68  28.2  26.5  24.0  21.8  20.2  18.8  17.9   0.0   0.0   0.0
 2004 006    69  29.3  27.4  24.8  22.3  20.6  19.1  18.1   0.0   0.0   0.0
 2004 007    70  29.7  27.8  25.0  22.5  20.7  19.2  18.2   0.0   0.0   0.0
 2004 008    71  29.2  27.3  24.7  22.3  20.5  19.1  18.1   0.0   0.0   0.0
 2004 009    72  29.2  27.3  24.7  22.3  20.5  19.1  18.1   0.0   0.0   0.0
 2004 010    73  27.8  26.1  23.8  21.6  20.0  18.8  17.8   0.0   0.0   0.0
 2004 011    74  27.2  25.7  23.5  21.5  20.0  18.7  17.8   0.0   0.0   0.0
 2004 012    75  26.5  25.0  23.0  21.1  19.7  18.5  17.7   0.0   0.0   0.0
 2004 013    76  26.2  24.8  22.8  21.0  19.6  18.4  17.6   0.0   0.0   0.0
 2004 014    77  26.1  24.7  22.8  20.9  19.6  18.4  17.6   0.0   0.0   0.0
 2004 015    78  25.6  24.3  22.4  20.7  19.4  18.3  17.5   0.0   0.0   0.0
 2004 016    79  25.6  24.3  22.4  20.7  19.4  18.3  17.5   0.0   0.0   0.0
 2004 017    80  25.7  24.4  22.5  20.7  19.4  18.3  17.6   0.0   0.0   0.0
 2004 018    81  25.8  24.5  22.6  20.8  19.5  18.4  17.6   0.0   0.0   0.0
 2004 019    82  25.2  24.0  22.2  20.5  19.3  18.2  17.5   0.0   0.0   0.0
 2004 020    83  26.5  25.1  23.1  21.2  19.7  18.6  17.7   0.0   0.0   0.0
 2004 021    84  27.3  25.8  23.6  21.6  20.1  18.8  17.9   0.0   0.0   0.0
 2004 022    85  27.3  25.8  23.6  21.6  20.1  18.8  17.9   0.0   0.0   0.0
 2004 023    86  27.2  25.8  23.6  21.6  20.1  18.8  17.9   0.0   0.0   0.0
 2004 024    87  27.2  25.7  23.6  21.6  20.0  18.8  17.9   0.0   0.0   0.0
 2004 025    88  27.2  25.7  23.6  21.6  20.1  18.8  17.9   0.0   0.0   0.0
 2004 026    89  28.0  26.4  24.2  22.0  20.4  19.0  18.0   0.0   0.0   0.0
 2004 027    90  29.2  27.5  25.0  22.6  20.8  19.3  18.2   0.0   0.0   0.0
 2004 028    91  29.6  27.8  25.3  22.8  21.0  19.5  18.3   0.0   0.0   0.0
 2004 029    92  30.1  28.2  25.6  23.1  21.2  19.6  18.4   0.0   0.0   0.0
 2004 030    93  30.7  28.7  26.0  23.4  21.4  19.8  18.5   0.0   0.0   0.0
 2004 031    94  29.0  27.3  24.9  22.6  20.8  19.4  18.2   0.0   0.0   0.0
 2004 032    95  27.7  26.2  24.1  22.0  20.4  19.1  18.1   0.0   0.0   0.0
 2004 033    96  27.2  25.8  23.7  21.7  20.2  18.9  18.0   0.0   0.0   0.0
 2004 034    97  26.9  25.5  23.5  21.6  20.1  18.9  17.9   0.0   0.0   0.0
 2004 035    98  25.7  24.5  22.8  21.0  19.7  18.6  17.7   0.0   0.0   0.0
 2004 036    99  25.6  24.4  22.7  21.0  19.7  18.6  17.7   0.0   0.0   0.0
 2004 037   100  25.5  24.4  22.6  21.0  19.7  18.5  17.7   0.0   0.0   0.0
 2004 038   101  25.5  24.3  22.6  20.9  19.6  18.5  17.7   0.0   0.0   0.0
 2004 039   102  25.7  24.5  22.8  21.1  19.7  18.6  17.7   0.0   0.0   0.0
 2004 040   103  26.5  25.2  23.3  21.5  20.1  18.8  17.9   0.0   0.0   0.0
 2004 041   104  28.0  26.5  24.3  22.2  20.6  19.2  18.2   0.0   0.0   0.0
 2004 042   105  29.5  27.8  25.4  23.0  21.2  19.6  18.4   0.0   0.0   0.0
 2004 043   106  31.1  29.2  26.4  23.8  21.8  20.1  18.7   0.0   0.0   0.0
 2004 044   107  30.3  28.5  26.0  23.5  21.6  19.9  18.7   0.0   0.0   0.0
 2004 045   108  28.9  27.4  25.1  22.9  21.2  19.7  18.5   0.0   0.0   0.0
 2004 046   109  27.1  25.8  23.9  22.0  20.5  19.2  18.2   0.0   0.0   0.0
 2004 047   110  26.0  24.9  23.2  21.4  20.1  18.9  18.0   0.0   0.0   0.0
 2004 048   111  24.0  23.1  21.8  20.5  19.4  18.4  17.6   0.0   0.0   0.0
 2004 049   112  23.6  22.8  21.6  20.3  19.2  18.3  17.6   0.0   0.0   0.0
 2004 050   113  23.4  22.6  21.4  20.2  19.2  18.3  17.5   0.0   0.0   0.0
 2004 051   114  23.1  22.4  21.3  20.1  19.1  18.2  17.5   0.0   0.0   0.0
 2004 052   115  22.1  21.5  20.5  19.5  18.7  17.9  17.3   0.0   0.0   0.0
 2004 053   116  21.6  21.1  20.2  19.3  18.5  17.8  17.2   0.0   0.0   0.0
 2004 054   117  21.7  21.2  20.3  19.4  18.6  17.9  17.3   0.0   0.0   0.0
 2004 055   118  22.3  21.7  20.7  19.7  18.8  18.0  17.4   0.0   0.0   0.0
 2004 056   119  23.7  22.9  21.7  20.4  19.4  18.4  17.7   0.0   0.0   0.0
 2004 057   120  25.2  24.2  22.7  21.2  19.9  18.8  17.9   0.0   0.0   0.0
 2004 058   121  25.7  24.7  23.1  21.5  20.2  19.0  18.1   0.0   0.0   0.0
 2004 059   122  25.9  24.8  23.2  21.6  20.2  19.1  18.1   0.0   0.0   0.0
 2004 060   123  25.9  24.9  23.2  21.6  20.3  19.1  18.1   0.0   0.0   0.0
 2004 061   124  25.7  24.7  23.1  21.5  20.2  19.0  18.1   0.0   0.0   0.0
 2004 062   125  24.7  23.8  22.5  21.0  19.9  18.8  17.9   0.0   0.0   0.0
 2004 063   126  25.0  24.1  22.7  21.2  20.0  18.9  18.0   0.0   0.0   0.0

*DSSAT Cropping System Model Ver. 4.0.2.000               Aug 16, 2016; 17:55:43

*RUN   5        : UYMZ                    
 MODEL          : MZCER040 - Maize           
 EXPERIMENT     : UYMZ0214 MZ    late to create DSS                             
 TREATMENT  1   : UYMZ                    

@YEAR DOY   DAS  TS1D  TS2D  TS3D  TS4D  TS5D  TS6D  TS7D  TS8D  TS9D  TS10
 2004 302     0  20.6  19.7  18.5  17.6  17.1  16.8  16.7   0.0   0.0   0.0
 2004 303     1  20.3  19.5  18.3  17.5  17.0  16.7  16.6   0.0   0.0   0.0
 2004 304     2  19.9  19.1  18.1  17.3  16.8  16.6  16.6   0.0   0.0   0.0
 2004 305     3  20.6  19.7  18.6  17.6  17.1  16.8  16.7   0.0   0.0   0.0
 2004 306     4  22.1  20.9  19.5  18.4  17.6  17.2  16.9   0.0   0.0   0.0
 2004 307     5  22.9  21.7  20.1  18.8  17.9  17.4  17.1   0.0   0.0   0.0
 2004 308     6  23.8  22.4  20.7  19.3  18.3  17.6  17.2   0.0   0.0   0.0
 2004 309     7  24.3  22.9  21.1  19.5  18.5  17.8  17.3   0.0   0.0   0.0
 2004 310     8  22.6  21.5  20.0  18.7  17.9  17.3  17.0   0.0   0.0   0.0
 2004 311     9  20.3  19.4  18.3  17.5  17.0  16.7  16.6   0.0   0.0   0.0
 2004 312    10  18.7  18.0  17.2  16.6  16.3  16.2  16.3   0.0   0.0   0.0
 2004 313    11  18.8  18.1  17.3  16.7  16.4  16.2  16.3   0.0   0.0   0.0
 2004 314    12  18.6  18.0  17.2  16.6  16.3  16.2  16.2   0.0   0.0   0.0
 2004 315    13  19.1  18.4  17.5  16.8  16.5  16.3  16.3   0.0   0.0   0.0
 2004 316    14  19.1  18.4  17.5  16.9  16.5  16.3  16.3   0.0   0.0   0.0
 2004 317    15  18.2  17.7  17.0  16.4  16.2  16.1  16.1   0.0   0.0   0.0
 2004 318    16  17.4  16.9  16.4  16.0  15.8  15.8  16.0   0.0   0.0   0.0
 2004 319    17  17.0  16.6  16.1  15.8  15.7  15.7  15.9   0.0   0.0   0.0
 2004 320    18  17.8  17.3  16.7  16.2  16.0  15.9  16.0   0.0   0.0   0.0
 2004 321    19  19.0  18.3  17.4  16.8  16.4  16.3  16.2   0.0   0.0   0.0
 2004 322    20  19.4  18.7  17.8  17.0  16.6  16.4  16.3   0.0   0.0   0.0
 2004 323    21  19.0  18.3  17.5  16.8  16.4  16.3  16.2   0.0   0.0   0.0
 2004 324    22  19.2  18.5  17.6  16.9  16.5  16.3  16.3   0.0   0.0   0.0
 2004 325    23  19.3  18.6  17.7  17.0  16.5  16.3  16.3   0.0   0.0   0.0
 2004 326    24  20.0  19.2  18.2  17.3  16.8  16.5  16.4   0.0   0.0   0.0
 2004 327    25  21.6  20.6  19.2  18.1  17.4  17.0  16.7   0.0   0.0   0.0
 2004 328    26  23.4  22.2  20.5  19.1  18.1  17.5  17.0   0.0   0.0   0.0
 2004 329    27  24.2  22.9  21.1  19.5  18.5  17.7  17.2   0.0   0.0   0.0
 2004 330    28  24.8  23.4  21.5  19.9  18.7  17.9  17.3   0.0   0.0   0.0
 2004 331    29  24.8  23.4  21.5  19.8  18.7  17.8  17.3   0.0   0.0   0.0
 2004 332    30  24.0  22.7  21.0  19.4  18.4  17.6  17.2   0.0   0.0   0.0
 2004 333    31  23.8  22.5  20.8  19.3  18.3  17.6  17.1   0.0   0.0   0.0
 2004 334    32  24.6  23.2  21.3  19.7  18.6  17.8  17.2   0.0   0.0   0.0
 2004 335    33  25.3  23.9  21.9  20.1  18.9  18.0  17.4   0.0   0.0   0.0
 2004 336    34  26.0  24.5  22.3  20.5  19.2  18.2  17.5   0.0   0.0   0.0
 2004 337    35  27.5  25.7  23.3  21.2  19.7  18.6  17.8   0.0   0.0   0.0
 2004 338    36  28.6  26.7  24.1  21.8  20.1  18.9  18.0   0.0   0.0   0.0
 2004 339    37  28.4  26.5  24.0  21.7  20.1  18.8  17.9   0.0   0.0   0.0
 2004 340    38  28.4  26.5  23.9  21.7  20.1  18.8  17.9   0.0   0.0   0.0
 2004 341    39  28.3  26.5  23.9  21.7  20.0  18.8  17.9   0.0   0.0   0.0
 2004 342    40  27.8  26.0  23.6  21.4  19.8  18.6  17.8   0.0   0.0   0.0
 2004 343    41  26.6  24.9  22.7  20.8  19.4  18.3  17.6   0.0   0.0   0.0
 2004 344    42  26.0  24.5  22.4  20.5  19.2  18.2  17.5   0.0   0.0   0.0
 2004 345    43  25.5  24.0  22.0  20.2  19.0  18.0  17.4   0.0   0.0   0.0
 2004 346    44  25.1  23.7  21.8  20.1  18.8  17.9  17.3   0.0   0.0   0.0
 2004 347    45  25.1  23.7  21.8  20.1  18.8  17.9  17.3   0.0   0.0   0.0
 2004 348    46  25.9  24.4  22.3  20.4  19.1  18.1  17.4   0.0   0.0   0.0
 2004 349    47  27.1  25.5  23.2  21.1  19.6  18.5  17.7   0.0   0.0   0.0
 2004 350    48  27.9  26.1  23.7  21.5  19.9  18.7  17.8   0.0   0.0   0.0
 2004 351    49  27.5  25.8  23.4  21.3  19.8  18.6  17.8   0.0   0.0   0.0
 2004 352    50  27.6  25.8  23.5  21.3  19.8  18.6  17.8   0.0   0.0   0.0
 2004 353    51  27.6  25.9  23.5  21.3  19.8  18.6  17.8   0.0   0.0   0.0
 2004 354    52  26.9  25.3  23.0  21.0  19.6  18.4  17.6   0.0   0.0   0.0
 2004 355    53  25.9  24.4  22.4  20.5  19.2  18.1  17.5   0.0   0.0   0.0
 2004 356    54  26.4  24.8  22.7  20.7  19.4  18.3  17.5   0.0   0.0   0.0
 2004 357    55  26.4  24.8  22.7  20.8  19.4  18.3  17.5   0.0   0.0   0.0
 2004 358    56  26.4  24.8  22.7  20.8  19.4  18.3  17.5   0.0   0.0   0.0
 2004 359    57  26.8  25.2  23.0  21.0  19.5  18.4  17.6   0.0   0.0   0.0
 2004 360    58  26.2  24.7  22.6  20.7  19.3  18.3  17.5   0.0   0.0   0.0
 2004 361    59  25.5  24.1  22.2  20.4  19.1  18.1  17.4   0.0   0.0   0.0
 2004 362    60  24.8  23.5  21.7  20.1  18.9  17.9  17.3   0.0   0.0   0.0
 2004 363    61  24.6  23.3  21.6  20.0  18.8  17.9  17.3   0.0   0.0   0.0
 2004 364    62  23.6  22.5  20.9  19.5  18.4  17.6  17.1   0.0   0.0   0.0
 2004 365    63  25.0  23.7  21.9  20.2  19.0  18.0  17.3   0.0   0.0   0.0
 2004 366    64  26.8  25.3  23.1  21.1  19.7  18.5  17.7   0.0   0.0   0.0
 2005 001    65  28.7  26.9  24.3  22.0  20.3  18.9  18.0   0.0   0.0   0.0
 2005 002    66  29.5  27.6  24.9  22.4  20.6  19.2  18.1   0.0   0.0   0.0
 2005 003    67  31.1  29.0  26.0  23.2  21.2  19.6  18.4   0.0   0.0   0.0
 2005 004    68  31.6  29.4  26.3  23.5  21.4  19.7  18.5   0.0   0.0   0.0
 2005 005    69  31.9  29.7  26.5  23.6  21.5  19.8  18.6   0.0   0.0   0.0
 2005 006    70  31.9  29.7  26.5  23.6  21.5  19.8  18.6   0.0   0.0   0.0
 2005 007    71  32.7  30.3  27.1  24.0  21.8  20.0  18.7   0.0   0.0   0.0
 2005 008    72  32.3  30.0  26.8  23.9  21.7  20.0  18.7   0.0   0.0   0.0
 2005 009    73  31.7  29.5  26.4  23.6  21.5  19.8  18.5   0.0   0.0   0.0
 2005 010    74  30.3  28.3  25.5  22.9  21.0  19.4  18.3   0.0   0.0   0.0
 2005 011    75  29.7  27.8  25.1  22.6  20.8  19.3  18.2   0.0   0.0   0.0
 2005 012    76  29.4  27.5  24.9  22.5  20.7  19.2  18.1   0.0   0.0   0.0
 2005 013    77  28.6  26.9  24.4  22.1  20.4  19.0  18.0   0.0   0.0   0.0
 2005 014    78  29.3  27.4  24.8  22.4  20.6  19.2  18.1   0.0   0.0   0.0
 2005 015    79  28.9  27.1  24.6  22.3  20.5  19.1  18.1   0.0   0.0   0.0
 2005 016    80  28.6  26.9  24.4  22.1  20.4  19.0  18.0   0.0   0.0   0.0
 2005 017    81  28.3  26.6  24.3  22.0  20.3  19.0  18.0   0.0   0.0   0.0
 2005 018    82  28.2  26.6  24.2  22.0  20.3  19.0  18.0   0.0   0.0   0.0
 2005 019    83  27.9  26.3  24.0  21.8  20.2  18.9  17.9   0.0   0.0   0.0
 2005 020    84  27.4  25.9  23.7  21.6  20.1  18.8  17.9   0.0   0.0   0.0
 2005 021    85  27.1  25.6  23.5  21.5  20.0  18.7  17.8   0.0   0.0   0.0
 2005 022    86  27.0  25.5  23.4  21.4  19.9  18.7  17.8   0.0   0.0   0.0
 2005 023    87  27.8  26.2  23.9  21.8  20.2  18.9  17.9   0.0   0.0   0.0
 2005 024    88  27.8  26.2  24.0  21.9  20.3  18.9  18.0   0.0   0.0   0.0
 2005 025    89  27.9  26.3  24.1  21.9  20.3  19.0  18.0   0.0   0.0   0.0
 2005 026    90  27.0  25.6  23.5  21.5  20.0  18.8  17.8   0.0   0.0   0.0
 2005 027    91  26.5  25.1  23.1  21.2  19.8  18.6  17.8   0.0   0.0   0.0
 2005 028    92  27.1  25.6  23.6  21.6  20.1  18.8  17.9   0.0   0.0   0.0
 2005 029    93  28.0  26.5  24.2  22.1  20.4  19.1  18.0   0.0   0.0   0.0
 2005 030    94  28.8  27.2  24.8  22.6  20.9  19.4  18.3   0.0   0.0   0.0
 2005 031    95  28.3  26.8  24.6  22.5  20.9  19.5  18.4   0.0   0.0   0.0
 2005 032    96  26.4  25.2  23.4  21.6  20.2  19.0  18.0   0.0   0.0   0.0
 2005 033    97  24.1  23.2  21.7  20.3  19.2  18.2  17.5   0.0   0.0   0.0
 2005 034    98  22.1  21.4  20.3  19.3  18.4  17.7  17.1   0.0   0.0   0.0
 2005 035    99  22.1  21.4  20.4  19.3  18.4  17.7  17.1   0.0   0.0   0.0
 2005 036   100  23.7  22.8  21.4  20.1  19.0  18.1  17.4   0.0   0.0   0.0
 2005 037   101  25.5  24.3  22.7  21.0  19.7  18.6  17.8   0.0   0.0   0.0
 2005 038   102  26.7  25.4  23.5  21.6  20.2  19.0  18.0   0.0   0.0   0.0
 2005 039   103  26.6  25.4  23.5  21.7  20.3  19.0  18.0   0.0   0.0   0.0
 2005 040   104  26.8  25.5  23.7  21.8  20.4  19.1  18.1   0.0   0.0   0.0
 2005 041   105  25.7  24.6  22.9  21.2  19.9  18.8  17.9   0.0   0.0   0.0
 2005 042   106  24.8  23.8  22.4  20.8  19.6  18.6  17.8   0.0   0.0   0.0
 2005 043   107  24.4  23.4  22.0  20.6  19.5  18.5  17.7   0.0   0.0   0.0
 2005 044   108  25.0  24.0  22.5  20.9  19.7  18.6  17.8   0.0   0.0   0.0
 2005 045   109  24.8  23.8  22.3  20.8  19.6  18.6  17.8   0.0   0.0   0.0
 2005 046   110  25.3  24.3  22.7  21.1  19.9  18.7  17.9   0.0   0.0   0.0
 2005 047   111  25.9  24.7  23.1  21.4  20.1  18.9  18.0   0.0   0.0   0.0
 2005 048   112  26.2  25.0  23.3  21.6  20.2  19.0  18.0   0.0   0.0   0.0
 2005 049   113  25.9  24.8  23.2  21.5  20.1  18.9  18.0   0.0   0.0   0.0
 2005 050   114  26.2  25.1  23.4  21.6  20.3  19.0  18.1   0.0   0.0   0.0
 2005 051   115  27.0  25.7  23.9  22.0  20.6  19.3  18.2   0.0   0.0   0.0
 2005 052   116  27.5  26.2  24.3  22.3  20.8  19.4  18.3   0.0   0.0   0.0
 2005 053   117  28.2  26.8  24.8  22.8  21.1  19.7  18.5   0.0   0.0   0.0
 2005 054   118  29.0  27.5  25.3  23.2  21.4  19.9  18.7   0.0   0.0   0.0
 2005 055   119  29.4  27.8  25.6  23.4  21.6  20.0  18.8   0.0   0.0   0.0
 2005 056   120  28.6  27.2  25.1  23.0  21.3  19.8  18.6   0.0   0.0   0.0
 2005 057   121  27.8  26.5  24.6  22.6  21.0  19.6  18.5   0.0   0.0   0.0

*DSSAT Cropping System Model Ver. 4.0.2.000               Aug 16, 2016; 17:55:43

*RUN   6        : UYMZ                    
 MODEL          : MZCER040 - Maize           
 EXPERIMENT     : UYMZ0214 MZ    late to create DSS                             
 TREATMENT  1   : UYMZ                    

@YEAR DOY   DAS  TS1D  TS2D  TS3D  TS4D  TS5D  TS6D  TS7D  TS8D  TS9D  TS10
 2005 302     0  15.3  15.1  14.9  14.9  15.1  15.4  15.7   0.0   0.0   0.0
 2005 303     1  15.1  14.9  14.8  14.8  15.0  15.3  15.7   0.0   0.0   0.0
 2005 304     2  15.5  15.3  15.1  15.0  15.2  15.4  15.7   0.0   0.0   0.0
 2005 305     3  16.8  16.4  16.0  15.7  15.7  15.8  16.0   0.0   0.0   0.0
 2005 306     4  19.0  18.3  17.4  16.8  16.5  16.3  16.4   0.0   0.0   0.0
 2005 307     5  21.4  20.4  19.1  18.0  17.4  17.0  16.8   0.0   0.0   0.0
 2005 308     6  22.4  21.3  19.8  18.5  17.8  17.3  17.0   0.0   0.0   0.0
 2005 309     7  22.9  21.7  20.1  18.8  18.0  17.4  17.1   0.0   0.0   0.0
 2005 310     8  22.1  21.0  19.5  18.4  17.6  17.2  16.9   0.0   0.0   0.0
 2005 311     9  20.3  19.5  18.3  17.5  17.0  16.7  16.6   0.0   0.0   0.0
 2005 312    10  19.0  18.3  17.4  16.8  16.4  16.3  16.3   0.0   0.0   0.0
 2005 313    11  19.3  18.6  17.7  17.0  16.6  16.4  16.4   0.0   0.0   0.0
 2005 314    12  19.6  18.8  17.8  17.1  16.7  16.4  16.4   0.0   0.0   0.0
 2005 315    13  20.8  19.9  18.7  17.7  17.1  16.8  16.6   0.0   0.0   0.0
 2005 316    14  22.5  21.3  19.8  18.6  17.8  17.2  16.9   0.0   0.0   0.0
 2005 317    15  23.6  22.3  20.6  19.1  18.2  17.5  17.1   0.0   0.0   0.0
 2005 318    16  24.5  23.1  21.2  19.6  18.5  17.8  17.3   0.0   0.0   0.0
 2005 319    17  25.2  23.7  21.7  20.0  18.8  18.0  17.4   0.0   0.0   0.0
 2005 320    18  25.5  23.9  21.9  20.1  18.9  18.0  17.5   0.0   0.0   0.0
 2005 321    19  25.9  24.3  22.1  20.3  19.1  18.1  17.5   0.0   0.0   0.0
 2005 322    20  25.6  24.1  22.0  20.2  19.0  18.1  17.5   0.0   0.0   0.0
 2005 323    21  26.2  24.5  22.4  20.5  19.2  18.2  17.6   0.0   0.0   0.0
 2005 324    22  27.3  25.5  23.1  21.0  19.6  18.5  17.8   0.0   0.0   0.0
 2005 325    23  28.1  26.2  23.7  21.4  19.9  18.7  17.9   0.0   0.0   0.0
 2005 326    24  29.1  27.1  24.3  21.9  20.3  19.0  18.1   0.0   0.0   0.0
 2005 327    25  29.5  27.5  24.6  22.2  20.4  19.1  18.2   0.0   0.0   0.0
 2005 328    26  28.4  26.5  23.9  21.6  20.0  18.8  18.0   0.0   0.0   0.0
 2005 329    27  27.9  26.0  23.5  21.3  19.8  18.7  17.9   0.0   0.0   0.0
 2005 330    28  28.3  26.4  23.8  21.6  20.0  18.8  17.9   0.0   0.0   0.0
 2005 331    29  28.4  26.5  23.9  21.6  20.0  18.8  17.9   0.0   0.0   0.0
 2005 332    30  29.4  27.3  24.6  22.1  20.4  19.0  18.1   0.0   0.0   0.0
 2005 333    31  30.0  27.9  25.0  22.4  20.6  19.2  18.2   0.0   0.0   0.0
 2005 334    32  28.6  26.7  24.1  21.8  20.1  18.9  18.0   0.0   0.0   0.0
 2005 335    33  26.0  24.4  22.3  20.4  19.1  18.1  17.5   0.0   0.0   0.0
 2005 336    34  23.7  22.4  20.7  19.3  18.3  17.5  17.1   0.0   0.0   0.0
 2005 337    35  22.4  21.4  19.9  18.6  17.8  17.2  16.8   0.0   0.0   0.0
 2005 338    36  22.0  21.0  19.6  18.4  17.6  17.1  16.8   0.0   0.0   0.0
 2005 339    37  22.6  21.5  20.0  18.7  17.8  17.2  16.9   0.0   0.0   0.0
 2005 340    38  22.7  21.6  20.1  18.8  17.9  17.3  16.9   0.0   0.0   0.0
 2005 341    39  22.7  21.6  20.1  18.7  17.9  17.2  16.9   0.0   0.0   0.0
 2005 342    40  21.8  20.8  19.5  18.3  17.6  17.0  16.7   0.0   0.0   0.0
 2005 343    41  22.3  21.3  19.9  18.6  17.8  17.2  16.8   0.0   0.0   0.0
 2005 344    42  21.6  20.6  19.3  18.2  17.5  16.9  16.7   0.0   0.0   0.0
 2005 345    43  22.3  21.3  19.9  18.6  17.8  17.2  16.8   0.0   0.0   0.0
 2005 346    44  23.0  21.8  20.3  18.9  18.0  17.3  16.9   0.0   0.0   0.0
 2005 347    45  24.6  23.2  21.4  19.8  18.6  17.8  17.2   0.0   0.0   0.0
 2005 348    46  25.1  23.7  21.8  20.0  18.8  17.9  17.3   0.0   0.0   0.0
 2005 349    47  26.6  25.0  22.8  20.8  19.4  18.3  17.6   0.0   0.0   0.0
 2005 350    48  27.0  25.3  23.1  21.0  19.6  18.4  17.7   0.0   0.0   0.0
 2005 351    49  26.5  24.9  22.8  20.8  19.4  18.3  17.6   0.0   0.0   0.0
 2005 352    50  26.3  24.7  22.6  20.7  19.3  18.2  17.5   0.0   0.0   0.0
 2005 353    51  24.8  23.5  21.6  19.9  18.8  17.9  17.3   0.0   0.0   0.0
 2005 354    52  24.2  23.0  21.2  19.7  18.5  17.7  17.2   0.0   0.0   0.0
 2005 355    53  25.8  24.3  22.3  20.4  19.1  18.1  17.4   0.0   0.0   0.0
 2005 356    54  27.2  25.6  23.3  21.2  19.7  18.5  17.7   0.0   0.0   0.0
 2005 357    55  26.4  24.9  22.7  20.8  19.4  18.3  17.6   0.0   0.0   0.0
 2005 358    56  26.4  24.8  22.7  20.8  19.4  18.3  17.6   0.0   0.0   0.0
 2005 359    57  26.5  24.9  22.8  20.8  19.4  18.3  17.6   0.0   0.0   0.0
 2005 360    58  25.7  24.3  22.3  20.5  19.2  18.1  17.4   0.0   0.0   0.0
 2005 361    59  26.0  24.6  22.5  20.6  19.3  18.2  17.5   0.0   0.0   0.0
 2005 362    60  27.8  26.1  23.7  21.5  20.0  18.7  17.8   0.0   0.0   0.0
 2005 363    61  29.9  27.9  25.1  22.6  20.7  19.3  18.2   0.0   0.0   0.0
 2005 364    62  30.6  28.5  25.6  23.0  21.0  19.5  18.3   0.0   0.0   0.0
 2005 365    63  30.6  28.5  25.6  23.0  21.0  19.5  18.3   0.0   0.0   0.0
 2006 001    64  30.4  28.3  25.4  22.8  20.9  19.4  18.3   0.0   0.0   0.0
 2006 002    65  30.1  28.1  25.3  22.7  20.8  19.3  18.2   0.0   0.0   0.0
 2006 003    66  28.9  27.0  24.4  22.1  20.4  19.0  18.0   0.0   0.0   0.0
 2006 004    67  27.9  26.2  23.8  21.6  20.0  18.7  17.8   0.0   0.0   0.0
 2006 005    68  27.6  25.9  23.6  21.5  19.9  18.7  17.8   0.0   0.0   0.0
 2006 006    69  28.1  26.4  24.0  21.8  20.1  18.8  17.9   0.0   0.0   0.0
 2006 007    70  29.1  27.2  24.6  22.3  20.5  19.1  18.1   0.0   0.0   0.0
 2006 008    71  28.6  26.8  24.3  22.0  20.3  19.0  18.0   0.0   0.0   0.0
 2006 009    72  30.4  28.4  25.6  23.0  21.1  19.5  18.4   0.0   0.0   0.0
 2006 010    73  30.6  28.6  25.7  23.1  21.2  19.6  18.4   0.0   0.0   0.0
 2006 011    74  28.5  26.8  24.3  22.1  20.4  19.0  18.0   0.0   0.0   0.0
 2006 012    75  26.8  25.3  23.2  21.2  19.8  18.6  17.7   0.0   0.0   0.0
 2006 013    76  26.3  24.9  22.9  21.0  19.6  18.5  17.7   0.0   0.0   0.0
 2006 014    77  24.2  23.1  21.5  20.0  18.8  17.9  17.3   0.0   0.0   0.0
 2006 015    78  23.0  22.1  20.8  19.5  18.5  17.7  17.2   0.0   0.0   0.0
 2006 016    79  22.8  21.9  20.6  19.4  18.5  17.7  17.1   0.0   0.0   0.0
 2006 017    80  21.8  21.0  19.9  18.8  18.0  17.4  16.9   0.0   0.0   0.0
 2006 018    81  22.3  21.5  20.3  19.1  18.2  17.5  17.0   0.0   0.0   0.0
 2006 019    82  23.6  22.6  21.2  19.8  18.7  17.9  17.2   0.0   0.0   0.0
 2006 020    83  25.0  23.8  22.1  20.5  19.3  18.2  17.5   0.0   0.0   0.0
 2006 021    84  25.7  24.4  22.6  20.8  19.5  18.4  17.6   0.0   0.0   0.0
 2006 022    85  25.9  24.6  22.7  21.0  19.6  18.5  17.7   0.0   0.0   0.0
 2006 023    86  26.6  25.2  23.2  21.4  19.9  18.7  17.8   0.0   0.0   0.0
 2006 024    87  26.7  25.3  23.3  21.4  20.0  18.8  17.8   0.0   0.0   0.0
 2006 025    88  26.0  24.7  22.9  21.1  19.7  18.6  17.7   0.0   0.0   0.0
 2006 026    89  26.5  25.1  23.2  21.3  19.9  18.7  17.8   0.0   0.0   0.0
 2006 027    90  27.6  26.1  24.0  21.9  20.3  19.0  18.0   0.0   0.0   0.0
 2006 028    91  28.6  27.0  24.6  22.4  20.7  19.3  18.2   0.0   0.0   0.0
 2006 029    92  29.4  27.7  25.2  22.9  21.0  19.5  18.4   0.0   0.0   0.0
 2006 030    93  29.1  27.5  25.0  22.7  21.0  19.5  18.3   0.0   0.0   0.0
 2006 031    94  28.7  27.1  24.8  22.5  20.8  19.4  18.3   0.0   0.0   0.0
 2006 032    95  28.2  26.7  24.4  22.3  20.6  19.2  18.2   0.0   0.0   0.0
 2006 033    96  27.1  25.7  23.7  21.7  20.2  19.0  18.0   0.0   0.0   0.0
 2006 034    97  26.2  24.9  23.1  21.3  19.9  18.7  17.8   0.0   0.0   0.0
 2006 035    98  26.5  25.2  23.3  21.4  20.0  18.8  17.9   0.0   0.0   0.0
 2006 036    99  27.0  25.6  23.7  21.7  20.2  19.0  18.0   0.0   0.0   0.0
 2006 037   100  26.8  25.4  23.5  21.6  20.2  18.9  18.0   0.0   0.0   0.0
 2006 038   101  26.1  24.9  23.1  21.3  19.9  18.7  17.8   0.0   0.0   0.0
 2006 039   102  24.8  23.8  22.2  20.7  19.5  18.4  17.6   0.0   0.0   0.0
 2006 040   103  24.5  23.5  22.0  20.5  19.3  18.3  17.6   0.0   0.0   0.0
 2006 041   104  23.7  22.9  21.5  20.2  19.1  18.1  17.4   0.0   0.0   0.0
 2006 042   105  23.7  22.8  21.5  20.1  19.1  18.1  17.4   0.0   0.0   0.0
 2006 043   106  24.2  23.3  21.8  20.4  19.3  18.3  17.5   0.0   0.0   0.0
 2006 044   107  25.3  24.2  22.6  21.0  19.7  18.6  17.7   0.0   0.0   0.0
 2006 045   108  26.1  24.9  23.2  21.4  20.0  18.8  17.9   0.0   0.0   0.0
 2006 046   109  27.5  26.1  24.1  22.1  20.5  19.2  18.2   0.0   0.0   0.0
 2006 047   110  28.8  27.2  25.0  22.8  21.0  19.6  18.4   0.0   0.0   0.0
 2006 048   111  29.6  27.9  25.5  23.2  21.4  19.8  18.6   0.0   0.0   0.0
 2006 049   112  30.1  28.4  25.9  23.4  21.6  19.9  18.6   0.0   0.0   0.0
 2006 050   113  30.6  28.8  26.3  23.7  21.8  20.1  18.8   0.0   0.0   0.0
 2006 051   114  30.7  28.9  26.3  23.8  21.8  20.1  18.8   0.0   0.0   0.0
 2006 052   115  30.6  28.8  26.3  23.8  21.8  20.1  18.8   0.0   0.0   0.0
 2006 053   116  30.1  28.4  25.9  23.5  21.6  20.0  18.7   0.0   0.0   0.0
 2006 054   117  29.1  27.5  25.2  23.0  21.3  19.7  18.5   0.0   0.0   0.0
 2006 055   118  27.1  25.9  24.0  22.1  20.6  19.3  18.2   0.0   0.0   0.0
 2006 056   119  25.5  24.4  22.9  21.3  20.0  18.9  18.0   0.0   0.0   0.0
 2006 057   120  24.3  23.5  22.1  20.8  19.6  18.6  17.8   0.0   0.0   0.0
 2006 058   121  23.5  22.8  21.6  20.4  19.3  18.4  17.6   0.0   0.0   0.0

*DSSAT Cropping System Model Ver. 4.0.2.000               Aug 16, 2016; 17:55:43

*RUN   7        : UYMZ                    
 MODEL          : MZCER040 - Maize           
 EXPERIMENT     : UYMZ0214 MZ    late to create DSS                             
 TREATMENT  1   : UYMZ                    

@YEAR DOY   DAS  TS1D  TS2D  TS3D  TS4D  TS5D  TS6D  TS7D  TS8D  TS9D  TS10
 2006 302     0  21.6  20.5  19.2  18.1  17.5  17.1  16.9   0.0   0.0   0.0
 2006 303     1  20.9  20.0  18.8  17.8  17.2  16.9  16.7   0.0   0.0   0.0
 2006 304     2  20.5  19.6  18.4  17.6  17.1  16.8  16.6   0.0   0.0   0.0
 2006 305     3  20.4  19.5  18.4  17.5  17.0  16.7  16.6   0.0   0.0   0.0
 2006 306     4  20.8  19.9  18.7  17.8  17.2  16.8  16.7   0.0   0.0   0.0
 2006 307     5  20.6  19.6  18.5  17.6  17.1  16.8  16.6   0.0   0.0   0.0
 2006 308     6  21.0  20.0  18.8  17.8  17.2  16.9  16.7   0.0   0.0   0.0
 2006 309     7  20.9  19.9  18.7  17.8  17.2  16.8  16.7   0.0   0.0   0.0
 2006 310     8  20.8  19.9  18.7  17.8  17.2  16.8  16.7   0.0   0.0   0.0
 2006 311     9  19.5  18.7  17.8  17.1  16.6  16.4  16.4   0.0   0.0   0.0
 2006 312    10  19.3  18.5  17.6  16.9  16.6  16.4  16.4   0.0   0.0   0.0
 2006 313    11  19.5  18.8  17.8  17.1  16.7  16.4  16.4   0.0   0.0   0.0
 2006 314    12  19.5  18.8  17.8  17.1  16.7  16.4  16.4   0.0   0.0   0.0
 2006 315    13  19.6  18.9  17.9  17.1  16.7  16.5  16.4   0.0   0.0   0.0
 2006 316    14  21.0  20.0  18.8  17.8  17.2  16.8  16.7   0.0   0.0   0.0
 2006 317    15  23.1  21.9  20.3  18.9  18.0  17.4  17.0   0.0   0.0   0.0
 2006 318    16  24.8  23.3  21.4  19.8  18.7  17.9  17.4   0.0   0.0   0.0
 2006 319    17  26.6  24.9  22.6  20.7  19.3  18.3  17.7   0.0   0.0   0.0
 2006 320    18  26.8  25.1  22.8  20.8  19.5  18.4  17.7   0.0   0.0   0.0
 2006 321    19  25.5  24.0  21.9  20.2  19.0  18.1  17.5   0.0   0.0   0.0
 2006 322    20  23.5  22.2  20.5  19.1  18.2  17.5  17.1   0.0   0.0   0.0
 2006 323    21  21.9  20.8  19.4  18.3  17.5  17.0  16.8   0.0   0.0   0.0
 2006 324    22  21.0  20.1  18.8  17.8  17.2  16.8  16.6   0.0   0.0   0.0
 2006 325    23  21.8  20.8  19.4  18.3  17.5  17.0  16.8   0.0   0.0   0.0
 2006 326    24  23.5  22.2  20.5  19.1  18.1  17.5  17.1   0.0   0.0   0.0
 2006 327    25  25.6  24.1  22.0  20.2  19.0  18.1  17.5   0.0   0.0   0.0
 2006 328    26  27.2  25.5  23.1  21.0  19.6  18.5  17.8   0.0   0.0   0.0
 2006 329    27  27.4  25.6  23.2  21.1  19.7  18.5  17.8   0.0   0.0   0.0
 2006 330    28  26.1  24.5  22.4  20.5  19.2  18.2  17.5   0.0   0.0   0.0
 2006 331    29  24.6  23.2  21.4  19.7  18.6  17.8  17.3   0.0   0.0   0.0
 2006 332    30  23.2  22.0  20.4  19.0  18.1  17.4  17.0   0.0   0.0   0.0
 2006 333    31  22.3  21.2  19.8  18.5  17.7  17.1  16.8   0.0   0.0   0.0
 2006 334    32  22.8  21.7  20.1  18.8  17.9  17.3  16.9   0.0   0.0   0.0
 2006 335    33  24.5  23.1  21.3  19.6  18.5  17.7  17.2   0.0   0.0   0.0
 2006 336    34  26.4  24.8  22.6  20.7  19.3  18.3  17.6   0.0   0.0   0.0
 2006 337    35  26.6  24.9  22.7  20.7  19.4  18.3  17.6   0.0   0.0   0.0
 2006 338    36  25.9  24.4  22.3  20.4  19.1  18.1  17.5   0.0   0.0   0.0
 2006 339    37  25.0  23.6  21.6  19.9  18.8  17.9  17.3   0.0   0.0   0.0
 2006 340    38  24.3  22.9  21.1  19.6  18.5  17.7  17.2   0.0   0.0   0.0
 2006 341    39  24.2  22.8  21.1  19.5  18.4  17.6  17.1   0.0   0.0   0.0
 2006 342    40  25.2  23.8  21.8  20.1  18.8  17.9  17.3   0.0   0.0   0.0
 2006 343    41  26.4  24.8  22.6  20.6  19.3  18.2  17.5   0.0   0.0   0.0
 2006 344    42  28.2  26.3  23.8  21.6  20.0  18.7  17.9   0.0   0.0   0.0
 2006 345    43  29.5  27.5  24.7  22.2  20.5  19.1  18.1   0.0   0.0   0.0
 2006 346    44  30.3  28.1  25.2  22.6  20.8  19.3  18.2   0.0   0.0   0.0
 2006 347    45  30.5  28.3  25.4  22.7  20.8  19.3  18.3   0.0   0.0   0.0
 2006 348    46  30.2  28.1  25.2  22.6  20.7  19.3  18.2   0.0   0.0   0.0
 2006 349    47  29.2  27.2  24.5  22.1  20.4  19.0  18.0   0.0   0.0   0.0
 2006 350    48  29.3  27.3  24.6  22.2  20.4  19.0  18.1   0.0   0.0   0.0
 2006 351    49  28.0  26.3  23.9  21.7  20.1  18.8  17.9   0.0   0.0   0.0
 2006 352    50  27.6  25.9  23.6  21.5  19.9  18.7  17.8   0.0   0.0   0.0
 2006 353    51  27.9  26.2  23.8  21.6  20.0  18.8  17.9   0.0   0.0   0.0
 2006 354    52  26.9  25.4  23.2  21.1  19.7  18.5  17.7   0.0   0.0   0.0
 2006 355    53  25.8  24.4  22.4  20.6  19.2  18.2  17.5   0.0   0.0   0.0
 2006 356    54  26.7  25.1  23.0  21.0  19.6  18.4  17.7   0.0   0.0   0.0
 2006 357    55  27.2  25.5  23.3  21.2  19.7  18.6  17.7   0.0   0.0   0.0
 2006 358    56  26.9  25.3  23.1  21.1  19.7  18.5  17.7   0.0   0.0   0.0
 2006 359    57  27.3  25.7  23.4  21.3  19.8  18.6  17.8   0.0   0.0   0.0
 2006 360    58  26.9  25.3  23.2  21.1  19.7  18.5  17.7   0.0   0.0   0.0
 2006 361    59  26.7  25.1  23.0  21.0  19.6  18.5  17.7   0.0   0.0   0.0
 2006 362    60  26.7  25.2  23.0  21.1  19.6  18.5  17.7   0.0   0.0   0.0
 2006 363    61  27.6  25.9  23.6  21.5  19.9  18.7  17.8   0.0   0.0   0.0
 2006 364    62  28.0  26.3  24.0  21.8  20.1  18.8  17.9   0.0   0.0   0.0
 2006 365    63  29.4  27.5  24.9  22.5  20.7  19.2  18.2   0.0   0.0   0.0
 2007 001    64  30.6  28.5  25.6  23.0  21.0  19.5  18.3   0.0   0.0   0.0
 2007 002    65  30.1  28.1  25.3  22.7  20.9  19.4  18.3   0.0   0.0   0.0
 2007 003    66  29.5  27.6  25.0  22.5  20.7  19.3  18.2   0.0   0.0   0.0
 2007 004    67  29.9  28.0  25.2  22.7  20.9  19.4  18.3   0.0   0.0   0.0
 2007 005    68  28.4  26.7  24.2  22.0  20.3  19.0  18.0   0.0   0.0   0.0
 2007 006    69  26.5  25.0  22.9  21.0  19.6  18.4  17.6   0.0   0.0   0.0
 2007 007    70  26.0  24.6  22.6  20.8  19.4  18.3  17.6   0.0   0.0   0.0
 2007 008    71  26.3  24.9  22.8  20.9  19.5  18.4  17.6   0.0   0.0   0.0
 2007 009    72  26.8  25.3  23.1  21.2  19.7  18.5  17.7   0.0   0.0   0.0
 2007 010    73  27.6  26.0  23.7  21.6  20.0  18.7  17.8   0.0   0.0   0.0
 2007 011    74  28.3  26.5  24.1  21.9  20.2  18.9  17.9   0.0   0.0   0.0
 2007 012    75  28.9  27.1  24.6  22.2  20.5  19.1  18.1   0.0   0.0   0.0
 2007 013    76  29.1  27.3  24.7  22.4  20.6  19.2  18.1   0.0   0.0   0.0
 2007 014    77  27.3  25.8  23.5  21.5  19.9  18.7  17.8   0.0   0.0   0.0
 2007 015    78  26.3  24.9  22.9  21.0  19.6  18.4  17.6   0.0   0.0   0.0
 2007 016    79  26.4  25.0  23.0  21.0  19.6  18.5  17.6   0.0   0.0   0.0
 2007 017    80  26.7  25.3  23.2  21.2  19.8  18.6  17.7   0.0   0.0   0.0
 2007 018    81  26.2  24.8  22.8  20.9  19.6  18.4  17.6   0.0   0.0   0.0
 2007 019    82  26.9  25.4  23.3  21.3  19.8  18.6  17.8   0.0   0.0   0.0
 2007 020    83  27.5  25.9  23.7  21.6  20.1  18.8  17.9   0.0   0.0   0.0
 2007 021    84  27.5  25.9  23.7  21.6  20.1  18.8  17.9   0.0   0.0   0.0
 2007 022    85  27.4  25.9  23.7  21.6  20.1  18.8  17.9   0.0   0.0   0.0
 2007 023    86  27.7  26.1  23.9  21.8  20.2  18.9  17.9   0.0   0.0   0.0
 2007 024    87  28.6  26.9  24.5  22.2  20.5  19.1  18.1   0.0   0.0   0.0
 2007 025    88  28.6  26.9  24.5  22.3  20.6  19.2  18.1   0.0   0.0   0.0
 2007 026    89  28.4  26.7  24.4  22.2  20.5  19.1  18.1   0.0   0.0   0.0
 2007 027    90  27.5  26.0  23.9  21.8  20.2  18.9  17.9   0.0   0.0   0.0
 2007 028    91  26.8  25.4  23.4  21.4  20.0  18.7  17.8   0.0   0.0   0.0
 2007 029    92  26.0  24.7  22.8  21.0  19.7  18.5  17.7   0.0   0.0   0.0
 2007 030    93  26.0  24.7  22.9  21.1  19.7  18.5  17.7   0.0   0.0   0.0
 2007 031    94  26.4  25.0  23.1  21.3  19.8  18.7  17.8   0.0   0.0   0.0
 2007 032    95  27.3  25.9  23.8  21.8  20.2  18.9  18.0   0.0   0.0   0.0
 2007 033    96  28.9  27.3  24.9  22.6  20.8  19.4  18.2   0.0   0.0   0.0
 2007 034    97  30.7  28.8  26.0  23.5  21.5  19.8  18.6   0.0   0.0   0.0
 2007 035    98  31.7  29.7  26.8  24.0  21.9  20.1  18.8   0.0   0.0   0.0
 2007 036    99  31.6  29.7  26.8  24.1  22.0  20.2  18.9   0.0   0.0   0.0
 2007 037   100  31.3  29.4  26.6  24.0  21.9  20.2  18.8   0.0   0.0   0.0
 2007 038   101  30.4  28.6  26.0  23.5  21.6  19.9  18.7   0.0   0.0   0.0
 2007 039   102  28.9  27.3  25.0  22.7  21.0  19.5  18.4   0.0   0.0   0.0
 2007 040   103  28.1  26.6  24.5  22.4  20.7  19.3  18.2   0.0   0.0   0.0
 2007 041   104  28.1  26.6  24.5  22.4  20.8  19.4  18.3   0.0   0.0   0.0
 2007 042   105  27.4  26.0  24.0  22.1  20.5  19.2  18.2   0.0   0.0   0.0
 2007 043   106  26.8  25.5  23.6  21.8  20.3  19.0  18.1   0.0   0.0   0.0
 2007 044   107  27.1  25.8  23.9  21.9  20.4  19.1  18.1   0.0   0.0   0.0
 2007 045   108  27.6  26.3  24.2  22.2  20.7  19.3  18.2   0.0   0.0   0.0
 2007 046   109  28.2  26.7  24.6  22.5  20.9  19.5  18.3   0.0   0.0   0.0
 2007 047   110  28.6  27.1  25.0  22.8  21.1  19.7  18.5   0.0   0.0   0.0
 2007 048   111  28.4  26.9  24.8  22.7  21.1  19.6  18.5   0.0   0.0   0.0
 2007 049   112  27.5  26.2  24.2  22.3  20.7  19.4  18.3   0.0   0.0   0.0
 2007 050   113  26.5  25.3  23.5  21.7  20.3  19.1  18.1   0.0   0.0   0.0
 2007 051   114  25.8  24.7  23.1  21.4  20.1  18.9  18.0   0.0   0.0   0.0
 2007 052   115  26.0  24.9  23.2  21.5  20.2  19.0  18.0   0.0   0.0   0.0

*DSSAT Cropping System Model Ver. 4.0.2.000               Aug 16, 2016; 17:55:43

*RUN   8        : UYMZ                    
 MODEL          : MZCER040 - Maize           
 EXPERIMENT     : UYMZ0214 MZ    late to create DSS                             
 TREATMENT  1   : UYMZ                    

@YEAR DOY   DAS  TS1D  TS2D  TS3D  TS4D  TS5D  TS6D  TS7D  TS8D  TS9D  TS10
 2007 302     0  24.0  22.6  20.8  19.4  18.4  17.7  17.3   0.0   0.0   0.0
 2007 303     1  24.3  22.9  21.0  19.5  18.5  17.8  17.4   0.0   0.0   0.0
 2007 304     2  24.2  22.8  21.0  19.4  18.5  17.8  17.3   0.0   0.0   0.0
 2007 305     3  23.6  22.3  20.5  19.1  18.2  17.6  17.2   0.0   0.0   0.0
 2007 306     4  23.2  22.0  20.3  18.9  18.1  17.5  17.1   0.0   0.0   0.0
 2007 307     5  23.2  22.0  20.3  18.9  18.1  17.5  17.1   0.0   0.0   0.0
 2007 308     6  21.4  20.4  19.1  18.0  17.4  17.0  16.8   0.0   0.0   0.0
 2007 309     7  21.3  20.3  19.0  17.9  17.3  16.9  16.8   0.0   0.0   0.0
 2007 310     8  22.2  21.1  19.6  18.4  17.7  17.2  16.9   0.0   0.0   0.0
 2007 311     9  23.0  21.8  20.2  18.8  18.0  17.4  17.1   0.0   0.0   0.0
 2007 312    10  22.4  21.3  19.8  18.5  17.7  17.2  16.9   0.0   0.0   0.0
 2007 313    11  23.0  21.8  20.2  18.8  18.0  17.4  17.0   0.0   0.0   0.0
 2007 314    12  21.7  20.7  19.3  18.2  17.5  17.0  16.8   0.0   0.0   0.0
 2007 315    13  19.6  18.8  17.9  17.1  16.7  16.5  16.4   0.0   0.0   0.0
 2007 316    14  18.7  18.0  17.2  16.6  16.3  16.2  16.2   0.0   0.0   0.0
 2007 317    15  17.4  16.9  16.4  16.0  15.8  15.8  16.0   0.0   0.0   0.0
 2007 318    16  16.4  16.1  15.7  15.5  15.4  15.6  15.8   0.0   0.0   0.0
 2007 319    17  16.5  16.1  15.7  15.5  15.5  15.6  15.8   0.0   0.0   0.0
 2007 320    18  18.3  17.7  17.0  16.4  16.2  16.1  16.1   0.0   0.0   0.0
 2007 321    19  19.1  18.4  17.5  16.8  16.5  16.3  16.3   0.0   0.0   0.0
 2007 322    20  20.3  19.4  18.4  17.5  16.9  16.6  16.5   0.0   0.0   0.0
 2007 323    21  22.9  21.7  20.2  18.8  18.0  17.3  17.0   0.0   0.0   0.0
 2007 324    22  24.4  23.0  21.1  19.6  18.5  17.7  17.2   0.0   0.0   0.0
 2007 325    23  24.5  23.1  21.2  19.6  18.5  17.8  17.3   0.0   0.0   0.0
 2007 326    24  25.1  23.6  21.7  20.0  18.8  17.9  17.4   0.0   0.0   0.0
 2007 327    25  24.9  23.5  21.5  19.8  18.7  17.9  17.3   0.0   0.0   0.0
 2007 328    26  22.3  21.3  19.8  18.5  17.7  17.2  16.9   0.0   0.0   0.0
 2007 329    27  21.7  20.7  19.4  18.2  17.5  17.0  16.7   0.0   0.0   0.0
 2007 330    28  21.2  20.2  19.0  18.0  17.3  16.8  16.6   0.0   0.0   0.0
 2007 331    29  20.3  19.5  18.4  17.5  17.0  16.6  16.5   0.0   0.0   0.0
 2007 332    30  21.5  20.5  19.2  18.1  17.4  16.9  16.7   0.0   0.0   0.0
 2007 333    31  24.3  23.0  21.2  19.6  18.5  17.7  17.2   0.0   0.0   0.0
 2007 334    32  26.1  24.6  22.4  20.5  19.2  18.2  17.5   0.0   0.0   0.0
 2007 335    33  27.6  25.8  23.4  21.3  19.8  18.6  17.8   0.0   0.0   0.0
 2007 336    34  28.2  26.4  23.8  21.6  20.0  18.8  17.9   0.0   0.0   0.0
 2007 337    35  29.0  27.1  24.4  22.0  20.3  19.0  18.1   0.0   0.0   0.0
 2007 338    36  28.8  26.9  24.2  21.9  20.2  18.9  18.0   0.0   0.0   0.0
 2007 339    37  27.2  25.5  23.2  21.1  19.6  18.5  17.7   0.0   0.0   0.0
 2007 340    38  26.5  24.9  22.7  20.7  19.4  18.3  17.6   0.0   0.0   0.0
 2007 341    39  26.4  24.8  22.6  20.7  19.3  18.3  17.6   0.0   0.0   0.0
 2007 342    40  26.1  24.6  22.4  20.5  19.2  18.2  17.5   0.0   0.0   0.0
 2007 343    41  26.3  24.7  22.5  20.6  19.3  18.2  17.5   0.0   0.0   0.0
 2007 344    42  26.9  25.2  23.0  20.9  19.5  18.4  17.6   0.0   0.0   0.0
 2007 345    43  26.1  24.5  22.4  20.5  19.2  18.2  17.5   0.0   0.0   0.0
 2007 346    44  26.4  24.8  22.6  20.7  19.3  18.3  17.5   0.0   0.0   0.0
 2007 347    45  26.8  25.2  22.9  20.9  19.5  18.4  17.6   0.0   0.0   0.0
 2007 348    46  27.0  25.3  23.1  21.0  19.6  18.4  17.7   0.0   0.0   0.0
 2007 349    47  26.6  25.0  22.8  20.8  19.4  18.3  17.6   0.0   0.0   0.0
 2007 350    48  26.4  24.8  22.7  20.7  19.3  18.3  17.5   0.0   0.0   0.0
 2007 351    49  25.9  24.4  22.4  20.5  19.2  18.2  17.5   0.0   0.0   0.0
 2007 352    50  25.2  23.8  21.9  20.1  18.9  18.0  17.3   0.0   0.0   0.0
 2007 353    51  24.0  22.8  21.1  19.5  18.5  17.6  17.1   0.0   0.0   0.0
 2007 354    52  25.4  24.0  22.1  20.3  19.0  18.0  17.4   0.0   0.0   0.0
 2007 355    53  27.7  26.0  23.6  21.4  19.9  18.7  17.8   0.0   0.0   0.0
 2007 356    54  27.1  25.5  23.2  21.1  19.7  18.5  17.7   0.0   0.0   0.0
 2007 357    55  26.2  24.7  22.6  20.7  19.3  18.3  17.5   0.0   0.0   0.0
 2007 358    56  26.4  24.9  22.7  20.8  19.4  18.3  17.6   0.0   0.0   0.0
 2007 359    57  25.0  23.6  21.8  20.1  18.9  17.9  17.3   0.0   0.0   0.0
 2007 360    58  23.2  22.1  20.6  19.2  18.2  17.5  17.0   0.0   0.0   0.0
 2007 361    59  23.2  22.1  20.6  19.2  18.2  17.5  17.0   0.0   0.0   0.0
 2007 362    60  23.9  22.7  21.1  19.6  18.5  17.7  17.1   0.0   0.0   0.0
 2007 363    61  24.6  23.3  21.6  20.0  18.8  17.9  17.3   0.0   0.0   0.0
 2007 364    62  26.3  24.8  22.7  20.8  19.4  18.3  17.6   0.0   0.0   0.0
 2007 365    63  28.5  26.7  24.2  21.9  20.3  18.9  18.0   0.0   0.0   0.0
 2008 001    64  29.6  27.7  24.9  22.5  20.6  19.2  18.1   0.0   0.0   0.0
 2008 002    65  31.1  28.9  26.0  23.2  21.2  19.6  18.4   0.0   0.0   0.0
 2008 003    66  31.6  29.4  26.4  23.6  21.5  19.8  18.6   0.0   0.0   0.0
 2008 004    67  30.0  28.0  25.3  22.7  20.9  19.4  18.3   0.0   0.0   0.0
 2008 005    68  28.3  26.6  24.2  21.9  20.3  18.9  18.0   0.0   0.0   0.0
 2008 006    69  28.6  26.8  24.3  22.0  20.4  19.0  18.0   0.0   0.0   0.0
 2008 007    70  28.3  26.6  24.2  21.9  20.3  18.9  18.0   0.0   0.0   0.0
 2008 008    71  29.0  27.2  24.6  22.3  20.5  19.1  18.1   0.0   0.0   0.0
 2008 009    72  30.5  28.5  25.6  23.0  21.1  19.5  18.4   0.0   0.0   0.0
 2008 010    73  30.5  28.5  25.7  23.1  21.2  19.6  18.4   0.0   0.0   0.0
 2008 011    74  29.2  27.4  24.9  22.5  20.7  19.3  18.2   0.0   0.0   0.0
 2008 012    75  28.0  26.3  24.0  21.9  20.2  18.9  18.0   0.0   0.0   0.0
 2008 013    76  26.8  25.4  23.3  21.3  19.8  18.6  17.8   0.0   0.0   0.0
 2008 014    77  26.8  25.3  23.2  21.2  19.8  18.6  17.7   0.0   0.0   0.0
 2008 015    78  28.4  26.7  24.3  22.1  20.4  19.0  18.0   0.0   0.0   0.0
 2008 016    79  28.9  27.1  24.7  22.3  20.6  19.2  18.1   0.0   0.0   0.0
 2008 017    80  28.8  27.1  24.6  22.3  20.6  19.2  18.1   0.0   0.0   0.0
 2008 018    81  28.3  26.6  24.3  22.1  20.4  19.0  18.0   0.0   0.0   0.0
 2008 019    82  26.8  25.3  23.3  21.3  19.8  18.6  17.8   0.0   0.0   0.0
 2008 020    83  25.0  23.8  22.1  20.4  19.2  18.2  17.5   0.0   0.0   0.0
 2008 021    84  25.4  24.2  22.4  20.6  19.4  18.3  17.5   0.0   0.0   0.0
 2008 022    85  25.6  24.3  22.5  20.7  19.4  18.3  17.6   0.0   0.0   0.0
 2008 023    86  26.0  24.7  22.8  21.0  19.6  18.5  17.6   0.0   0.0   0.0
 2008 024    87  27.1  25.7  23.6  21.6  20.0  18.8  17.9   0.0   0.0   0.0
 2008 025    88  28.0  26.5  24.2  22.0  20.4  19.0  18.0   0.0   0.0   0.0
 2008 026    89  28.1  26.5  24.2  22.1  20.4  19.1  18.0   0.0   0.0   0.0
 2008 027    90  28.2  26.6  24.3  22.1  20.5  19.1  18.1   0.0   0.0   0.0
 2008 028    91  28.5  26.9  24.6  22.3  20.6  19.2  18.1   0.0   0.0   0.0
 2008 029    92  28.6  26.9  24.6  22.3  20.6  19.2  18.2   0.0   0.0   0.0
 2008 030    93  28.1  26.5  24.3  22.1  20.5  19.1  18.1   0.0   0.0   0.0
 2008 031    94  28.1  26.5  24.3  22.2  20.5  19.1  18.1   0.0   0.0   0.0
 2008 032    95  28.3  26.7  24.4  22.3  20.6  19.2  18.1   0.0   0.0   0.0
 2008 033    96  27.9  26.4  24.2  22.1  20.5  19.1  18.1   0.0   0.0   0.0
 2008 034    97  26.9  25.5  23.5  21.6  20.1  18.9  17.9   0.0   0.0   0.0
 2008 035    98  27.4  26.0  23.9  21.9  20.3  19.0  18.0   0.0   0.0   0.0
 2008 036    99  27.7  26.2  24.1  22.0  20.5  19.1  18.1   0.0   0.0   0.0
 2008 037   100  28.9  27.3  24.9  22.7  20.9  19.4  18.3   0.0   0.0   0.0
 2008 038   101  29.3  27.6  25.2  22.9  21.1  19.6  18.4   0.0   0.0   0.0
 2008 039   102  29.5  27.8  25.4  23.0  21.2  19.6  18.4   0.0   0.0   0.0
 2008 040   103  28.7  27.1  24.9  22.7  20.9  19.5  18.4   0.0   0.0   0.0
 2008 041   104  27.2  25.9  23.9  22.0  20.4  19.1  18.1   0.0   0.0   0.0
 2008 042   105  24.9  23.9  22.3  20.8  19.6  18.5  17.7   0.0   0.0   0.0
 2008 043   106  23.9  23.0  21.7  20.3  19.2  18.3  17.5   0.0   0.0   0.0
 2008 044   107  24.5  23.5  22.1  20.6  19.5  18.5  17.7   0.0   0.0   0.0
 2008 045   108  25.3  24.2  22.7  21.1  19.8  18.7  17.8   0.0   0.0   0.0
 2008 046   109  26.9  25.6  23.7  21.9  20.4  19.1  18.1   0.0   0.0   0.0
 2008 047   110  28.0  26.6  24.5  22.5  20.9  19.5  18.4   0.0   0.0   0.0
 2008 048   111  28.9  27.4  25.1  22.9  21.2  19.7  18.5   0.0   0.0   0.0
 2008 049   112  29.1  27.6  25.3  23.1  21.3  19.8  18.6   0.0   0.0   0.0
 2008 050   113  28.8  27.3  25.1  22.9  21.2  19.7  18.5   0.0   0.0   0.0
 2008 051   114  28.5  27.0  24.9  22.8  21.1  19.6  18.5   0.0   0.0   0.0
 2008 052   115  28.9  27.4  25.2  23.0  21.3  19.7  18.5   0.0   0.0   0.0
 2008 053   116  28.4  26.9  24.8  22.7  21.1  19.6  18.5   0.0   0.0   0.0
 2008 054   117  27.7  26.3  24.4  22.4  20.8  19.4  18.3   0.0   0.0   0.0
 2008 055   118  27.5  26.2  24.3  22.3  20.8  19.4  18.3   0.0   0.0   0.0
 2008 056   119  27.2  25.9  24.0  22.2  20.7  19.3  18.3   0.0   0.0   0.0
 2008 057   120  26.7  25.5  23.7  21.9  20.5  19.2  18.2   0.0   0.0   0.0
 2008 058   121  26.7  25.5  23.7  21.9  20.5  19.2  18.2   0.0   0.0   0.0
 2008 059   122  26.3  25.2  23.5  21.8  20.4  19.1  18.2   0.0   0.0   0.0

*DSSAT Cropping System Model Ver. 4.0.2.000               Aug 16, 2016; 17:55:43

*RUN   9        : UYMZ                    
 MODEL          : MZCER040 - Maize           
 EXPERIMENT     : UYMZ0214 MZ    late to create DSS                             
 TREATMENT  1   : UYMZ                    

@YEAR DOY   DAS  TS1D  TS2D  TS3D  TS4D  TS5D  TS6D  TS7D  TS8D  TS9D  TS10
 2008 302     0  19.3  18.5  17.6  16.9  16.6  16.4  16.4   0.0   0.0   0.0
 2008 303     1  19.8  19.0  18.0  17.2  16.8  16.6  16.5   0.0   0.0   0.0
 2008 304     2  19.8  19.0  18.0  17.2  16.8  16.6  16.5   0.0   0.0   0.0
 2008 305     3  20.7  19.8  18.6  17.7  17.1  16.8  16.7   0.0   0.0   0.0
 2008 306     4  22.1  21.0  19.5  18.4  17.7  17.2  16.9   0.0   0.0   0.0
 2008 307     5  22.1  20.9  19.5  18.3  17.6  17.2  16.9   0.0   0.0   0.0
 2008 308     6  23.1  21.8  20.2  18.9  18.0  17.4  17.1   0.0   0.0   0.0
 2008 309     7  25.2  23.7  21.7  20.0  18.8  18.0  17.5   0.0   0.0   0.0
 2008 310     8  26.9  25.1  22.8  20.8  19.4  18.4  17.8   0.0   0.0   0.0
 2008 311     9  27.2  25.4  23.0  21.0  19.6  18.5  17.8   0.0   0.0   0.0
 2008 312    10  28.4  26.4  23.8  21.5  20.0  18.8  18.0   0.0   0.0   0.0
 2008 313    11  28.8  26.8  24.1  21.8  20.2  18.9  18.1   0.0   0.0   0.0
 2008 314    12  28.5  26.6  23.9  21.6  20.1  18.9  18.1   0.0   0.0   0.0
 2008 315    13  27.5  25.7  23.2  21.1  19.7  18.6  17.9   0.0   0.0   0.0
 2008 316    14  27.6  25.7  23.3  21.1  19.7  18.6  17.9   0.0   0.0   0.0
 2008 317    15  27.7  25.8  23.3  21.2  19.7  18.6  17.9   0.0   0.0   0.0
 2008 318    16  27.8  26.0  23.5  21.3  19.8  18.7  17.9   0.0   0.0   0.0
 2008 319    17  28.0  26.1  23.6  21.4  19.9  18.7  17.9   0.0   0.0   0.0
 2008 320    18  26.8  25.1  22.8  20.8  19.4  18.4  17.7   0.0   0.0   0.0
 2008 321    19  25.2  23.7  21.7  20.0  18.8  17.9  17.4   0.0   0.0   0.0
 2008 322    20  24.3  22.9  21.0  19.5  18.4  17.7  17.2   0.0   0.0   0.0
 2008 323    21  23.0  21.8  20.2  18.9  18.0  17.3  17.0   0.0   0.0   0.0
 2008 324    22  22.0  20.9  19.5  18.3  17.6  17.1  16.8   0.0   0.0   0.0
 2008 325    23  23.1  21.9  20.3  18.9  18.0  17.4  17.0   0.0   0.0   0.0
 2008 326    24  24.6  23.2  21.3  19.7  18.6  17.8  17.3   0.0   0.0   0.0

*DSSAT Cropping System Model Ver. 4.0.2.000               Aug 16, 2016; 17:55:43

*RUN  10        : UYMZ                    
 MODEL          : MZCER040 - Maize           
 EXPERIMENT     : UYMZ0214 MZ    late to create DSS                             
 TREATMENT  1   : UYMZ                    

@YEAR DOY   DAS  TS1D  TS2D  TS3D  TS4D  TS5D  TS6D  TS7D  TS8D  TS9D  TS10
 2009 302     0  24.7  23.3  21.3  19.7  18.7  17.9  17.5   0.0   0.0   0.0
 2009 303     1  25.1  23.6  21.6  19.9  18.8  18.0  17.5   0.0   0.0   0.0
 2009 304     2  24.4  23.0  21.1  19.6  18.6  17.8  17.4   0.0   0.0   0.0
 2009 305     3  23.8  22.5  20.8  19.3  18.4  17.7  17.3   0.0   0.0   0.0
 2009 306     4  23.1  21.9  20.3  18.9  18.1  17.5  17.1   0.0   0.0   0.0
 2009 307     5  21.0  20.0  18.8  17.8  17.2  16.9  16.7   0.0   0.0   0.0
[...]
 2012 022    85  32.0  29.8  26.8  24.0  21.9  20.1  18.7   0.0   0.0   0.0
 2012 023    86  31.3  29.2  26.3  23.6  21.6  19.9  18.6   0.0   0.0   0.0
 2012 024    87  29.8  28.0  25.4  23.0  21.1  19.6  18.4   0.0   0.0   0.0
 2012 025    88  27.6  26.1  23.9  21.9  20.3  19.0  18.0   0.0   0.0   0.0
 2012 026    89  25.8  24.5  22.7  20.9  19.6  18.5  17.7   0.0   0.0   0.0
 2012 027    90  25.7  24.5  22.6  20.9  19.6  18.5  17.6   0.0   0.0   0.0
 2012 028    91  25.8  24.5  22.7  21.0  19.6  18.5  17.7   0.0   0.0   0.0
 2012 029    92  27.1  25.7  23.6  21.7  20.1  18.9  17.9   0.0   0.0   0.0
 2012 030    93  28.8  27.1  24.8  22.5  20.8  19.3  18.2   0.0   0.0   0.0
 2012 031    94  29.7  27.9  25.4  23.0  21.1  19.6  18.4   0.0   0.0   0.0
 2012 032    95  30.6  28.7  26.0  23.4  21.4  19.8  18.5   0.0   0.0   0.0
 2012 033    96  30.7  28.8  26.1  23.5  21.5  19.9  18.6   0.0   0.0   0.0
 2012 034    97  30.0  28.2  25.6  23.2  21.3  19.7  18.5   0.0   0.0   0.0
 2012 035    98  30.0  28.2  25.7  23.2  21.3  19.7  18.5   0.0   0.0   0.0
 2012 036    99  29.6  27.8  25.4  23.0  21.1  19.6  18.4   0.0   0.0   0.0
 2012 037   100  29.3  27.6  25.2  22.8  21.0  19.5  18.4   0.0   0.0   0.0
 2012 038   101  30.0  28.2  25.7  23.2  21.3  19.7  18.5   0.0   0.0   0.0
 2012 039   102  30.0  28.3  25.7  23.3  21.4  19.8  18.5   0.0   0.0   0.0
 2012 040   103  28.8  27.2  24.9  22.6  20.9  19.4  18.3   0.0   0.0   0.0
 2012 041   104  28.3  26.8  24.6  22.4  20.8  19.3  18.2   0.0   0.0   0.0
 2012 042   105  27.4  26.0  24.0  22.0  20.4  19.1  18.1   0.0   0.0   0.0
 2012 043   106  26.7  25.4  23.5  21.7  20.2  18.9  18.0   0.0   0.0   0.0
 2012 044   107  27.2  25.8  23.8  21.9  20.4  19.1  18.1   0.0   0.0   0.0
 2012 045   108  28.5  26.9  24.7  22.6  20.9  19.4  18.3   0.0   0.0   0.0
 2012 046   109  30.2  28.4  25.9  23.4  21.5  19.9  18.6   0.0   0.0   0.0
 2012 047   110  32.0  30.0  27.1  24.4  22.2  20.4  19.0   0.0   0.0   0.0
 2012 048   111  31.0  29.2  26.5  24.0  21.9  20.2  18.8   0.0   0.0   0.0
 2012 049   112  31.4  29.5  26.8  24.2  22.1  20.3  18.9   0.0   0.0   0.0
 2012 050   113  30.8  29.0  26.4  23.9  21.9  20.2  18.8   0.0   0.0   0.0
 2012 051   114  28.8  27.3  25.1  23.0  21.3  19.8  18.6   0.0   0.0   0.0
 2012 052   115  26.7  25.5  23.7  21.9  20.5  19.2  18.2   0.0   0.0   0.0

*DSSAT Cropping System Model Ver. 4.0.2.000               Aug 16, 2016; 17:55:43

*RUN  13        : UYMZ                    
 MODEL          : MZCER040 - Maize           
 EXPERIMENT     : UYMZ0214 MZ    late to create DSS                             
 TREATMENT  1   : UYMZ                    

@YEAR DOY   DAS  TS1D  TS2D  TS3D  TS4D  TS5D  TS6D  TS7D  TS8D  TS9D  TS10
 2012 302     0  26.2  24.5  22.3  20.5  19.2  18.3  17.7   0.0   0.0   0.0
 2012 303     1  25.2  23.7  21.7  20.0  18.9  18.1  17.6   0.0   0.0   0.0
 2012 304     2  23.8  22.5  20.8  19.3  18.4  17.7  17.3   0.0   0.0   0.0
 2012 305     3  22.8  21.6  20.1  18.8  18.0  17.4  17.1   0.0   0.0   0.0
 2012 306     4  22.4  21.2  19.7  18.5  17.8  17.3  17.0   0.0   0.0   0.0
 2012 307     5  22.1  21.0  19.6  18.4  17.7  17.2  16.9   0.0   0.0   0.0
 2012 308     6  23.4  22.1  20.4  19.0  18.1  17.5  17.2   0.0   0.0   0.0
 2012 309     7  24.7  23.2  21.3  19.7  18.6  17.9  17.4   0.0   0.0   0.0
 2012 310     8  26.1  24.5  22.3  20.5  19.2  18.3  17.7   0.0   0.0   0.0
 2012 311     9  27.4  25.6  23.1  21.1  19.7  18.6  17.9   0.0   0.0   0.0
 2012 312    10  28.8  26.8  24.1  21.8  20.2  19.0  18.1   0.0   0.0   0.0
 2012 313    11  29.8  27.6  24.8  22.3  20.6  19.2  18.3   0.0   0.0   0.0
 2012 314    12  30.0  27.8  24.9  22.4  20.7  19.3  18.3   0.0   0.0   0.0
 2012 315    13  27.9  26.1  23.6  21.4  19.9  18.8  18.0   0.0   0.0   0.0
 2012 316    14  25.6  24.0  22.0  20.2  19.0  18.1  17.5   0.0   0.0   0.0
 2012 317    15  22.8  21.6  20.1  18.8  17.9  17.3  17.0   0.0   0.0   0.0
 2012 318    16  20.5  19.6  18.5  17.6  17.0  16.7  16.6   0.0   0.0   0.0
 2012 319    17  19.6  18.9  17.9  17.1  16.7  16.4  16.4   0.0   0.0   0.0
 2012 320    18  20.7  19.8  18.6  17.7  17.1  16.7  16.6   0.0   0.0   0.0
 2012 321    19  22.0  20.9  19.5  18.3  17.6  17.1  16.8   0.0   0.0   0.0
 2012 322    20  23.4  22.1  20.5  19.1  18.1  17.5  17.1   0.0   0.0   0.0
 2012 323    21  24.8  23.3  21.4  19.8  18.6  17.8  17.3   0.0   0.0   0.0
 2012 324    22  25.4  23.9  21.9  20.1  18.9  18.0  17.4   0.0   0.0   0.0
 2012 325    23  26.2  24.5  22.4  20.5  19.2  18.2  17.6   0.0   0.0   0.0
 2012 326    24  27.0  25.2  22.9  20.9  19.5  18.4  17.7   0.0   0.0   0.0
 2012 327    25  26.4  24.7  22.5  20.6  19.3  18.3  17.6   0.0   0.0   0.0
 2012 328    26  25.2  23.7  21.7  20.0  18.8  18.0  17.4   0.0   0.0   0.0
 2012 329    27  24.9  23.4  21.5  19.8  18.7  17.9  17.3   0.0   0.0   0.0
 2012 330    28  23.9  22.6  20.8  19.3  18.3  17.6  17.1   0.0   0.0   0.0
 2012 331    29  22.2  21.1  19.7  18.5  17.7  17.1  16.8   0.0   0.0   0.0
 2012 332    30  23.3  22.1  20.5  19.0  18.1  17.4  17.0   0.0   0.0   0.0
 2012 333    31  23.9  22.6  20.9  19.4  18.3  17.6  17.1   0.0   0.0   0.0
 2012 334    32  23.8  22.5  20.8  19.3  18.3  17.6  17.1   0.0   0.0   0.0
 2012 335    33  24.0  22.7  20.9  19.4  18.4  17.6  17.1   0.0   0.0   0.0
 2012 336    34  25.1  23.6  21.7  20.0  18.8  17.9  17.3   0.0   0.0   0.0
 2012 337    35  25.5  24.0  22.0  20.2  19.0  18.0  17.4   0.0   0.0   0.0
 2012 338    36  26.7  25.0  22.8  20.8  19.4  18.3  17.6   0.0   0.0   0.0
 2012 339    37  27.4  25.7  23.3  21.2  19.7  18.5  17.7   0.0   0.0   0.0
 2012 340    38  28.8  26.9  24.2  21.9  20.2  18.9  18.0   0.0   0.0   0.0
 2012 341    39  28.5  26.6  24.0  21.7  20.1  18.8  17.9   0.0   0.0   0.0
 2012 342    40  27.3  25.6  23.4  21.3  19.8  18.7  17.8   0.0   0.0   0.0
 2012 343    41  26.7  25.1  22.9  20.9  19.5  18.4  17.7   0.0   0.0   0.0
 2012 344    42  27.1  25.4  23.1  21.1  19.6  18.5  17.7   0.0   0.0   0.0
 2012 345    43  27.1  25.4  23.1  21.1  19.6  18.5  17.7   0.0   0.0   0.0
 2012 346    44  27.4  25.7  23.4  21.3  19.8  18.7  17.8   0.0   0.0   0.0
 2012 347    45  28.6  26.8  24.2  21.9  20.3  18.9  18.0   0.0   0.0   0.0
 2012 348    46  28.6  26.8  24.2  21.9  20.2  18.9  18.0   0.0   0.0   0.0
 2012 349    47  28.4  26.5  24.0  21.8  20.1  18.8  17.9   0.0   0.0   0.0
 2012 350    48  28.2  26.4  23.9  21.7  20.1  18.8  17.9   0.0   0.0   0.0
 2012 351    49  27.7  26.0  23.6  21.4  19.9  18.7  17.8   0.0   0.0   0.0
 2012 352    50  26.5  25.0  22.8  20.8  19.5  18.4  17.6   0.0   0.0   0.0
 2012 353    51  25.5  24.1  22.1  20.3  19.1  18.1  17.4   0.0   0.0   0.0
 2012 354    52  24.9  23.5  21.7  20.0  18.8  17.9  17.3   0.0   0.0   0.0
 2012 355    53  23.7  22.5  20.9  19.5  18.4  17.6  17.1   0.0   0.0   0.0
 2012 356    54  24.0  22.8  21.1  19.6  18.6  17.7  17.2   0.0   0.0   0.0
 2012 357    55  24.8  23.5  21.7  20.1  18.9  18.0  17.3   0.0   0.0   0.0
 2012 358    56  26.6  25.0  22.9  21.0  19.5  18.4  17.6   0.0   0.0   0.0
 2012 359    57  28.4  26.7  24.2  21.9  20.2  18.9  18.0   0.0   0.0   0.0
 2012 360    58  29.5  27.6  25.0  22.5  20.8  19.3  18.2   0.0   0.0   0.0
 2012 361    59  28.7  26.9  24.4  22.1  20.4  19.1  18.1   0.0   0.0   0.0
 2012 362    60  27.5  25.9  23.6  21.5  20.0  18.7  17.8   0.0   0.0   0.0
 2012 363    61  26.4  24.9  22.8  20.9  19.5  18.4  17.6   0.0   0.0   0.0
 2012 364    62  25.0  23.7  21.9  20.2  19.0  18.0  17.4   0.0   0.0   0.0
 2012 365    63  25.7  24.3  22.4  20.6  19.3  18.2  17.5   0.0   0.0   0.0
 2012 366    64  27.6  26.0  23.7  21.6  20.0  18.7  17.8   0.0   0.0   0.0
 2013 001    65  27.5  25.9  23.6  21.5  19.9  18.7  17.8   0.0   0.0   0.0
 2013 002    66  26.5  25.0  22.9  20.9  19.5  18.4  17.6   0.0   0.0   0.0
 2013 003    67  25.9  24.5  22.5  20.6  19.3  18.2  17.5   0.0   0.0   0.0
 2013 004    68  25.4  24.0  22.1  20.4  19.1  18.1  17.4   0.0   0.0   0.0
 2013 005    69  25.1  23.8  22.0  20.3  19.0  18.0  17.4   0.0   0.0   0.0
 2013 006    70  26.4  24.9  22.8  20.9  19.5  18.4  17.6   0.0   0.0   0.0
 2013 007    71  28.3  26.5  24.1  21.9  20.2  18.9  17.9   0.0   0.0   0.0
 2013 008    72  28.9  27.1  24.6  22.2  20.5  19.1  18.1   0.0   0.0   0.0
 2013 009    73  28.8  27.0  24.5  22.1  20.4  19.0  18.0   0.0   0.0   0.0
 2013 010    74  29.0  27.2  24.6  22.2  20.5  19.1  18.1   0.0   0.0   0.0
 2013 011    75  29.5  27.6  25.0  22.5  20.7  19.2  18.2   0.0   0.0   0.0
 2013 012    76  29.4  27.5  24.9  22.5  20.7  19.2  18.1   0.0   0.0   0.0
 2013 013    77  29.7  27.8  25.1  22.6  20.8  19.3  18.2   0.0   0.0   0.0
 2013 014    78  29.8  27.9  25.2  22.7  20.8  19.3  18.2   0.0   0.0   0.0
 2013 015    79  29.5  27.7  25.0  22.6  20.8  19.3  18.2   0.0   0.0   0.0
 2013 016    80  29.3  27.5  24.9  22.5  20.7  19.2  18.2   0.0   0.0   0.0
 2013 017    81  29.0  27.3  24.7  22.4  20.6  19.2  18.1   0.0   0.0   0.0
 2013 018    82  28.7  27.0  24.5  22.2  20.5  19.1  18.1   0.0   0.0   0.0
 2013 019    83  27.8  26.2  23.9  21.8  20.2  18.9  17.9   0.0   0.0   0.0
 2013 020    84  26.9  25.4  23.3  21.3  19.8  18.6  17.8   0.0   0.0   0.0
 2013 021    85  26.1  24.8  22.8  21.0  19.6  18.5  17.6   0.0   0.0   0.0
 2013 022    86  26.4  25.0  23.0  21.1  19.7  18.5  17.7   0.0   0.0   0.0
 2013 023    87  26.9  25.4  23.4  21.4  19.9  18.7  17.8   0.0   0.0   0.0
 2013 024    88  28.5  26.9  24.5  22.2  20.5  19.1  18.1   0.0   0.0   0.0
 2013 025    89  27.9  26.3  24.1  22.0  20.4  19.1  18.1   0.0   0.0   0.0
 2013 026    90  27.6  26.1  23.9  21.9  20.3  19.0  18.0   0.0   0.0   0.0
 2013 027    91  27.5  26.0  23.9  21.8  20.3  19.0  18.0   0.0   0.0   0.0
 2013 028    92  27.9  26.4  24.2  22.0  20.4  19.1  18.1   0.0   0.0   0.0
 2013 029    93  28.0  26.4  24.2  22.1  20.5  19.1  18.1   0.0   0.0   0.0
 2013 030    94  29.9  28.1  25.5  23.1  21.2  19.6  18.4   0.0   0.0   0.0
 2013 031    95  31.2  29.3  26.4  23.7  21.7  20.0  18.7   0.0   0.0   0.0
 2013 032    96  32.1  30.0  27.0  24.2  22.0  20.2  18.8   0.0   0.0   0.0
 2013 033    97  31.2  29.2  26.4  23.7  21.7  20.0  18.7   0.0   0.0   0.0
 2013 034    98  29.2  27.5  25.1  22.7  21.0  19.5  18.3   0.0   0.0   0.0
 2013 035    99  27.9  26.4  24.2  22.1  20.5  19.1  18.1   0.0   0.0   0.0
 2013 036   100  27.3  25.9  23.8  21.8  20.3  19.0  18.0   0.0   0.0   0.0
 2013 037   101  26.4  25.1  23.2  21.4  20.0  18.8  17.8   0.0   0.0   0.0
 2013 038   102  26.8  25.4  23.5  21.6  20.1  18.9  17.9   0.0   0.0   0.0
 2013 039   103  28.3  26.7  24.5  22.4  20.7  19.3  18.2   0.0   0.0   0.0
 2013 040   104  29.4  27.7  25.3  22.9  21.1  19.6  18.4   0.0   0.0   0.0
 2013 041   105  29.7  28.0  25.5  23.1  21.3  19.7  18.5   0.0   0.0   0.0
 2013 042   106  29.6  27.9  25.5  23.1  21.3  19.7  18.5   0.0   0.0   0.0
 2013 043   107  29.8  28.1  25.6  23.2  21.4  19.8  18.5   0.0   0.0   0.0
 2013 044   108  29.3  27.7  25.3  23.0  21.2  19.7  18.5   0.0   0.0   0.0
 2013 045   109  28.8  27.3  25.0  22.8  21.0  19.5  18.4   0.0   0.0   0.0
 2013 046   110  29.0  27.4  25.1  22.8  21.1  19.6  18.4   0.0   0.0   0.0

*DSSAT Cropping System Model Ver. 4.0.2.000               Aug 16, 2016; 17:55:43

*RUN  14        : UYMZ                    
 MODEL          : MZCER040 - Maize           
 EXPERIMENT     : UYMZ0214 MZ    late to create DSS                             
 TREATMENT  1   : UYMZ                    

@YEAR DOY   DAS  TS1D  TS2D  TS3D  TS4D  TS5D  TS6D  TS7D  TS8D  TS9D  TS10
 2013 302     0  21.2  20.2  18.9  17.9  17.3  17.0  16.8   0.0   0.0   0.0
 2013 303     1  21.9  20.8  19.4  18.3  17.6  17.2  16.9   0.0   0.0   0.0
 2013 304     2  22.1  21.0  19.6  18.4  17.7  17.2  17.0   0.0   0.0   0.0
 2013 305     3  21.9  20.8  19.4  18.3  17.6  17.1  16.9   0.0   0.0   0.0
 2013 306     4  21.4  20.4  19.1  18.1  17.4  17.0  16.8   0.0   0.0   0.0
 2013 307     5  20.4  19.5  18.4  17.6  17.0  16.7  16.6   0.0   0.0   0.0
 2013 308     6  19.2  18.5  17.6  16.9  16.5  16.4  16.4   0.0   0.0   0.0
 2013 309     7  19.3  18.5  17.6  16.9  16.6  16.4  16.4   0.0   0.0   0.0
 2013 310     8  20.4  19.5  18.4  17.5  17.0  16.7  16.6   0.0   0.0   0.0
 2013 311     9  21.7  20.7  19.3  18.2  17.5  17.1  16.8   0.0   0.0   0.0
 2013 312    10  22.3  21.1  19.7  18.5  17.7  17.2  16.9   0.0   0.0   0.0
 2013 313    11  23.0  21.8  20.2  18.9  18.0  17.4  17.1   0.0   0.0   0.0
 2013 314    12  23.2  21.9  20.3  18.9  18.1  17.4  17.1   0.0   0.0   0.0
 2013 315    13  21.9  20.8  19.4  18.3  17.6  17.1  16.8   0.0   0.0   0.0
 2013 316    14  22.0  20.9  19.5  18.3  17.6  17.1  16.8   0.0   0.0   0.0
 2013 317    15  22.8  21.6  20.0  18.7  17.9  17.3  17.0   0.0   0.0   0.0
 2013 318    16  24.3  22.9  21.1  19.5  18.5  17.7  17.3   0.0   0.0   0.0
 2013 319    17  24.5  23.1  21.2  19.6  18.6  17.8  17.3   0.0   0.0   0.0
 2013 320    18  24.6  23.2  21.3  19.7  18.6  17.8  17.3   0.0   0.0   0.0
 2013 321    19  24.4  23.0  21.2  19.6  18.5  17.8  17.3   0.0   0.0   0.0
 2013 322    20  24.8  23.4  21.4  19.8  18.7  17.9  17.3   0.0   0.0   0.0
 2013 323    21  22.8  21.7  20.1  18.8  17.9  17.3  17.0   0.0   0.0   0.0
 2013 324    22  22.1  21.0  19.6  18.4  17.6  17.1  16.8   0.0   0.0   0.0
 2013 325    23  22.1  21.1  19.6  18.4  17.7  17.1  16.8   0.0   0.0   0.0
 2013 326    24  22.3  21.2  19.7  18.5  17.7  17.2  16.9   0.0   0.0   0.0
 2013 327    25  22.4  21.3  19.8  18.6  17.8  17.2  16.9   0.0   0.0   0.0
 2013 328    26  24.2  22.9  21.1  19.5  18.5  17.7  17.2   0.0   0.0   0.0
 2013 329    27  25.3  23.8  21.8  20.1  18.9  18.0  17.4   0.0   0.0   0.0
 2013 330    28  25.3  23.9  21.9  20.1  18.9  18.0  17.4   0.0   0.0   0.0
 2013 331    29  24.2  22.9  21.1  19.6  18.5  17.7  17.2   0.0   0.0   0.0
 2013 332    30  23.6  22.4  20.7  19.3  18.3  17.6  17.1   0.0   0.0   0.0
 2013 333    31  22.2  21.2  19.7  18.5  17.7  17.1  16.8   0.0   0.0   0.0
 2013 334    32  22.6  21.5  20.0  18.7  17.8  17.2  16.9   0.0   0.0   0.0
 2013 335    33  24.3  22.9  21.1  19.6  18.5  17.7  17.2   0.0   0.0   0.0
 2013 336    34  26.6  25.0  22.8  20.8  19.4  18.3  17.6   0.0   0.0   0.0
 2013 337    35  26.0  24.4  22.3  20.5  19.2  18.2  17.5   0.0   0.0   0.0
 2013 338    36  27.3  25.6  23.2  21.1  19.6  18.5  17.7   0.0   0.0   0.0
 2013 339    37  26.3  24.7  22.5  20.6  19.3  18.2  17.6   0.0   0.0   0.0
 2013 340    38  24.9  23.5  21.6  19.9  18.7  17.9  17.3   0.0   0.0   0.0
 2013 341    39  24.4  23.1  21.3  19.6  18.5  17.7  17.2   0.0   0.0   0.0
 2013 342    40  26.7  25.0  22.8  20.8  19.4  18.3  17.6   0.0   0.0   0.0
 2013 343    41  25.5  24.0  22.0  20.2  19.0  18.0  17.4   0.0   0.0   0.0
 2013 344    42  25.4  23.9  21.9  20.2  18.9  18.0  17.4   0.0   0.0   0.0
 2013 345    43  26.4  24.8  22.6  20.6  19.3  18.2  17.5   0.0   0.0   0.0
 2013 346    44  26.2  24.6  22.5  20.5  19.2  18.2  17.5   0.0   0.0   0.0
 2013 347    45  25.6  24.1  22.1  20.3  19.0  18.0  17.4   0.0   0.0   0.0
 2013 348    46  27.2  25.5  23.1  21.1  19.6  18.5  17.7   0.0   0.0   0.0
 2013 349    47  29.3  27.3  24.6  22.1  20.4  19.0  18.1   0.0   0.0   0.0
 2013 350    48  30.5  28.3  25.4  22.7  20.8  19.3  18.3   0.0   0.0   0.0
 2013 351    49  31.7  29.4  26.2  23.3  21.3  19.7  18.5   0.0   0.0   0.0
 2013 352    50  32.4  30.0  26.7  23.7  21.6  19.8  18.6   0.0   0.0   0.0
 2013 353    51  32.1  29.8  26.5  23.6  21.5  19.8  18.6   0.0   0.0   0.0
 2013 354    52  31.3  29.1  26.0  23.2  21.2  19.6  18.4   0.0   0.0   0.0
 2013 355    53  31.1  28.9  25.9  23.1  21.1  19.5  18.4   0.0   0.0   0.0
 2013 356    54  30.8  28.6  25.6  22.9  21.0  19.4  18.3   0.0   0.0   0.0
 2013 357    55  30.8  28.7  25.7  23.0  21.0  19.5  18.3   0.0   0.0   0.0
 2013 358    56  31.7  29.5  26.3  23.5  21.4  19.7  18.5   0.0   0.0   0.0
 2013 359    57  33.2  30.7  27.3  24.2  21.9  20.1  18.8   0.0   0.0   0.0
 2013 360    58  34.4  31.8  28.1  24.8  22.4  20.4  19.0   0.0   0.0   0.0
 2013 361    59  34.4  31.8  28.2  24.8  22.4  20.4  19.0   0.0   0.0   0.0
 2013 362    60  34.7  32.0  28.3  25.0  22.5  20.5  19.0   0.0   0.0   0.0
 2013 363    61  34.4  31.8  28.2  24.8  22.4  20.4  19.0   0.0   0.0   0.0
 2013 364    62  34.1  31.5  28.0  24.7  22.3  20.4  18.9   0.0   0.0   0.0
 2013 365    63  32.4  30.1  26.9  23.9  21.7  19.9  18.6   0.0   0.0   0.0
 2014 001    64  32.3  29.9  26.7  23.8  21.6  19.9  18.6   0.0   0.0   0.0
 2014 002    65  30.4  28.4  25.6  23.0  21.1  19.5  18.4   0.0   0.0   0.0
 2014 003    66  28.2  26.5  24.1  21.9  20.3  19.0  18.0   0.0   0.0   0.0
 2014 004    67  27.0  25.4  23.3  21.2  19.8  18.6  17.7   0.0   0.0   0.0
 2014 005    68  27.3  25.7  23.5  21.4  19.9  18.7  17.8   0.0   0.0   0.0
 2014 006    69  27.8  26.1  23.8  21.7  20.1  18.8  17.9   0.0   0.0   0.0
 2014 007    70  27.9  26.2  23.9  21.8  20.2  18.9  18.0   0.0   0.0   0.0
 2014 008    71  28.6  26.9  24.6  22.3  20.6  19.2  18.2   0.0   0.0   0.0
 2014 009    72  28.9  27.1  24.7  22.4  20.7  19.2  18.2   0.0   0.0   0.0
 2014 010    73  28.6  26.9  24.5  22.2  20.6  19.2  18.2   0.0   0.0   0.0
 2014 011    74  26.3  24.9  22.9  21.1  19.7  18.5  17.7   0.0   0.0   0.0
 2014 012    75  25.7  24.4  22.5  20.7  19.4  18.3  17.6   0.0   0.0   0.0
 2014 013    76  25.8  24.4  22.6  20.8  19.5  18.4  17.6   0.0   0.0   0.0
 2014 014    77  25.3  24.1  22.3  20.6  19.3  18.3  17.5   0.0   0.0   0.0
 2014 015    78  25.6  24.3  22.4  20.7  19.4  18.3  17.6   0.0   0.0   0.0
 2014 016    79  27.5  25.9  23.7  21.7  20.1  18.9  17.9   0.0   0.0   0.0
 2014 017    80  29.8  27.9  25.3  22.9  21.0  19.5  18.3   0.0   0.0   0.0
 2014 018    81  31.6  29.5  26.6  23.8  21.7  20.0  18.7   0.0   0.0   0.0
 2014 019    82  31.8  29.7  26.7  23.9  21.8  20.0  18.7   0.0   0.0   0.0
 2014 020    83  31.7  29.6  26.6  23.8  21.8  20.0  18.7   0.0   0.0   0.0
 2014 021    84  30.5  28.6  25.9  23.3  21.3  19.7  18.5   0.0   0.0   0.0
 2014 022    85  29.9  28.1  25.6  23.1  21.2  19.7  18.5   0.0   0.0   0.0
 2014 023    86  29.4  27.7  25.2  22.8  21.0  19.5  18.4   0.0   0.0   0.0
 2014 024    87  28.2  26.6  24.5  22.3  20.7  19.3  18.3   0.0   0.0   0.0
 2014 025    88  26.4  25.1  23.2  21.4  20.0  18.8  17.9   0.0   0.0   0.0
 2014 026    89  26.2  24.9  23.1  21.3  19.9  18.7  17.8   0.0   0.0   0.0
 2014 027    90  25.1  24.0  22.3  20.7  19.4  18.4  17.6   0.0   0.0   0.0
 2014 028    91  23.3  22.4  21.1  19.8  18.8  17.9  17.3   0.0   0.0   0.0
 2014 029    92  23.9  22.9  21.5  20.1  19.0  18.1  17.4   0.0   0.0   0.0
 2014 030    93  25.0  23.9  22.3  20.7  19.5  18.4  17.6   0.0   0.0   0.0
 2014 031    94  26.1  24.9  23.1  21.3  19.9  18.7  17.8   0.0   0.0   0.0
 2014 032    95  25.9  24.7  23.0  21.2  19.9  18.8  17.9   0.0   0.0   0.0
 2014 033    96  25.8  24.6  22.9  21.2  19.9  18.8  17.9   0.0   0.0   0.0
 2014 034    97  24.9  23.9  22.3  20.8  19.6  18.5  17.7   0.0   0.0   0.0
 2014 035    98  25.0  24.0  22.4  20.9  19.6  18.6  17.7   0.0   0.0   0.0
 2014 036    99  25.5  24.4  22.7  21.1  19.8  18.7  17.8   0.0   0.0   0.0
 2014 037   100  25.1  24.0  22.5  21.0  19.7  18.7  17.8   0.0   0.0   0.0
 2014 038   101  25.0  23.9  22.4  20.9  19.7  18.6  17.8   0.0   0.0   0.0
 2014 039   102  27.0  25.7  23.9  22.0  20.5  19.2  18.2   0.0   0.0   0.0
 2014 040   103  27.0  25.7  23.8  22.0  20.5  19.2  18.2   0.0   0.0   0.0
 2014 041   104  25.4  24.3  22.8  21.2  19.9  18.8  17.9   0.0   0.0   0.0
 2014 042   105  26.7  25.4  23.6  21.8  20.3  19.1  18.1   0.0   0.0   0.0
 2014 043   106  27.6  26.2  24.2  22.3  20.7  19.4  18.3   0.0   0.0   0.0
 2014 044   107  26.3  25.1  23.4  21.6  20.2  19.0  18.0   0.0   0.0   0.0
 2014 045   108  25.5  24.5  22.8  21.2  19.9  18.8  17.9   0.0   0.0   0.0
 2014 046   109  25.0  24.0  22.5  20.9  19.7  18.6  17.8   0.0   0.0   0.0
 2014 047   110  24.6  23.7  22.2  20.8  19.6  18.6  17.7   0.0   0.0   0.0
