*SOIL NITROGEN DAILY OUTPUT FILE

*DSSAT Cropping System Model Ver. 4.0.2.000               Aug 16, 2016; 17:55:43

*RUN   1        : UYMZ                    
 MODEL          : MZCER040 - Maize           
 EXPERIMENT     : UYMZ0214 MZ    late to create DSS                             
 TREATMENT  1   : UYMZ                    

@YEAR DOY   DAS  NAPC  NI#M    NLCC   NIAD    NOAD   NITD   NHTD  NI1D  NI2D  NI3D  NI4D  NI5D  NI6D  NI7D  NI8D  NI9D  NI10  NH1D  NH2D  NH3D  NH4D  NH5D  NH6D  NH7D  NH8D  NH9D  NH10    NMNC    NITC    NDNC    NIMC    AMLC
 2000 302     0     0     0     0.0   86.4    7840   64.0   22.3  15.5  15.1   8.5   4.9   0.1   0.0   0.0   0.0   0.0   0.0   1.0   1.4   1.5   1.5   1.5  1.48  1.48  0.00  0.00  0.00    0.22    1.01    0.00    0.00    0.00
 2000 303     1     0     0     0.0   86.6    7840   64.8   21.8  15.7  15.2   8.5   5.0   0.1   0.1   0.1   0.0   0.0   0.0   0.9   1.3   1.4   1.4   1.4  1.46  1.46  0.00  0.00  0.00    0.43    1.77    0.00    0.00    0.00
 2000 304     2     0     0     0.0   86.8    7840   65.5   21.3  15.9  15.4   8.6   5.0   0.1   0.1   0.1   0.0   0.0   0.0   0.7   1.3   1.4   1.4   1.4  1.45  1.44  0.00  0.00  0.00    0.64    2.49    0.00    0.00    0.00
 2000 305     3     0     1     0.0   87.0    7840   66.2   20.8  16.0  15.5   8.6   5.0   0.2   0.1   0.1   0.0   0.0   0.0   0.6   1.2   1.4   1.4   1.4  1.43  1.42  0.00  0.00  0.00    0.87    3.19    0.00    0.00    0.00
 2000 306     4     0     1     0.0   87.3    7839   66.9   20.3  16.1  15.6   8.7   5.1   0.2   0.1   0.1   0.0   0.0   0.0   0.6   1.1   1.4   1.4   1.3  1.41  1.40  0.00  0.00  0.00    1.11    3.90    0.00    0.00    0.00
 2000 307     5     0     1     0.0   87.5    7839   67.7   19.8  16.3  15.7   8.7   5.1   0.3   0.2   0.1   0.0   0.0   0.0   0.4   1.1   1.4   1.3   1.3  1.39  1.38  0.00  0.00  0.00    1.36    4.68    0.00    0.00    0.00
 2000 308     6     0     1     0.0   87.8    7839   68.4   19.4  16.5  15.8   8.8   5.2   0.3   0.2   0.2   0.0   0.0   0.0   0.4   1.0   1.3   1.3   1.3  1.37  1.36  0.00  0.00  0.00    1.64    5.41    0.00    0.00    0.00
 2000 309     7     0     1     0.0   88.1    7839   69.2   18.9  16.6  15.9   8.8   5.2   0.3   0.2   0.2   0.0   0.0   0.0   0.3   0.9   1.3   1.3   1.3  1.36  1.35  0.00  0.00  0.00    1.92    6.13    0.00    0.00    0.00
 2000 310     8     0     1     0.0   88.4    7838   69.8   18.5   8.7  20.0   8.9   5.2   0.4   0.2   0.2   0.0   0.0   0.0   0.3   0.9   1.3   1.3   1.2  1.34  1.33  0.00  0.00  0.00    2.19    6.80    0.00    0.00    0.00
 2000 311     9     0     1     0.0   88.6    7838   70.5   18.1   7.1  19.8   9.7   5.3   0.4   0.2   0.2   0.0   0.0   0.0   0.2   0.8   1.3   1.2   1.2  1.32  1.31  0.00  0.00  0.00    2.46    7.49    0.00    0.00    0.00
 2000 312    10     0     1     0.0   88.9    7838   71.2   17.7   6.2  19.4  10.4   5.3   0.5   0.3   0.3   0.0   0.0   0.0   0.2   0.8   1.2   1.2   1.2  1.30  1.29  0.00  0.00  0.00    2.73    8.12    0.00    0.00    0.00
 2000 313    11     0     1     0.0   89.2    7837   71.8   17.4   6.3  19.2  10.6   5.4   0.5   0.3   0.3   0.0   0.0   0.0   0.1   0.7   1.2   1.2   1.1  1.29  1.27  0.00  0.00  0.00    2.99    8.72    0.00    0.00    0.00
 2000 314    12     0     1     0.0   89.4    7837   72.3   17.1   6.3  19.2  10.7   5.4   0.5   0.3   0.3   0.0   0.0   0.0   0.1   0.7   1.2   1.2   1.1  1.27  1.26  0.00  0.00  0.00    3.25    9.29    0.00    0.00    0.00
 2000 315    13     0     1     0.0   89.5    7837   72.7   16.8   2.4  17.6  13.1   5.4   0.6   0.3   0.3   0.0   0.0   0.0   0.2   0.7   1.2   1.1   1.1  1.26  1.24  0.00  0.00  0.00    3.51    9.83    0.00    0.00    0.00
 2000 316    14     0     1     0.0   89.8    7837   73.2   16.5   2.1  15.3  13.2   7.1   0.6   0.4   0.3   0.0   0.0   0.0   0.1   0.6   1.2   1.1   1.1  1.24  1.22  0.00  0.00  0.00    3.77   10.38    0.00    0.00    0.00
 2000 317    15     0     1     0.0   90.0    7836   73.7   16.2   2.2  14.9  13.3   7.3   0.7   0.4   0.4   0.0   0.0   0.0   0.1   0.6   1.1   1.1   1.0  1.23  1.21  0.00  0.00  0.00    4.02   10.91    0.00    0.00    0.00
 2000 318    16     0     1     0.0   90.2    7836   74.3   16.0   2.2  15.0  13.3   7.3   0.8   0.4   0.4   0.0   0.0   0.0   0.1   0.6   1.1   1.1   1.0  1.21  1.19  0.00  0.00  0.00    4.26   11.43    0.00    0.00    0.00
 2000 319    17     0     1     0.0   90.4    7836   74.7   15.7   2.2  15.0  13.4   7.3   0.8   0.4   0.4   0.0   0.0   0.0   0.1   0.6   1.1   1.1   1.0  1.20  1.17  0.00  0.00  0.00    4.51   11.94    0.00    0.00    0.00
 2000 320    18     0     1     0.0   90.6    7836   75.2   15.5   2.3  15.0  13.4   7.4   0.8   0.4   0.4   0.0   0.0   0.0   0.1   0.6   1.1   1.0   1.0  1.18  1.16  0.00  0.00  0.00    4.75   12.42    0.00    0.00    0.00
 2000 321    19     0     1     0.0   90.8    7835   75.6   15.2   2.4  15.0  13.4   7.4   0.9   0.5   0.4   0.0   0.0   0.0   0.1   0.5   1.1   1.0   1.0  1.17  1.14  0.00  0.00  0.00    4.97   12.87    0.00    0.00    0.00
 2000 322    20     0     1     0.0   91.0    7835   76.0   15.0   2.4  15.0  13.5   7.4   0.9   0.5   0.5   0.0   0.0   0.0   0.1   0.5   1.1   1.0   0.9  1.15  1.13  0.00  0.00  0.00    5.19   13.31    0.00    0.00    0.00
 2000 323    21     0     1     0.0   91.1    7835   76.3   14.8   2.5  15.0  13.5   7.5   0.9   0.5   0.5   0.0   0.0   0.0   0.1   0.5   1.0   1.0   0.9  1.14  1.12  0.00  0.00  0.00    5.42   13.75    0.00    0.00    0.00
 2000 324    22     0     1     0.0   91.3    7835   76.7   14.6   2.6  14.9  13.5   7.5   1.0   0.5   0.5   0.0   0.0   0.0   0.1   0.5   1.0   1.0   0.9  1.13  1.10  0.00  0.00  0.00    5.66   14.22    0.00    0.00    0.00
 2000 325    23     0     1     0.0   91.2    7835   76.8   14.4   2.7  14.8  13.6   7.6   1.0   0.5   0.5   0.0   0.0   0.0   0.1   0.5   1.0   1.0   0.9  1.11  1.09  0.00  0.00  0.00    5.92   14.69    0.00    0.00    0.00
 2000 326    24     0     1     0.0   90.9    7834   76.8   14.1   2.9  14.5  13.5   7.6   1.0   0.6   0.5   0.0   0.0   0.0   0.1   0.5   1.0   1.0   0.9  1.10  1.07  0.00  0.00  0.00    6.20   15.20    0.00    0.00    0.00
 2000 327    25     0     1     0.0   90.8    7834   76.9   13.9   3.0  14.3  13.5   7.6   1.1   0.6   0.6   0.0   0.0   0.0   0.1   0.5   1.0   0.9   0.9  1.09  1.06  0.00  0.00  0.00    6.48   15.69    0.00    0.00    0.00
 2000 328    26     0     1     0.0   90.6    7834   76.9   13.7   0.6   9.0  14.5   9.7   2.1   0.7   0.6   0.0   0.0   0.0   0.1   0.5   1.0   0.9   0.8  1.07  1.04  0.00  0.00  0.00    6.74   16.17    0.00    0.00    0.00
 2000 329    27     0     1     0.6   89.6    7833   76.0   13.5   0.5   7.0  12.2  10.0   3.9   1.2   0.7   0.0   0.0   0.0   0.1   0.4   1.0   0.9   0.8  1.06  1.03  0.00  0.00  0.00    7.04   16.61    0.00    0.00    0.00
 2000 330    28     0     1     0.8   88.2    7833   74.9   13.3   0.5   6.2  11.3  10.0   4.4   1.4   0.8   0.0   0.0   0.0   0.1   0.4   0.9   0.9   0.8  1.05  1.02  0.00  0.00  0.00    7.32   17.07    0.00    0.00    0.00
 2000 331    29     0     1     0.8   87.7    7833   74.6   13.1   0.6   6.0  11.1  10.1   4.5   1.5   0.8   0.0   0.0   0.0   0.1   0.4   0.9   0.9   0.8  1.04  1.00  0.00  0.00  0.00    7.59   17.51    0.00    0.00    0.00
 2000 332    30     0     1     0.8   87.1    7833   74.1   13.0   0.6   5.8  11.0  10.1   4.5   1.5   0.8   0.0   0.0   0.0   0.1   0.4   0.9   0.9   0.8  1.03  0.99  0.00  0.00  0.00    7.86   17.94    0.00    0.00    0.00
 2000 333    31     0     1     0.8   86.1    7832   73.4   12.8   0.6   5.5  10.7  10.1   4.5   1.5   0.8   0.0   0.0   0.0   0.1   0.4   0.9   0.9   0.8  1.02  0.98  0.00  0.00  0.00    8.14   18.39    0.00    0.00    0.00
 2000 334    32     0     1     0.8   85.2    7832   72.6   12.6   0.7   5.2  10.4  10.2   4.5   1.5   0.8   0.0   0.0   0.0   0.1   0.4   0.9   0.9   0.8  1.01  0.96  0.00  0.00  0.00    8.41   18.80    0.01    0.00    0.00
 2000 335    33     0     1     0.8   82.3    7832   69.9   12.4   0.7   4.5   9.6  10.2   4.6   1.5   0.9   0.0   0.0   0.0   0.1   0.4   0.8   0.8   0.8  1.00  0.95  0.00  0.00  0.00    8.67   19.21    0.01    0.00    0.00
 2000 336    34     0     1     0.8   80.7    7832   68.6   12.2   0.8   4.2   9.2  10.1   4.6   1.5   0.9   0.0   0.0   0.0   0.1   0.4   0.8   0.8   0.8  0.99  0.94  0.00  0.00  0.00    8.92   19.62    0.01    0.00    0.00
 2000 337    35     0     1     0.8   79.0    7831   67.0   12.0   0.8   4.0   8.8   9.8   4.6   1.6   0.9   0.0   0.0   0.0   0.1   0.4   0.8   0.8   0.7  0.98  0.93  0.00  0.00  0.00    9.16   20.01    0.02    0.00    0.00
 2000 338    36     0     1     0.8   76.9    7831   65.1   11.8   0.9   3.8   8.3   9.5   4.6   1.6   0.9   0.0   0.0   0.0   0.1   0.4   0.8   0.8   0.7  0.97  0.92  0.00  0.00  0.00    9.39   20.39    0.02    0.00    0.00
 2000 339    37     0     1     0.8   76.1    7831   64.5   11.6   0.9   3.7   8.2   9.3   4.7   1.6   0.9   0.0   0.0   0.0   0.1   0.4   0.7   0.8   0.7  0.96  0.90  0.00  0.00  0.00    9.62   20.76    0.02    0.00    0.00
 2000 340    38     0     1     0.8   73.3    7831   62.0   11.4   0.9   3.5   7.7   8.8   4.7   1.6   0.9   0.0   0.0   0.0   0.1   0.3   0.7   0.7   0.7  0.95  0.89  0.00  0.00  0.00    9.83   21.12    0.02    0.00    0.00
 2000 341    39     0     1     0.8   70.7    7830   59.5   11.2   0.9   3.2   7.3   8.2   4.7   1.6   1.0   0.0   0.0   0.0   0.1   0.3   0.7   0.7   0.7  0.94  0.88  0.00  0.00  0.00   10.04   21.48    0.02    0.00    0.00
 2000 342    40     0     1     0.8   67.3    7830   56.3   10.9   0.9   2.9   6.9   7.4   4.7   1.6   1.0   0.0   0.0   0.0   0.1   0.3   0.7   0.7   0.7  0.93  0.87  0.00  0.00  0.00   10.25   21.84    0.02    0.00    0.00
 2000 343    41     0     1     0.8   64.3    7830   53.6   10.7   1.0   2.6   6.5   6.7   4.7   1.7   1.0   0.0   0.0   0.0   0.0   0.3   0.6   0.7   0.7  0.92  0.86  0.00  0.00  0.00   10.44   22.20    0.02    0.00    0.00
 2000 344    42     0     1     0.8   60.7    7830   50.2   10.5   1.0   2.2   5.9   5.9   4.8   1.7   1.0   0.0   0.0   0.0   0.0   0.3   0.6   0.6   0.7  0.91  0.85  0.00  0.00  0.00   10.64   22.57    0.02    0.00    0.00
 2000 345    43     0     1     0.8   58.0    7830   47.7   10.2   1.0   2.0   5.6   5.4   4.6   1.7   1.0   0.0   0.0   0.0   0.0   0.3   0.6   0.6   0.7  0.90  0.84  0.00  0.00  0.00   10.82   22.95    0.02    0.00    0.00
 2000 346    44     0     1     0.8   55.1    7829   45.1   10.0   0.6   1.9   5.4   5.0   4.2   1.7   1.0   0.0   0.0   0.0   0.1   0.2   0.6   0.6   0.6  0.89  0.83  0.00  0.00  0.00   11.04   23.33    0.03    0.00    0.00
 2000 347    45     0     1     0.8   52.7    7829   42.9    9.7   0.7   1.8   5.2   4.7   3.8   1.7   1.0   0.0   0.0   0.0   0.1   0.2   0.5   0.6   0.6  0.89  0.82  0.00  0.00  0.00   11.22   23.70    0.03    0.00    0.00
 2000 348    46     0     1     0.8   50.6    7829   41.0    9.5   0.4   1.8   5.1   4.5   3.3   1.7   1.1   0.0   0.0   0.0   0.1   0.2   0.5   0.5   0.6  0.88  0.81  0.00  0.00  0.00   11.39   24.06    0.03    0.00    0.00
 2000 349    47     0     1     0.8   48.2    7829   38.8    9.3   0.3   1.4   5.0   4.3   2.9   1.7   1.1   0.0   0.0   0.0   0.1   0.2   0.5   0.5   0.6  0.87  0.80  0.00  0.00  0.00   11.61   24.42    0.03    0.00    0.00
 2000 350    48     0     1     0.8   46.4    7829   37.2    9.1   0.2   1.2   4.9   4.2   2.5   1.8   1.1   0.0   0.0   0.0   0.1   0.2   0.5   0.5   0.5  0.86  0.78  0.00  0.00  0.00   11.82   24.80    0.03    0.00    0.00
 2000 351    49     0     1     0.8   44.5    7828   35.5    9.0   0.2   0.6   4.9   4.1   2.1   1.8   1.1   0.0   0.0   0.0   0.1   0.2   0.5   0.5   0.5  0.85  0.77  0.00  0.00  0.00   12.07   25.16    0.03    0.00    0.00
 2000 352    50     0     1     0.8   43.1    7828   34.3    8.9   0.3   0.4   4.8   4.0   1.9   1.8   1.1   0.0   0.0   0.0   0.1   0.2   0.5   0.5   0.5  0.84  0.77  0.00  0.00  0.00   12.29   25.50    0.03    0.00    0.00
 2000 353    51     0     1     0.8   42.2    7828   33.4    8.7   0.3   0.4   4.8   3.9   1.6   1.8   1.1   0.0   0.0   0.0   0.1   0.2   0.5   0.5   0.5  0.83  0.76  0.00  0.00  0.00   12.45   25.81    0.03    0.00    0.00
 2000 354    52     0     1     0.8   41.5    7828   32.9    8.6   0.3   0.4   4.7   3.9   1.5   1.8   1.1   0.0   0.0   0.0   0.1   0.2   0.5   0.4   0.5  0.83  0.75  0.00  0.00  0.00   12.59   26.10    0.03    0.00    0.00
 2000 355    53     0     1     0.8   41.0    7828   32.5    8.4   0.4   0.4   4.7   3.8   1.3   1.8   1.2   0.0   0.0   0.0   0.1   0.2   0.4   0.4   0.5  0.82  0.74  0.00  0.00  0.00   12.71   26.37    0.03    0.00    0.00
 2000 356    54     0     1     0.8   40.5    7828   32.3    8.3   0.4   0.4   4.7   3.8   1.2   1.8   1.2   0.0   0.0   0.0   0.1   0.2   0.4   0.4   0.5  0.80  0.73  0.00  0.00  0.00   12.84   26.64    0.03    0.00    0.00
 2000 357    55     0     1     0.8   40.2    7828   32.1    8.1   0.4   0.4   4.7   3.8   1.1   1.8   1.2   0.0   0.0   0.0   0.1   0.2   0.4   0.4   0.5  0.78  0.72  0.00  0.00  0.00   12.97   26.92    0.03    0.00    0.00
 2000 358    56     0     1     0.8   39.7    7827   31.8    7.9   0.4   0.4   4.7   3.8   1.1   1.7   1.2   0.0   0.0   0.0   0.1   0.2   0.4   0.4   0.5  0.76  0.71  0.00  0.00  0.00   13.09   27.18    0.03    0.00    0.00
 2000 359    57     0     1     0.8   39.2    7827   31.5    7.7   0.4   0.4   4.7   3.9   1.0   1.6   1.2   0.0   0.0   0.0   0.1   0.2   0.4   0.4   0.4  0.73  0.70  0.00  0.00  0.00   13.20   27.43    0.03    0.00    0.00
 2000 360    58     0     1     0.8   38.7    7827   31.2    7.5   0.5   0.4   4.7   3.9   1.0   1.5   1.2   0.0   0.0   0.0   0.0   0.2   0.4   0.4   0.4  0.71  0.70  0.00  0.00  0.00   13.31   27.66    0.03    0.00    0.00
 2000 361    59     0     1     0.8   38.2    7827   30.9    7.3   0.0   0.2   2.3   5.4   2.1   1.3   1.2   0.0   0.0   0.0   0.0   0.2   0.4   0.4   0.4  0.68  0.69  0.00  0.00  0.00   13.43   27.91    0.03    0.00    0.00
 2000 362    60     0     1     0.8   33.9    7827   26.6    7.4   0.1   0.2   1.3   3.8   2.8   1.3   1.2   0.0   0.0   0.0   0.1   0.2   0.4   0.4   0.4  0.65  0.68  0.00  0.00  0.00   13.77   28.17    0.03    0.00    0.00
 2000 363    61     0     1     1.3   30.2    7826   22.8    7.4   0.1   0.2   0.8   2.5   2.4   1.5   1.3   0.0   0.0   0.0   0.1   0.2   0.4   0.4   0.4  0.63  0.67  0.00  0.00  0.00   14.13   28.47    0.03    0.00    0.00
 2000 364    62     0     1     1.3   27.7    7826   20.4    7.4   0.2   0.3   0.6   2.0   2.2   1.4   1.3   0.0   0.0   0.0   0.1   0.3   0.4   0.4   0.4  0.61  0.66  0.00  0.00  0.00   14.49   28.81    0.03    0.00    0.00
 2000 365    63     0     1     1.3   25.7    7826   18.3    7.4   0.2   0.3   0.5   1.7   1.9   1.3   1.3   0.0   0.0   0.0   0.1   0.3   0.5   0.4   0.4  0.60  0.66  0.00  0.00  0.00   14.85   29.13    0.03    0.00    0.00
 2000 366    64     0     1     1.3   23.9    7825   16.6    7.4   0.3   0.3   0.4   1.4   1.6   1.2   1.3   0.0   0.0   0.0   0.1   0.3   0.5   0.4   0.4  0.59  0.65  0.00  0.00  0.00   15.18   29.43    0.03    0.00    0.00
 2001 001    65     0     1     1.3   22.4    7825   15.1    7.4   0.3   0.3   0.3   1.2   1.4   1.1   1.3   0.0   0.0   0.0   0.1   0.3   0.5   0.4   0.4  0.57  0.64  0.00  0.00  0.00   15.49   29.71    0.03    0.00    0.00
 2001 002    66     0     1     1.3   21.2    7825   13.9    7.3   0.3   0.3   0.3   1.0   1.2   1.0   1.4   0.0   0.0   0.0   0.1   0.3   0.5   0.4   0.4  0.56  0.63  0.00  0.00  0.00   15.78   30.01    0.03    0.00    0.00
 2001 003    67     0     1     1.3   20.2    7825   12.9    7.3   0.3   0.3   0.3   0.8   1.0   0.9   1.4   0.0   0.0   0.0   0.1   0.3   0.5   0.4   0.4  0.55  0.63  0.00  0.00  0.00   16.06   30.32    0.03    0.00    0.00
 2001 004    68     0     1     1.3   19.4    7824   12.2    7.2   0.4   0.3   0.3   0.7   0.9   0.8   1.4   0.0   0.0   0.0   0.0   0.3   0.5   0.4   0.4  0.54  0.62  0.00  0.00  0.00   16.32   30.65    0.03    0.00    0.00
 2001 005    69     0     1     1.3   18.8    7824   11.7    7.1   0.3   0.3   0.3   0.7   0.8   0.8   1.4   0.0   0.0   0.0   0.1   0.3   0.5   0.4   0.4  0.53  0.61  0.00  0.00  0.00   16.58   31.01    0.03    0.00    0.00
 2001 006    70     0     1     1.3   18.3    7824   11.3    6.9   0.3   0.3   0.3   0.6   0.7   0.7   1.4   0.0   0.0   0.0   0.0   0.3   0.5   0.4   0.4  0.52  0.61  0.00  0.00  0.00   16.80   31.38    0.03    0.00    0.00
 2001 007    71     0     1     1.3   17.8    7824   11.0    6.8   0.3   0.3   0.3   0.6   0.7   0.7   1.4   0.0   0.0   0.0   0.1   0.2   0.5   0.4   0.4  0.52  0.60  0.00  0.00  0.00   17.06   31.74    0.03    0.00    0.00
 2001 008    72     0     1     1.3   17.5    7823   10.8    6.7   0.3   0.3   0.3   0.6   0.7   0.6   1.4   0.0   0.0   0.0   0.1   0.2   0.5   0.4   0.4  0.51  0.59  0.00  0.00  0.00   17.29   32.09    0.03    0.00    0.00
 2001 009    73     0     1     1.3   17.2    7823   10.6    6.6   0.1   0.2   0.4   0.6   0.6   0.6   1.4   0.0   0.0   0.0   0.1   0.2   0.4   0.4   0.4  0.50  0.58  0.00  0.00  0.00   17.51   32.43    0.03    0.00    0.00
 2001 010    74     0     1     1.3   17.0    7823   10.5    6.6   0.2   0.3   0.4   0.6   0.6   0.6   1.5   0.0   0.0   0.0   0.1   0.2   0.5   0.4   0.3  0.49  0.58  0.00  0.00  0.00   17.83   32.75    0.03    0.00    0.00
 2001 011    75     0     1     1.3   16.9    7823   10.3    6.6   0.2   0.3   0.3   0.6   0.6   0.5   1.5   0.0   0.0   0.0   0.1   0.3   0.5   0.4   0.3  0.49  0.57  0.00  0.00  0.00   18.13   33.06    0.03    0.00    0.00
 2001 012    76     0     1     1.3   16.7    7822   10.2    6.5   0.3   0.3   0.3   0.6   0.6   0.5   1.5   0.0   0.0   0.0   0.1   0.3   0.5   0.4   0.3  0.48  0.57  0.00  0.00  0.00   18.39   33.34    0.03    0.00    0.00
 2001 013    77     0     1     1.3   16.6    7822   10.1    6.5   0.3   0.3   0.3   0.5   0.5   0.5   1.5   0.0   0.0   0.0   0.1   0.3   0.5   0.4   0.3  0.48  0.56  0.00  0.00  0.00   18.62   33.62    0.03    0.00    0.00
 2001 014    78     0     1     1.3   16.4    7822   10.0    6.4   0.3   0.3   0.3   0.5   0.5   0.5   1.5   0.0   0.0   0.0   0.1   0.3   0.5   0.4   0.3  0.47  0.55  0.00  0.00  0.00   18.79   33.88    0.03    0.00    0.00
 2001 015    79     0     1     1.3   16.3    7822   10.0    6.3   0.3   0.3   0.3   0.5   0.5   0.5   1.5   0.0   0.0   0.0   0.1   0.3   0.5   0.4   0.3  0.47  0.55  0.00  0.00  0.00   18.93   34.12    0.03    0.00    0.00
 2001 016    80     0     1     1.3   16.2    7822   10.0    6.2   0.4   0.3   0.3   0.5   0.5   0.5   1.5   0.0   0.0   0.0   0.1   0.3   0.5   0.3   0.3  0.46  0.54  0.00  0.00  0.00   19.06   34.37    0.03    0.00    0.00
 2001 017    81     0     1     1.3   16.1    7822   10.1    6.1   0.4   0.3   0.3   0.5   0.5   0.4   1.5   0.0   0.0   0.0   0.1   0.2   0.5   0.3   0.3  0.45  0.54  0.00  0.00  0.00   19.19   34.62    0.03    0.00    0.00
 2001 018    82     0     1     1.3   16.0    7822   10.1    6.0   0.0   0.2   0.3   0.7   0.5   0.4   1.5   0.0   0.0   0.0   0.1   0.2   0.5   0.3   0.3  0.45  0.53  0.00  0.00  0.00   19.36   34.89    0.03    0.00    0.00
 2001 019    83     0     1     1.3   15.9    7821    9.8    6.0   0.1   0.2   0.2   0.5   0.7   0.4   1.5   0.0   0.0   0.0   0.1   0.3   0.5   0.3   0.3  0.44  0.53  0.00  0.00  0.00   19.69   35.16    0.03    0.00    0.00
 2001 020    84     0     1     1.3   15.7    7821    9.6    6.1   0.1   0.2   0.2   0.4   0.6   0.5   1.6   0.0   0.0   0.0   0.1   0.3   0.5   0.4   0.3  0.43  0.52  0.00  0.00  0.00   20.02   35.44    0.03    0.00    0.00
 2001 021    85     0     1     1.3   15.6    7821    9.5    6.1   0.2   0.2   0.3   0.3   0.5   0.4   1.6   0.0   0.0   0.0   0.1   0.3   0.5   0.4   0.3  0.43  0.52  0.00  0.00  0.00   20.34   35.72    0.03    0.00    0.00
 2001 022    86     0     1     1.3   15.4    7820    9.3    6.2   0.2   0.3   0.3   0.3   0.5   0.4   1.6   0.0   0.0   0.0   0.1   0.3   0.5   0.4   0.3  0.42  0.51  0.00  0.00  0.00   20.64   35.98    0.03    0.00    0.00
 2001 023    87     0     1     1.3   15.3    7820    9.1    6.2   0.2   0.3   0.3   0.3   0.4   0.4   1.6   0.0   0.0   0.0   0.1   0.3   0.5   0.4   0.3  0.42  0.51  0.00  0.00  0.00   20.93   36.23    0.03    0.00    0.00
 2001 024    88     0     1     1.3   15.2    7820    9.0    6.2   0.2   0.3   0.3   0.3   0.4   0.4   1.6   0.0   0.0   0.0   0.1   0.3   0.5   0.4   0.3  0.41  0.50  0.00  0.00  0.00   21.22   36.51    0.03    0.00    0.00
 2001 025    89     0     1     1.3   15.1    7820    9.0    6.2   0.2   0.3   0.3   0.3   0.3   0.4   1.6   0.0   0.0   0.0   0.1   0.3   0.5   0.4   0.3  0.41  0.50  0.00  0.00  0.00   21.52   36.82    0.03    0.00    0.00
 2001 026    90     0     1     1.3   15.0    7819    8.9    6.1   0.2   0.3   0.3   0.3   0.3   0.4   1.6   0.0   0.0   0.0   0.1   0.3   0.5   0.4   0.3  0.40  0.49  0.00  0.00  0.00   21.84   37.16    0.03    0.00    0.00
 2001 027    91     0     1     1.3   14.9    7819    8.8    6.1   0.1   0.3   0.3   0.3   0.3   0.4   1.6   0.0   0.0   0.0   0.1   0.3   0.5   0.4   0.3  0.40  0.49  0.00  0.00  0.00   22.19   37.52    0.03    0.00    0.00
 2001 028    92     0     1     1.3   14.9    7819    8.8    6.1   0.2   0.3   0.3   0.3   0.3   0.3   1.6   0.0   0.0   0.0   0.1   0.3   0.5   0.4   0.3  0.39  0.48  0.00  0.00  0.00   22.57   37.87    0.03    0.00    0.00
 2001 029    93     0     1     1.3   14.9    7818    8.8    6.1   0.3   0.3   0.3   0.3   0.3   0.3   1.6   0.0   0.0   0.0   0.1   0.4   0.5   0.4   0.3  0.39  0.48  0.00  0.00  0.00   22.93   38.20    0.03    0.00    0.00
 2001 030    94     0     1     1.3   15.0    7818    8.8    6.2   0.3   0.3   0.3   0.3   0.3   0.3   1.6   0.0   0.0   0.0   0.1   0.4   0.5   0.4   0.3  0.38  0.47  0.00  0.00  0.00   23.27   38.52    0.03    0.00    0.00
 2001 031    95     0     1     1.3   15.0    7818    8.8    6.2   0.3   0.3   0.3   0.3   0.3   0.3   1.7   0.0   0.0   0.0   0.1   0.4   0.5   0.4   0.3  0.38  0.47  0.00  0.00  0.00   23.59   38.81    0.03    0.00    0.00
 2001 032    96     0     1     1.3   14.9    7817    8.8    6.2   0.3   0.3   0.3   0.3   0.3   0.3   1.7   0.0   0.0   0.0   0.1   0.4   0.5   0.4   0.3  0.37  0.47  0.00  0.00  0.00   23.90   39.11    0.03    0.00    0.00
 2001 033    97     0     1     1.3   14.9    7817    8.8    6.1   0.3   0.3   0.3   0.3   0.3   0.3   1.7   0.0   0.0   0.0   0.1   0.4   0.5   0.4   0.3  0.37  0.46  0.00  0.00  0.00   24.18   39.40    0.03    0.00    0.00
 2001 034    98     0     1     1.3   14.9    7817    8.8    6.1   0.3   0.3   0.3   0.3   0.3   0.3   1.7   0.0   0.0   0.0   0.1   0.4   0.5   0.4   0.3  0.36  0.46  0.00  0.00  0.00   24.47   39.71    0.03    0.00    0.00
 2001 035    99     0     1     1.3   14.8    7817    8.8    6.0   0.3   0.3   0.3   0.3   0.3   0.3   1.7   0.0   0.0   0.0   0.1   0.3   0.5   0.4   0.3  0.36  0.45  0.00  0.00  0.00   24.73   40.02    0.03    0.00    0.00
 2001 036   100     0     1     1.3   14.8    7817    8.8    5.9   0.3   0.3   0.3   0.3   0.3   0.3   1.7   0.0   0.0   0.0   0.1   0.3   0.5   0.4   0.3  0.36  0.45  0.00  0.00  0.00   24.95   40.31    0.03    0.00    0.00
 2001 037   101     0     1     1.3   14.7    7816    8.8    5.8   0.1   0.3   0.4   0.3   0.3   0.3   1.7   0.0   0.0   0.0   0.1   0.3   0.5   0.4   0.3  0.35  0.45  0.00  0.00  0.00   25.15   40.60    0.03    0.00    0.00
 2001 038   102     0     1     1.3   14.6    7816    8.8    5.9   0.1   0.3   0.3   0.3   0.3   0.3   1.7   0.0   0.0   0.0   0.1   0.3   0.5   0.4   0.3  0.35  0.44  0.00  0.00  0.00   25.46   40.89    0.03    0.00    0.00
 2001 039   103     0     1     1.3   14.7    7816    8.8    5.9   0.2   0.3   0.3   0.3   0.3   0.3   1.7   0.0   0.0   0.0   0.1   0.3   0.5   0.4   0.3  0.34  0.44  0.00  0.00  0.00   25.80   41.21    0.03    0.00    0.00
 2001 040   104     0     1     1.3   14.7    7816    8.8    5.9   0.1   0.3   0.3   0.3   0.3   0.3   1.7   0.0   0.0   0.0   0.1   0.3   0.5   0.4   0.3  0.34  0.44  0.00  0.00  0.00   26.13   41.54    0.03    0.00    0.00
 2001 041   105     0     1     1.3   14.7    7815    8.8    5.9   0.1   0.3   0.3   0.3   0.3   0.3   1.7   0.0   0.0   0.0   0.1   0.3   0.5   0.4   0.3  0.33  0.43  0.00  0.00  0.00   26.49   41.88    0.03    0.00    0.00
 2001 042   106     0     1     1.3   14.7    7815    8.9    5.9   0.1   0.2   0.3   0.3   0.3   0.3   1.7   0.0   0.0   0.0   0.1   0.4   0.5   0.4   0.3  0.33  0.43  0.00  0.00  0.00   26.86   42.22    0.03    0.00    0.00
 2001 043   107     0     1     1.3   14.8    7815    8.9    5.9   0.1   0.2   0.2   0.3   0.3   0.3   1.8   0.0   0.0   0.0   0.1   0.4   0.5   0.5   0.3  0.33  0.42  0.00  0.00  0.00   27.22   42.52    0.03    0.00    0.00
 2001 044   108     0     1     1.5   14.6    7814    8.7    5.9   0.2   0.3   0.3   0.3   0.3   0.3   1.7   0.0   0.0   0.0   0.1   0.4   0.5   0.5   0.3  0.32  0.42  0.00  0.00  0.00   27.57   42.83    0.03    0.00    0.00
 2001 045   109     0     1     1.5   14.8    7814    8.8    5.9   0.2   0.3   0.3   0.3   0.3   0.3   1.7   0.0   0.0   0.0   0.1   0.4   0.5   0.5   0.3  0.32  0.42  0.00  0.00  0.00   27.90   43.11    0.03    0.00    0.00
 2001 046   110     0     1     1.5   14.8    7814    8.8    6.0   0.3   0.3   0.3   0.3   0.3   0.3   1.7   0.0   0.0   0.0   0.1   0.4   0.5   0.5   0.3  0.32  0.41  0.00  0.00  0.00   28.22   43.38    0.03    0.00    0.00
 2001 047   111     0     1     1.5   14.8    7814    8.8    6.0   0.3   0.3   0.3   0.3   0.3   0.3   1.7   0.0   0.0   0.0   0.1   0.4   0.6   0.5   0.3  0.32  0.41  0.00  0.00  0.00   28.54   43.65    0.03    0.00    0.00
 2001 048   112     0     1     1.5   14.9    7813    8.9    6.0   0.3   0.3   0.3   0.3   0.3   0.3   1.7   0.0   0.0   0.0   0.1   0.4   0.6   0.5   0.3  0.32  0.41  0.00  0.00  0.00   28.88   43.94    0.03    0.00    0.00
 2001 049   113     0     1     1.5   15.0    7813    8.9    6.0   0.3   0.3   0.3   0.3   0.3   0.3   1.7   0.0   0.0   0.0   0.1   0.4   0.6   0.5   0.3  0.32  0.41  0.00  0.00  0.00   29.24   44.25    0.03    0.00    0.00
 2001 050   114     0     1     1.5   15.0    7813    9.0    6.0   0.3   0.3   0.3   0.3   0.3   0.3   1.8   0.0   0.0   0.0   0.1   0.4   0.6   0.5   0.3  0.32  0.40  0.00  0.00  0.00   29.60   44.57    0.03    0.00    0.00
 2001 051   115     0     1     1.5   15.1    7812    9.1    6.0   0.4   0.3   0.3   0.3   0.3   0.3   1.8   0.0   0.0   0.0   0.0   0.4   0.6   0.5   0.3  0.32  0.40  0.00  0.00  0.00   29.97   44.91    0.03    0.00    0.00
 2001 052   116     0     1     1.5   15.5    7812    9.4    6.1   0.4   0.4   0.3   0.3   0.3   0.3   1.8   0.0   0.0   0.0   0.0   0.4   0.6   0.5   0.3  0.32  0.40  0.00  0.00  0.00   30.34   45.25    0.03    0.00    0.00
 2001 053   117     0     1     1.5   15.8    7812    9.8    6.1   0.4   0.5   0.4   0.3   0.3   0.3   1.8   0.0   0.0   0.0   0.0   0.4   0.6   0.5   0.3  0.32  0.39  0.00  0.00  0.00   30.72   45.61    0.03    0.00    0.00

*DSSAT Cropping System Model Ver. 4.0.2.000               Aug 16, 2016; 17:55:43

*RUN   2        : UYMZ                    
 MODEL          : MZCER040 - Maize           
 EXPERIMENT     : UYMZ0214 MZ    late to create DSS                             
 TREATMENT  1   : UYMZ                    

@YEAR DOY   DAS  NAPC  NI#M    NLCC   NIAD    NOAD   NITD   NHTD  NI1D  NI2D  NI3D  NI4D  NI5D  NI6D  NI7D  NI8D  NI9D  NI10  NH1D  NH2D  NH3D  NH4D  NH5D  NH6D  NH7D  NH8D  NH9D  NH10    NMNC    NITC    NDNC    NIMC    AMLC
 2001 302     0     0     0     0.0   86.4    7840   64.2   22.2  15.6  15.2   8.5   4.9   0.1   0.0   0.0   0.0   0.0   0.0   0.9   1.4   1.5   1.5   1.5  1.48  1.48  0.00  0.00  0.00    0.26    1.20    0.00    0.00    0.00
 2001 303     1     0     0     0.0   86.7    7840   65.2   21.5  15.9  15.3   8.5   5.0   0.1   0.1   0.1   0.0   0.0   0.0   0.7   1.3   1.4   1.4   1.4  1.46  1.46  0.00  0.00  0.00    0.52    2.12    0.00    0.00    0.00
 2001 304     2     0     0     0.0   87.0    7840   66.0   20.9  16.1  15.4   8.6   5.0   0.2   0.1   0.1   0.0   0.0   0.0   0.5   1.2   1.4   1.4   1.4  1.44  1.44  0.00  0.00  0.00    0.78    2.99    0.00    0.00    0.00
 2001 305     3     0     1     0.0   87.2    7839   66.8   20.4  16.3  15.6   8.6   5.1   0.2   0.1   0.1   0.0   0.0   0.0   0.4   1.1   1.4   1.4   1.4  1.42  1.42  0.00  0.00  0.00    1.03    3.74    0.00    0.00    0.00
 2001 306     4     0     1     0.0   87.5    7839   67.5   20.0  16.4  15.7   8.7   5.1   0.2   0.1   0.1   0.0   0.0   0.0   0.4   1.1   1.4   1.3   1.3  1.40  1.40  0.00  0.00  0.00    1.29    4.45    0.00    0.00    0.00
 2001 307     5     0     1     0.0   87.7    7839   68.2   19.5  16.4  15.8   8.8   5.2   0.3   0.2   0.2   0.0   0.0   0.0   0.3   1.0   1.3   1.3   1.3  1.39  1.38  0.00  0.00  0.00    1.56    5.15    0.00    0.00    0.00
 2001 308     6     0     1     0.0   88.0    7839   68.9   19.1  16.5  15.9   8.8   5.2   0.3   0.2   0.2   0.0   0.0   0.0   0.3   0.9   1.3   1.3   1.3  1.37  1.36  0.00  0.00  0.00    1.82    5.82    0.00    0.00    0.00
 2001 309     7     0     1     0.0   88.3    7838   69.5   18.7   3.2  15.6  13.3   5.4   0.4   0.2   0.2   0.0   0.0   0.0   0.3   0.9   1.3   1.3   1.2  1.35  1.34  0.00  0.00  0.00    2.09    6.50    0.00    0.00    0.00
 2001 310     8     0     1     0.0   88.6    7838   70.3   18.3   2.5  13.0  13.8   7.2   0.4   0.2   0.2   0.0   0.0   0.0   0.2   0.8   1.3   1.2   1.2  1.33  1.32  0.00  0.00  0.00    2.38    7.23    0.00    0.00    0.00
 2001 311     9     0     1     0.1   88.8    7838   70.9   17.9   2.4  11.5  13.0   8.0   1.4   0.3   0.3   0.0   0.0   0.0   0.2   0.8   1.2   1.2   1.2  1.32  1.30  0.00  0.00  0.00    2.66    7.92    0.00    0.00    0.00
 2001 312    10     0     1     0.1   89.0    7838   71.5   17.5   2.4  11.1  12.7   8.2   1.8   0.4   0.3   0.0   0.0   0.0   0.1   0.7   1.2   1.2   1.2  1.30  1.29  0.00  0.00  0.00    2.94    8.53    0.00    0.00    0.00
 2001 313    11     0     1     0.1   89.3    7837   72.0   17.3   0.5   7.8  12.7   9.9   2.8   0.5   0.3   0.0   0.0   0.0   0.1   0.7   1.2   1.2   1.1  1.28  1.27  0.00  0.00  0.00    3.21    9.09    0.00    0.00    0.00
 2001 314    12     0     1     0.2   89.4    7837   72.4   17.0   0.4   6.4  11.5  10.5   4.0   0.8   0.4   0.0   0.0   0.0   0.1   0.7   1.2   1.1   1.1  1.27  1.25  0.00  0.00  0.00    3.47    9.62    0.07    0.00    0.00
 2001 315    13     0     1     0.6   89.2    7837   72.4   16.7   0.5   5.8  10.4  10.0   4.9   1.4   0.5   0.0   0.0   0.0   0.1   0.6   1.2   1.1   1.1  1.26  1.24  0.00  0.00  0.00    3.73   10.14    0.13    0.00    0.00
 2001 316    14     0     1     0.7   89.4    7836   72.9   16.5   0.5   5.6  10.1  10.0   5.3   1.5   0.6   0.0   0.0   0.0   0.1   0.6   1.1   1.1   1.1  1.25  1.22  0.00  0.00  0.00    4.00   10.66    0.16    0.00    0.00
 2001 317    15     0     1     0.8   89.2    7836   73.0   16.2   0.6   5.5   9.9   9.8   5.4   1.7   0.7   0.0   0.0   0.0   0.1   0.6   1.1   1.1   1.1  1.23  1.20  0.00  0.00  0.00    4.27   11.19    0.18    0.00    0.00
 2001 318    16     0     1     0.9   89.5    7836   73.5   16.0   0.6   5.5   9.8   9.8   5.5   1.8   0.7   0.0   0.0   0.0   0.1   0.6   1.1   1.1   1.1  1.22  1.19  0.00  0.00  0.00    4.55   11.70    0.19    0.00    0.00
 2001 319    17     0     1     0.9   89.7    7836   74.0   15.8   0.6   5.6   9.9   9.8   5.5   1.8   0.7   0.0   0.0   0.0   0.2   0.6   1.1   1.1   1.0  1.21  1.17  0.00  0.00  0.00    4.82   12.20    0.19    0.00    0.00
 2001 320    18     0     1     0.9   90.0    7835   74.5   15.5   0.7   5.6   9.9   9.9   5.6   1.8   0.7   0.0   0.0   0.0   0.1   0.5   1.1   1.0   1.0  1.19  1.16  0.00  0.00  0.00    5.08   12.72    0.19    0.00    0.00
 2001 321    19     0     1     0.9   90.1    7835   74.9   15.3   0.8   5.6  10.0   9.9   5.6   1.8   0.8   0.0   0.0   0.0   0.1   0.5   1.1   1.0   1.0  1.18  1.14  0.00  0.00  0.00    5.32   13.18    0.20    0.00    0.00
 2001 322    20     0     1     0.9   90.3    7835   75.3   15.1   0.8   5.6  10.0   9.9   5.6   1.9   0.8   0.0   0.0   0.0   0.1   0.5   1.0   1.0   1.0  1.17  1.13  0.00  0.00  0.00    5.57   13.64    0.20    0.00    0.00
 2001 323    21     0     1     0.9   90.6    7835   75.7   14.8   0.9   5.7  10.0  10.0   5.6   1.9   0.8   0.0   0.0   0.0   0.1   0.5   1.0   1.0   1.0  1.16  1.11  0.00  0.00  0.00    5.85   14.14    0.20    0.00    0.00
 2001 324    22     0     1     0.9   90.8    7834   76.2   14.6   1.0   5.7  10.1  10.0   5.7   1.9   0.8   0.0   0.0   0.0   0.1   0.5   1.0   1.0   1.0  1.14  1.09  0.00  0.00  0.00    6.13   14.65    0.20    0.00    0.00
 2001 325    23     0     1     0.9   90.8    7834   76.5   14.4   1.0   5.6  10.1  10.1   5.7   1.9   0.8   0.0   0.0   0.0   0.1   0.5   1.0   1.0   0.9  1.13  1.08  0.00  0.00  0.00    6.42   15.18    0.21    0.00    0.00
 2001 326    24     0     1     0.9   90.4    7834   76.3   14.1   1.1   5.4  10.0  10.1   5.7   1.9   0.9   0.0   0.0   0.0   0.1   0.5   1.0   0.9   0.9  1.12  1.06  0.00  0.00  0.00    6.73   15.72    0.21    0.00    0.00
 2001 327    25     0     1     1.0   89.7    7833   75.9   13.9   0.2   2.4   8.5  11.1   7.3   2.4   1.0   0.0   0.0   0.0   0.1   0.4   0.9   0.9   0.9  1.11  1.05  0.00  0.00  0.00    7.03   16.27    0.21    0.00    0.00
 2001 328    26     0     1     3.1   87.5    7833   73.8   13.7   0.2   1.9   6.6   9.5   7.8   3.5   1.6   0.0   0.0   0.0   0.1   0.4   0.9   0.9   0.9  1.09  1.04  0.00  0.00  0.00    7.37   16.75    0.26    0.00    0.00
 2001 329    27     0     1     3.9   86.0    7833   72.5   13.5   0.2   1.6   5.8   9.0   7.9   3.9   1.8   0.0   0.0   0.0   0.1   0.4   0.9   0.9   0.9  1.08  1.02  0.00  0.00  0.00    7.68   17.24    0.28    0.00    0.00
 2001 330    28     0     1     4.1   84.8    7833   71.6   13.3   0.3   1.4   5.3   8.8   7.9   4.0   1.9   0.0   0.0   0.0   0.1   0.4   0.9   0.9   0.9  1.07  1.01  0.00  0.00  0.00    7.94   17.67    0.29    0.00    0.00
 2001 331    29     0     1     4.1   84.2    7832   71.1   13.1   0.3   1.3   5.1   8.8   8.0   4.0   1.9   0.0   0.0   0.0   0.1   0.4   0.8   0.9   0.9  1.06  1.00  0.00  0.00  0.00    8.21   18.09    0.29    0.00    0.00
 2001 332    30     0     1     4.1   83.0    7832   70.2   12.8   0.3   1.1   4.7   8.9   8.0   4.0   2.0   0.0   0.0   0.0   0.1   0.4   0.8   0.9   0.8  1.05  0.98  0.00  0.00  0.00    8.46   18.49    0.30    0.00    0.00
 2001 333    31     0     1     4.1   82.2    7832   69.5   12.7   0.3   1.0   4.3   8.9   8.0   4.1   2.0   0.0   0.0   0.0   0.1   0.4   0.8   0.8   0.8  1.04  0.97  0.00  0.00  0.00    8.72   18.88    0.30    0.00    0.00
 2001 334    32     0     1     4.1   81.8    7831   69.3   12.5   0.3   0.9   4.2   8.9   8.0   4.1   2.0   0.0   0.0   0.0   0.1   0.4   0.8   0.8   0.8  1.03  0.96  0.00  0.00  0.00    8.98   19.28    0.31    0.00    0.00
 2001 335    33     0     1     4.1   80.0    7831   67.7   12.3   0.4   0.7   3.5   9.0   8.1   4.1   2.0   0.0   0.0   0.0   0.1   0.4   0.7   0.8   0.8  1.02  0.95  0.00  0.00  0.00    9.23   19.65    0.31    0.00    0.00
 2001 336    34     0     1     4.1   78.6    7831   66.6   12.1   0.4   0.5   3.0   9.0   8.1   4.1   2.0   0.0   0.0   0.0   0.1   0.4   0.7   0.8   0.8  1.01  0.93  0.00  0.00  0.00    9.46   20.01    0.31    0.00    0.00
 2001 337    35     0     1     4.1   78.7    7831   66.7   12.0   0.4   0.6   3.0   9.0   8.1   4.1   2.0   0.0   0.0   0.0   0.1   0.4   0.7   0.8   0.8  1.00  0.92  0.00  0.00  0.00    9.68   20.35    0.31    0.00    0.00
 2001 338    36     0     1     4.1   77.1    7831   65.4   11.8   0.4   0.5   2.6   8.7   8.1   4.1   2.1   0.0   0.0   0.0   0.1   0.4   0.7   0.8   0.8  0.99  0.91  0.00  0.00  0.00    9.89   20.67    0.32    0.00    0.00
 2001 339    37     0     1     4.1   76.1    7830   64.5   11.6   0.2   0.6   2.5   8.4   8.1   4.2   2.1   0.0   0.0   0.0   0.1   0.4   0.6   0.8   0.8  0.98  0.90  0.00  0.00  0.00   10.09   20.99    0.32    0.00    0.00
 2001 340    38     0     1     4.1   74.0    7830   62.6   11.4   0.2   0.4   2.3   7.8   8.2   4.2   2.1   0.0   0.0   0.0   0.1   0.4   0.6   0.7   0.8  0.97  0.89  0.00  0.00  0.00   10.34   21.31    0.32    0.00    0.00
 2001 341    39     0     1     4.1   71.1    7830   59.8   11.2   0.1   0.3   2.0   6.9   8.2   4.2   2.1   0.0   0.0   0.0   0.1   0.4   0.6   0.7   0.8  0.96  0.88  0.00  0.00  0.00   10.59   21.66    0.32    0.00    0.00
 2001 342    40     0     1     4.1   69.1    7830   58.0   11.1   0.1   0.3   1.7   6.3   8.2   4.2   2.1   0.0   0.0   0.0   0.1   0.4   0.6   0.7   0.7  0.95  0.87  0.00  0.00  0.00   10.88   22.03    0.33    0.00    0.00
 2001 343    41     0     1     4.1   66.4    7829   55.5   10.9   0.2   0.3   1.4   5.4   8.2   4.2   2.1   0.0   0.0   0.0   0.1   0.4   0.6   0.7   0.7  0.95  0.86  0.00  0.00  0.00   11.17   22.40    0.33    0.00    0.00
 2001 344    42     0     1     4.1   64.0    7829   53.2   10.7   0.2   0.3   1.2   4.6   8.2   4.2   2.1   0.0   0.0   0.0   0.1   0.4   0.6   0.6   0.7  0.94  0.85  0.00  0.00  0.00   11.44   22.74    0.33    0.00    0.00
 2001 345    43     0     1     4.1   61.5    7829   51.0   10.6   0.2   0.3   0.9   3.8   8.3   4.3   2.2   0.0   0.0   0.0   0.1   0.4   0.6   0.6   0.7  0.93  0.84  0.00  0.00  0.00   11.70   23.08    0.33    0.00    0.00
 2001 346    44     0     1     4.1   59.7    7829   49.3   10.4   0.3   0.3   0.8   3.1   8.3   4.3   2.2   0.0   0.0   0.0   0.1   0.4   0.6   0.6   0.7  0.92  0.83  0.00  0.00  0.00   11.96   23.43    0.33    0.00    0.00
 2001 347    45     0     1     4.1   58.3    7828   48.1   10.2   0.3   0.3   0.6   2.6   8.3   4.3   2.2   0.0   0.0   0.0   0.1   0.4   0.5   0.6   0.7  0.91  0.82  0.00  0.00  0.00   12.20   23.77    0.33    0.00    0.00
 2001 348    46     0     1     4.1   57.3    7828   47.3   10.1   0.3   0.3   0.6   2.2   8.3   4.3   2.2   0.0   0.0   0.0   0.1   0.4   0.5   0.5   0.7  0.90  0.81  0.00  0.00  0.00   12.44   24.13    0.34    0.00    0.00
 2001 349    47     0     1     4.1   54.5    7828   44.6    9.9   0.3   0.3   0.5   2.0   7.4   4.3   2.2   0.0   0.0   0.0   0.1   0.4   0.5   0.5   0.7  0.89  0.80  0.00  0.00  0.00   12.65   24.50    0.34    0.00    0.00
 2001 350    48     0     1     4.1   51.4    7828   41.8    9.6   0.3   0.3   0.5   1.8   6.4   4.3   2.2   0.0   0.0   0.0   0.1   0.3   0.5   0.5   0.6  0.88  0.79  0.00  0.00  0.00   12.85   24.86    0.34    0.00    0.00
 2001 351    49     0     1     4.1   48.9    7827   39.4    9.4   0.3   0.3   0.5   1.7   5.5   4.3   2.2   0.0   0.0   0.0   0.1   0.3   0.5   0.5   0.6  0.87  0.78  0.00  0.00  0.00   13.03   25.19    0.34    0.00    0.00
 2001 352    50     0     1     4.1   47.3    7827   38.0    9.3   0.4   0.3   0.5   1.6   4.9   4.4   2.3   0.0   0.0   0.0   0.1   0.3   0.5   0.5   0.6  0.87  0.77  0.00  0.00  0.00   13.19   25.49    0.34    0.00    0.00
 2001 353    51     0     1     4.1   46.2    7827   37.1    9.1   0.4   0.3   0.5   1.6   4.5   4.4   2.3   0.0   0.0   0.0   0.1   0.3   0.5   0.5   0.6  0.86  0.76  0.00  0.00  0.00   13.33   25.78    0.34    0.00    0.00
 2001 354    52     0     1     4.1   45.4    7827   36.4    8.9   0.4   0.3   0.5   1.5   4.3   4.4   2.3   0.0   0.0   0.0   0.1   0.3   0.5   0.5   0.5  0.85  0.75  0.00  0.00  0.00   13.46   26.06    0.34    0.00    0.00
 2001 355    53     0     1     4.1   44.8    7827   36.0    8.8   0.3   0.4   0.5   1.5   4.0   4.4   2.3   0.0   0.0   0.0   0.1   0.3   0.5   0.5   0.5  0.84  0.74  0.00  0.00  0.00   13.59   26.35    0.34    0.00    0.00
 2001 356    54     0     1     4.1   44.2    7827   35.6    8.7   0.3   0.3   0.5   1.5   3.9   4.4   2.3   0.0   0.0   0.0   0.1   0.3   0.5   0.5   0.5  0.83  0.73  0.00  0.00  0.00   13.76   26.65    0.34    0.00    0.00
 2001 357    55     0     1     4.1   43.9    7827   35.3    8.5   0.3   0.3   0.5   1.5   3.7   4.4   2.3   0.0   0.0   0.0   0.1   0.2   0.4   0.4   0.5  0.82  0.72  0.00  0.00  0.00   13.93   26.95    0.34    0.00    0.00
 2001 358    56     0     1     4.1   43.6    7826   35.2    8.4   0.3   0.3   0.5   1.5   3.6   4.5   2.3   0.0   0.0   0.0   0.1   0.2   0.4   0.4   0.5  0.82  0.72  0.00  0.00  0.00   14.07   27.25    0.34    0.00    0.00
 2001 359    57     0     1     4.1   43.4    7826   35.2    8.2   0.4   0.3   0.5   1.5   3.5   4.5   2.4   0.0   0.0   0.0   0.1   0.2   0.4   0.4   0.5  0.81  0.71  0.00  0.00  0.00   14.20   27.54    0.35    0.00    0.00
 2001 360    58     0     1     4.1   43.2    7826   35.2    8.1   0.4   0.3   0.5   1.5   3.4   4.5   2.4   0.0   0.0   0.0   0.1   0.2   0.4   0.4   0.4  0.80  0.70  0.00  0.00  0.00   14.32   27.81    0.35    0.00    0.00
 2001 361    59     0     1     4.1   43.0    7826   35.1    7.9   0.4   0.3   0.6   1.6   3.4   4.5   2.4   0.0   0.0   0.0   0.1   0.2   0.4   0.4   0.4  0.79  0.69  0.00  0.00  0.00   14.45   28.09    0.35    0.00    0.00
 2001 362    60     0     1     4.1   42.6    7826   34.9    7.7   0.4   0.3   0.6   1.6   3.3   4.3   2.4   0.0   0.0   0.0   0.0   0.2   0.4   0.4   0.4  0.77  0.68  0.00  0.00  0.00   14.58   28.38    0.35    0.00    0.00
 2001 363    61     0     1     4.1   42.0    7826   34.5    7.5   0.4   0.3   0.6   1.6   3.3   4.2   2.4   0.0   0.0   0.0   0.0   0.2   0.4   0.4   0.4  0.75  0.67  0.00  0.00  0.00   14.71   28.68    0.35    0.00    0.00
 2001 364    62     0     1     4.1   41.2    7826   33.9    7.3   0.5   0.3   0.6   1.6   3.3   3.9   2.4   0.0   0.0   0.0   0.0   0.2   0.4   0.4   0.4  0.73  0.67  0.00  0.00  0.00   14.84   28.96    0.35    0.00    0.00
 2001 365    63     0     1     4.1   40.2    7826   33.1    7.1   0.0   0.2   0.5   1.9   3.4   3.7   2.4   0.0   0.0   0.0   0.1   0.2   0.4   0.3   0.4  0.70  0.66  0.00  0.00  0.00   14.99   29.24    0.35    0.00    0.00
 2002 001    64     0     1     4.1   38.0    7825   30.9    7.1   0.0   0.2   0.3   1.1   3.4   3.7   2.4   0.0   0.0   0.0   0.1   0.2   0.4   0.4   0.4  0.68  0.65  0.00  0.00  0.00   15.32   29.52    0.35    0.00    0.00
 2002 002    65     0     1     4.4   35.3    7825   28.2    7.1   0.1   0.2   0.3   0.9   2.8   3.3   2.5   0.0   0.0   0.0   0.1   0.2   0.4   0.4   0.4  0.65  0.64  0.00  0.00  0.00   15.66   29.82    0.35    0.00    0.00
 2002 003    66     0     1     4.4   33.3    7825   26.2    7.1   0.2   0.3   0.3   0.8   2.4   3.1   2.5   0.0   0.0   0.0   0.1   0.2   0.4   0.4   0.4  0.63  0.64  0.00  0.00  0.00   15.98   30.11    0.35    0.00    0.00
 2002 004    67     0     1     4.4   31.4    7824   24.4    7.1   0.1   0.3   0.3   0.6   2.1   2.8   2.5   0.0   0.0   0.0   0.1   0.3   0.4   0.4   0.4  0.62  0.63  0.00  0.00  0.00   16.28   30.38    0.35    0.00    0.00
 2002 005    68     0     1     4.4   29.8    7824   22.7    7.1   0.1   0.2   0.3   0.5   1.8   2.6   2.5   0.0   0.0   0.0   0.1   0.3   0.4   0.4   0.4  0.60  0.62  0.00  0.00  0.00   16.60   30.66    0.35    0.00    0.00
 2002 006    69     0     1     4.8   28.0    7824   20.9    7.1   0.1   0.2   0.2   0.4   1.5   2.3   2.6   0.0   0.0   0.0   0.1   0.3   0.5   0.4   0.4  0.59  0.61  0.00  0.00  0.00   16.90   30.91    0.35    0.00    0.00
 2002 007    70     0     1     6.6   25.1    7823   17.9    7.1   0.1   0.2   0.2   0.3   1.1   1.9   2.4   0.0   0.0   0.0   0.1   0.3   0.5   0.4   0.4  0.57  0.61  0.00  0.00  0.00   17.20   31.17    0.35    0.00    0.00
 2002 008    71     0     1     6.8   24.1    7823   17.0    7.1   0.2   0.2   0.3   0.3   0.9   1.7   2.4   0.0   0.0   0.0   0.1   0.3   0.5   0.4   0.4  0.56  0.60  0.00  0.00  0.00   17.50   31.44    0.35    0.00    0.00
 2002 009    72     0     1     6.8   23.5    7823   16.4    7.1   0.2   0.3   0.3   0.3   0.8   1.6   2.4   0.0   0.0   0.0   0.1   0.3   0.5   0.4   0.4  0.55  0.60  0.00  0.00  0.00   17.79   31.71    0.35    0.00    0.00
 2002 010    73     0     1     6.8   22.9    7823   15.8    7.1   0.3   0.3   0.3   0.3   0.7   1.4   2.4   0.0   0.0   0.0   0.1   0.3   0.5   0.4   0.4  0.54  0.59  0.00  0.00  0.00   18.07   31.99    0.35    0.00    0.00
 2002 011    74     0     1     6.8   22.4    7822   15.3    7.1   0.3   0.3   0.3   0.3   0.6   1.3   2.5   0.0   0.0   0.0   0.1   0.3   0.5   0.4   0.4  0.54  0.58  0.00  0.00  0.00   18.38   32.28    0.36    0.00    0.00
 2002 012    75     0     1     6.8   21.9    7822   14.8    7.1   0.3   0.3   0.3   0.3   0.5   1.2   2.5   0.0   0.0   0.0   0.1   0.3   0.5   0.4   0.4  0.53  0.58  0.00  0.00  0.00   18.68   32.60    0.36    0.00    0.00
 2002 013    76     0     1     6.8   21.4    7822   14.4    7.0   0.3   0.3   0.3   0.3   0.5   1.1   2.5   0.0   0.0   0.0   0.1   0.3   0.5   0.4   0.4  0.52  0.57  0.00  0.00  0.00   18.98   32.95    0.36    0.00    0.00
 2002 014    77     0     1     6.8   21.0    7821   14.0    6.9   0.3   0.3   0.3   0.3   0.4   1.0   2.5   0.0   0.0   0.0   0.1   0.3   0.5   0.4   0.4  0.51  0.57  0.00  0.00  0.00   19.28   33.32    0.36    0.00    0.00
 2002 015    78     0     1     6.8   20.5    7821   13.7    6.8   0.3   0.3   0.3   0.3   0.4   0.9   2.5   0.0   0.0   0.0   0.1   0.3   0.5   0.4   0.4  0.51  0.56  0.00  0.00  0.00   19.55   33.66    0.36    0.00    0.00
 2002 016    79     0     1     6.8   20.2    7821   13.5    6.7   0.3   0.3   0.3   0.3   0.3   0.8   2.5   0.0   0.0   0.0   0.1   0.3   0.5   0.4   0.4  0.50  0.55  0.00  0.00  0.00   19.76   33.97    0.36    0.00    0.00
 2002 017    80     0     1     6.8   19.9    7821   13.3    6.6   0.4   0.3   0.3   0.3   0.3   0.8   2.5   0.0   0.0   0.0   0.1   0.3   0.5   0.4   0.3  0.49  0.55  0.00  0.00  0.00   19.95   34.25    0.36    0.00    0.00
 2002 018    81     0     1     6.8   19.7    7821   13.1    6.6   0.4   0.3   0.3   0.3   0.3   0.7   2.5   0.0   0.0   0.0   0.1   0.3   0.5   0.4   0.3  0.49  0.54  0.00  0.00  0.00   20.11   34.51    0.36    0.00    0.00
 2002 019    82     0     1     6.8   19.5    7821   13.0    6.5   0.4   0.3   0.3   0.3   0.3   0.7   2.5   0.0   0.0   0.0   0.1   0.3   0.5   0.4   0.3  0.48  0.54  0.00  0.00  0.00   20.25   34.74    0.36    0.00    0.00
 2002 020    83     0     1     6.8   19.3    7820   13.0    6.4   0.4   0.3   0.3   0.3   0.3   0.7   2.5   0.0   0.0   0.0   0.0   0.2   0.5   0.4   0.3  0.48  0.53  0.00  0.00  0.00   20.38   34.97    0.36    0.00    0.00
 2002 021    84     0     1     6.8   19.3    7820   13.0    6.3   0.4   0.3   0.3   0.3   0.3   0.7   2.6   0.0   0.0   0.0   0.0   0.2   0.5   0.4   0.3  0.47  0.53  0.00  0.00  0.00   20.51   35.20    0.36    0.00    0.00
 2002 022    85     0     1     6.8   19.2    7820   13.1    6.1   0.4   0.3   0.3   0.3   0.3   0.7   2.6   0.0   0.0   0.0   0.0   0.2   0.5   0.4   0.3  0.46  0.52  0.00  0.00  0.00   20.63   35.44    0.36    0.00    0.00
 2002 023    86     0     1     6.8   19.2    7820   13.2    6.0   0.5   0.3   0.3   0.3   0.3   0.7   2.6   0.0   0.0   0.0   0.0   0.2   0.4   0.4   0.3  0.46  0.52  0.00  0.00  0.00   20.74   35.67    0.36    0.00    0.00
 2002 024    87     0     1     6.8   19.2    7820   13.3    5.9   0.5   0.3   0.3   0.3   0.3   0.7   2.6   0.0   0.0   0.0   0.0   0.2   0.4   0.4   0.3  0.45  0.51  0.00  0.00  0.00   20.86   35.91    0.36    0.00    0.00
 2002 025    88     0     1     6.8   19.2    7820   13.5    5.8   0.5   0.3   0.4   0.3   0.3   0.6   2.6   0.0   0.0   0.0   0.0   0.2   0.4   0.4   0.3  0.44  0.51  0.00  0.00  0.00   20.97   36.14    0.36    0.00    0.00
 2002 026    89     0     1     6.8   19.3    7820   13.6    5.7   0.5   0.4   0.4   0.3   0.3   0.6   2.6   0.0   0.0   0.0   0.0   0.2   0.4   0.3   0.3  0.44  0.50  0.00  0.00  0.00   21.08   36.36    0.36    0.00    0.00
 2002 027    90     0     1     6.8   19.4    7820   13.8    5.5   0.5   0.4   0.4   0.4   0.3   0.6   2.6   0.0   0.0   0.0   0.0   0.2   0.4   0.3   0.3  0.43  0.50  0.00  0.00  0.00   21.18   36.59    0.36    0.00    0.00
 2002 028    91     0     1     6.8   19.3    7819   13.8    5.5   0.3   0.4   0.4   0.4   0.3   0.6   2.6   0.0   0.0   0.0   0.1   0.2   0.4   0.3   0.3  0.42  0.49  0.00  0.00  0.00   21.32   36.82    0.36    0.00    0.00
 2002 029    92     0     1     6.8   19.4    7819   14.0    5.3   0.3   0.4   0.4   0.4   0.3   0.7   2.6   0.0   0.0   0.0   0.1   0.2   0.4   0.3   0.3  0.41  0.49  0.00  0.00  0.00   21.44   37.04    0.36    0.00    0.00
 2002 030    93     0     1     6.8   19.5    7819   14.2    5.2   0.3   0.5   0.5   0.4   0.4   0.7   2.6   0.0   0.0   0.0   0.1   0.1   0.4   0.3   0.3  0.41  0.48  0.00  0.00  0.00   21.54   37.25    0.36    0.00    0.00
 2002 031    94     0     1     6.8   19.5    7819   14.4    5.2   0.3   0.5   0.5   0.4   0.4   0.7   2.6   0.0   0.0   0.0   0.1   0.2   0.4   0.3   0.2  0.40  0.48  0.00  0.00  0.00   21.68   37.47    0.36    0.00    0.00
 2002 032    95     0     1     6.8   19.5    7819   14.5    5.1   0.3   0.4   0.5   0.4   0.4   0.7   2.7   0.0   0.0   0.0   0.1   0.2   0.4   0.3   0.2  0.39  0.47  0.00  0.00  0.00   21.81   37.69    0.36    0.00    0.00
 2002 033    96     0     1     6.8   19.6    7819   14.6    5.0   0.3   0.4   0.5   0.5   0.4   0.7   2.7   0.0   0.0   0.0   0.1   0.2   0.3   0.3   0.2  0.39  0.47  0.00  0.00  0.00   21.93   37.89    0.36    0.00    0.00
 2002 034    97     0     1     6.8   19.6    7819   14.7    4.9   0.4   0.4   0.5   0.5   0.4   0.7   2.7   0.0   0.0   0.0   0.1   0.2   0.3   0.3   0.2  0.38  0.47  0.00  0.00  0.00   22.03   38.07    0.36    0.00    0.00
 2002 035    98     0     1     6.8   19.7    7819   14.9    4.8   0.4   0.4   0.5   0.5   0.4   0.7   2.7   0.0   0.0   0.0   0.1   0.2   0.3   0.3   0.2  0.38  0.46  0.00  0.00  0.00   22.13   38.25    0.36    0.00    0.00
 2002 036    99     0     1     6.8   19.8    7819   15.0    4.8   0.3   0.4   0.6   0.5   0.4   0.7   2.7   0.0   0.0   0.0   0.0   0.1   0.3   0.3   0.2  0.37  0.46  0.00  0.00  0.00   22.23   38.42    0.36    0.00    0.00
 2002 037   100     0     1     6.8   19.8    7818   15.0    4.7   0.2   0.4   0.6   0.5   0.4   0.7   2.7   0.0   0.0   0.0   0.1   0.2   0.3   0.3   0.2  0.37  0.45  0.00  0.00  0.00   22.36   38.60    0.36    0.00    0.00
 2002 038   101     0     1     6.8   19.7    7818   15.0    4.7   0.2   0.3   0.6   0.5   0.4   0.7   2.7   0.0   0.0   0.0   0.1   0.2   0.3   0.3   0.2  0.36  0.45  0.00  0.00  0.00   22.51   38.78    0.36    0.00    0.00
 2002 039   102     0     1     6.8   19.8    7818   15.2    4.6   0.3   0.3   0.6   0.5   0.5   0.7   2.7   0.0   0.0   0.0   0.1   0.2   0.3   0.3   0.2  0.35  0.45  0.00  0.00  0.00   22.65   38.97    0.36    0.00    0.00
 2002 040   103     0     1     6.8   19.9    7818   15.3    4.6   0.1   0.2   0.7   0.5   0.5   0.7   2.7   0.0   0.0   0.0   0.1   0.2   0.3   0.2   0.2  0.35  0.44  0.00  0.00  0.00   22.79   39.15    0.36    0.00    0.00
 2002 041   104     0     1     6.8   19.7    7818   15.1    4.6   0.1   0.2   0.5   0.6   0.5   0.7   2.7   0.0   0.0   0.0   0.1   0.2   0.3   0.2   0.2  0.34  0.44  0.00  0.00  0.00   23.00   39.34    0.36    0.00    0.00
 2002 042   105     0     1     6.8   19.5    7818   14.8    4.6   0.1   0.2   0.4   0.6   0.5   0.7   2.7   0.0   0.0   0.0   0.1   0.2   0.3   0.2   0.2  0.34  0.44  0.00  0.00  0.00   23.24   39.54    0.36    0.00    0.00
 2002 043   106     0     1     6.8   19.3    7817   14.6    4.7   0.1   0.2   0.3   0.6   0.5   0.7   2.7   0.0   0.0   0.0   0.1   0.3   0.4   0.3   0.2  0.33  0.43  0.00  0.00  0.00   23.50   39.76    0.36    0.00    0.00
 2002 044   107     0     1     6.8   19.3    7817   14.5    4.7   0.2   0.3   0.3   0.5   0.5   0.7   2.8   0.0   0.0   0.0   0.1   0.3   0.4   0.3   0.2  0.33  0.43  0.00  0.00  0.00   23.79   39.99    0.36    0.00    0.00
 2002 045   108     0     1     6.8   19.3    7817   14.5    4.8   0.2   0.3   0.3   0.4   0.5   0.7   2.8   0.0   0.0   0.0   0.1   0.3   0.4   0.3   0.2  0.32  0.43  0.00  0.00  0.00   24.07   40.23    0.36    0.00    0.00
 2002 046   109     0     1     6.8   19.3    7817   14.5    4.8   0.3   0.3   0.3   0.3   0.5   0.7   2.8   0.0   0.0   0.0   0.1   0.3   0.4   0.3   0.2  0.32  0.42  0.00  0.00  0.00   24.35   40.47    0.36    0.00    0.00
 2002 047   110     0     1     6.8   19.3    7816   14.4    4.9   0.3   0.3   0.3   0.3   0.5   0.7   2.8   0.0   0.0   0.0   0.1   0.3   0.4   0.3   0.2  0.31  0.42  0.00  0.00  0.00   24.63   40.71    0.36    0.00    0.00
 2002 048   111     0     1     6.8   19.3    7816   14.4    4.9   0.3   0.3   0.3   0.3   0.5   0.8   2.8   0.0   0.0   0.0   0.1   0.3   0.4   0.3   0.2  0.31  0.42  0.00  0.00  0.00   24.88   40.94    0.36    0.00    0.00
 2002 049   112     0     1     6.8   19.4    7816   14.5    4.9   0.3   0.3   0.3   0.3   0.5   0.8   2.8   0.0   0.0   0.0   0.1   0.3   0.5   0.3   0.2  0.31  0.41  0.00  0.00  0.00   25.12   41.16    0.36    0.00    0.00
 2002 050   113     0     1     6.8   19.4    7816   14.5    4.9   0.2   0.4   0.3   0.3   0.5   0.8   2.8   0.0   0.0   0.0   0.1   0.3   0.5   0.3   0.2  0.30  0.41  0.00  0.00  0.00   25.34   41.37    0.36    0.00    0.00
 2002 051   114     0     1     6.8   19.4    7815   14.4    5.0   0.2   0.3   0.3   0.3   0.5   0.8   2.8   0.0   0.0   0.0   0.1   0.3   0.5   0.3   0.2  0.30  0.41  0.00  0.00  0.00   25.59   41.59    0.36    0.00    0.00
 2002 052   115     0     1     6.8   19.5    7815   14.5    5.0   0.2   0.3   0.3   0.3   0.5   0.8   2.8   0.0   0.0   0.0   0.1   0.3   0.5   0.3   0.2  0.29  0.40  0.00  0.00  0.00   25.85   41.82    0.36    0.00    0.00
 2002 053   116     0     1     6.8   19.5    7815   14.5    5.0   0.2   0.3   0.3   0.3   0.5   0.8   2.8   0.0   0.0   0.0   0.1   0.4   0.5   0.3   0.2  0.29  0.40  0.00  0.00  0.00   26.12   42.05    0.36    0.00    0.00
 2002 054   117     0     1     6.8   19.6    7815   14.5    5.0   0.2   0.3   0.3   0.3   0.5   0.7   2.8   0.0   0.0   0.0   0.1   0.4   0.5   0.3   0.2  0.28  0.40  0.00  0.00  0.00   26.38   42.29    0.36    0.00    0.00
 2002 055   118     0     1     6.8   19.6    7815   14.6    5.1   0.3   0.3   0.3   0.3   0.5   0.7   2.8   0.0   0.0   0.0   0.1   0.4   0.5   0.3   0.2  0.28  0.39  0.00  0.00  0.00   26.62   42.51    0.36    0.00    0.00
 2002 056   119     0     1     6.8   19.7    7814   14.6    5.1   0.3   0.3   0.3   0.3   0.5   0.7   2.8   0.0   0.0   0.0   0.1   0.4   0.5   0.3   0.2  0.28  0.39  0.00  0.00  0.00   26.86   42.73    0.36    0.00    0.00
 2002 057   120     0     1     6.8   19.7    7814   14.7    5.1   0.3   0.3   0.3   0.3   0.5   0.7   2.9   0.0   0.0   0.0   0.1   0.4   0.5   0.3   0.1  0.27  0.39  0.00  0.00  0.00   27.11   42.97    0.36    0.00    0.00
 2002 058   121     0     1     6.8   20.0    7814   14.9    5.1   0.3   0.4   0.3   0.3   0.6   0.7   2.9   0.0   0.0   0.0   0.1   0.4   0.5   0.3   0.1  0.27  0.39  0.00  0.00  0.00   27.37   43.23    0.36    0.00    0.00
 2002 059   122     0     1     6.8   20.2    7814   15.2    5.0   0.1   0.4   0.4   0.3   0.6   0.8   2.9   0.0   0.0   0.0   0.1   0.4   0.6   0.3   0.1  0.27  0.38  0.00  0.00  0.00   27.63   43.51    0.36    0.00    0.00

*DSSAT Cropping System Model Ver. 4.0.2.000               Aug 16, 2016; 17:55:43

*RUN   3        : UYMZ                    
 MODEL          : MZCER040 - Maize           
 EXPERIMENT     : UYMZ0214 MZ    late to create DSS                             
 TREATMENT  1   : UYMZ                    

@YEAR DOY   DAS  NAPC  NI#M    NLCC   NIAD    NOAD   NITD   NHTD  NI1D  NI2D  NI3D  NI4D  NI5D  NI6D  NI7D  NI8D  NI9D  NI10  NH1D  NH2D  NH3D  NH4D  NH5D  NH6D  NH7D  NH8D  NH9D  NH10    NMNC    NITC    NDNC    NIMC    AMLC
 2002 302     0     0     0     0.0   86.4    7840   64.2   22.2  15.6  15.2   8.5   4.9   0.1   0.0   0.0   0.0   0.0   0.0   0.9   1.4   1.5   1.5   1.5  1.48  1.48  0.00  0.00  0.00    0.25    1.17    0.00    0.00    0.00
 2002 303     1     0     0     0.0   86.7    7840   65.0   21.6  15.8  15.3   8.5   5.0   0.1   0.1   0.1   0.0   0.0   0.0   0.8   1.3   1.4   1.4   1.4  1.46  1.46  0.00  0.00  0.00    0.50    1.99    0.00    0.00    0.00
 2002 304     2     0     0     0.0   86.9    7840   65.8   21.1  15.9  15.4   8.6   5.0   0.1   0.1   0.1   0.0   0.0   0.0   0.7   1.2   1.4   1.4   1.4  1.44  1.44  0.00  0.00  0.00    0.75    2.77    0.00    0.00    0.00
 2002 305     3     0     1     0.0   87.2    7839   66.6   20.6  16.1  15.5   8.6   5.1   0.2   0.1   0.1   0.0   0.0   0.0   0.6   1.1   1.4   1.4   1.4  1.42  1.42  0.00  0.00  0.00    1.00    3.54    0.00    0.00    0.00
 2002 306     4     0     1     0.0   87.4    7839   67.3   20.1  16.2  15.7   8.7   5.1   0.2   0.1   0.1   0.0   0.0   0.0   0.5   1.1   1.4   1.4   1.3  1.41  1.40  0.00  0.00  0.00    1.27    4.30    0.00    0.00    0.00
 2002 307     5     0     1     0.0   87.7    7839   68.1   19.6  16.4  15.8   8.7   5.1   0.3   0.2   0.2   0.0   0.0   0.0   0.4   1.0   1.3   1.3   1.3  1.39  1.38  0.00  0.00  0.00    1.54    5.09    0.00    0.00    0.00
 2002 308     6     0     1     0.0   88.0    7839   68.9   19.1  16.5  15.9   8.8   5.2   0.3   0.2   0.2   0.0   0.0   0.0   0.3   0.9   1.3   1.3   1.3  1.37  1.36  0.00  0.00  0.00    1.83    5.84    0.00    0.00    0.00
 2002 309     7     0     1     0.0   88.3    7838   69.6   18.7  16.6  16.0   8.9   5.2   0.4   0.2   0.2   0.0   0.0   0.0   0.3   0.9   1.3   1.3   1.2  1.35  1.34  0.00  0.00  0.00    2.11    6.53    0.00    0.00    0.00
 2002 310     8     0     1     0.0   88.5    7838   70.2   18.3  16.7  16.1   8.9   5.3   0.4   0.2   0.2   0.0   0.0   0.0   0.3   0.8   1.3   1.2   1.2  1.33  1.32  0.00  0.00  0.00    2.37    7.16    0.00    0.00    0.00
 2002 311     9     0     1     0.0   88.8    7838   70.8   18.0   7.7  20.7   9.0   5.3   0.4   0.3   0.2   0.0   0.0   0.0   0.3   0.8   1.2   1.2   1.2  1.32  1.31  0.00  0.00  0.00    2.63    7.76    0.00    0.00    0.00
 2002 312    10     0     1     0.0   89.0    7838   71.4   17.6   2.3  10.4  12.1   9.5   1.7   0.3   0.3   0.0   0.0   0.0   0.2   0.7   1.2   1.2   1.2  1.30  1.29  0.00  0.00  0.00    2.88    8.38    0.00    0.00    0.00
 2002 313    11     0     1     0.1   89.2    7837   71.9   17.4   1.7   8.5  11.0  10.1   3.2   0.6   0.3   0.0   0.0   0.0   0.2   0.7   1.2   1.2   1.1  1.29  1.27  0.00  0.00  0.00    3.13    8.92    0.00    0.00    0.00
 2002 314    12     0     1     0.2   89.4    7837   72.3   17.1   1.2   7.2  10.2  10.2   4.4   1.0   0.4   0.0   0.0   0.0   0.1   0.7   1.2   1.2   1.1  1.27  1.25  0.00  0.00  0.00    3.39    9.46    0.00    0.00    0.00
 2002 315    13     0     1     0.3   89.5    7837   72.7   16.8   1.2   6.5   9.5  10.0   5.2   1.4   0.5   0.0   0.0   0.0   0.1   0.7   1.2   1.1   1.1  1.26  1.24  0.00  0.00  0.00    3.65    9.96    0.00    0.00    0.00
 2002 316    14     0     1     0.9   89.2    7837   72.6   16.6   1.2   6.3   9.0   9.5   5.5   1.8   0.7   0.0   0.0   0.0   0.1   0.6   1.1   1.1   1.1  1.25  1.22  0.00  0.00  0.00    3.89   10.44    0.00    0.00    0.00
 2002 317    15     0     1     1.1   89.2    7836   72.8   16.4   1.3   6.2   8.8   9.3   5.6   2.0   0.8   0.0   0.0   0.0   0.1   0.6   1.1   1.1   1.1  1.24  1.21  0.00  0.00  0.00    4.14   10.90    0.02    0.00    0.00
 2002 318    16     0     1     1.2   89.4    7836   73.2   16.1   0.4   5.4   8.8   9.6   6.0   2.1   0.9   0.0   0.0   0.0   0.1   0.6   1.1   1.1   1.1  1.23  1.19  0.00  0.00  0.00    4.41   11.41    0.03    0.00    0.00
 2002 319    17     0     1     1.8   88.8    7836   72.9   15.9   0.4   4.5   8.0   9.2   6.6   2.6   1.1   0.0   0.0   0.0   0.1   0.6   1.1   1.1   1.1  1.21  1.18  0.00  0.00  0.00    4.69   11.96    0.06    0.00    0.00
 2002 320    18     0     1     2.0   88.9    7835   73.3   15.6   0.5   4.4   7.8   9.2   6.7   2.8   1.2   0.0   0.0   0.0   0.1   0.5   1.1   1.0   1.0  1.20  1.16  0.00  0.00  0.00    5.00   12.55    0.07    0.00    0.00
 2002 321    19     0     1     2.0   89.2    7835   73.9   15.3   0.5   4.4   7.9   9.2   6.7   2.8   1.2   0.0   0.0   0.0   0.1   0.5   1.1   1.0   1.0  1.19  1.14  0.00  0.00  0.00    5.31   13.16    0.07    0.00    0.00
 2002 322    20     0     1     2.0   89.5    7835   74.5   15.0   0.6   4.5   7.9   9.2   6.8   2.8   1.2   0.0   0.0   0.0   0.1   0.5   1.0   1.0   1.0  1.17  1.13  0.00  0.00  0.00    5.63   13.76    0.08    0.00    0.00
 2002 323    21     0     1     2.0   89.7    7835   74.9   14.7   0.6   4.5   8.0   9.3   6.8   2.8   1.2   0.0   0.0   0.0   0.1   0.5   1.0   1.0   1.0  1.16  1.11  0.00  0.00  0.00    5.93   14.33    0.08    0.00    0.00
 2002 324    22     0     1     2.0   89.8    7834   75.3   14.5   0.7   4.5   8.0   9.3   6.8   2.9   1.3   0.0   0.0   0.0   0.1   0.5   1.0   1.0   1.0  1.15  1.10  0.00  0.00  0.00    6.24   14.87    0.08    0.00    0.00
 2002 325    23     0     1     2.0   89.7    7834   75.4   14.3   0.7   4.4   8.0   9.4   6.9   2.9   1.3   0.0   0.0   0.0   0.1   0.4   1.0   0.9   0.9  1.13  1.08  0.00  0.00  0.00    6.54   15.40    0.09    0.00    0.00
 2002 326    24     0     1     2.0   89.2    7834   75.2   14.0   0.7   4.1   7.9   9.4   6.9   2.9   1.3   0.0   0.0   0.0   0.1   0.4   1.0   0.9   0.9  1.12  1.07  0.00  0.00  0.00    6.82   15.88    0.09    0.00    0.00
 2002 327    25     0     1     2.0   88.9    7833   75.1   13.8   0.8   4.0   7.8   9.5   6.9   2.9   1.3   0.0   0.0   0.0   0.1   0.4   0.9   0.9   0.9  1.11  1.05  0.00  0.00  0.00    7.10   16.34    0.09    0.00    0.00
 2002 328    26     0     1     2.0   88.5    7833   74.9   13.6   0.8   3.8   7.7   9.5   7.0   2.9   1.3   0.0   0.0   0.0   0.1   0.4   0.9   0.9   0.9  1.10  1.04  0.00  0.00  0.00    7.38   16.82    0.10    0.00    0.00
 2002 329    27     0     1     2.1   87.8    7833   74.4   13.4   0.2   2.8   7.4   9.8   7.3   3.1   1.4   0.0   0.0   0.0   0.1   0.4   0.9   0.9   0.9  1.08  1.02  0.00  0.00  0.00    7.66   17.30    0.10    0.00    0.00
 2002 330    28     0     1     2.3   87.1    7832   73.9   13.2   0.1   1.9   6.3   9.8   8.0   3.5   1.5   0.0   0.0   0.0   0.1   0.4   0.9   0.9   0.9  1.07  1.01  0.00  0.00  0.00    7.98   17.77    0.12    0.00    0.00
 2002 331    29     0     1     2.6   85.4    7832   72.4   13.0   0.2   1.4   5.2   9.3   8.4   3.9   1.7   0.0   0.0   0.0   0.1   0.4   0.8   0.9   0.9  1.06  1.00  0.00  0.00  0.00    8.31   18.26    0.15    0.00    0.00
 2002 332    30     0     1     3.9   83.4    7832   70.6   12.8   0.2   1.2   4.6   8.6   8.2   4.2   2.0   0.0   0.0   0.0   0.1   0.4   0.8   0.8   0.8  1.05  0.98  0.00  0.00  0.00    8.62   18.72    0.20    0.00    0.00
 2002 333    31     0     1     4.1   81.5    7832   69.0   12.6   0.3   0.9   4.0   8.4   8.2   4.3   2.1   0.0   0.0   0.0   0.1   0.4   0.8   0.8   0.8  1.04  0.97  0.00  0.00  0.00    8.90   19.15    0.21    0.00    0.00
 2002 334    32     0     1     4.3   79.6    7831   67.2   12.4   0.2   0.6   3.3   8.4   8.2   4.4   2.1   0.0   0.0   0.0   0.1   0.4   0.7   0.8   0.8  1.03  0.96  0.00  0.00  0.00    9.19   19.56    0.22    0.00    0.00
 2002 335    33     0     1     4.5   77.9    7831   65.7   12.2   0.2   0.4   2.8   8.3   8.1   4.4   2.2   0.0   0.0   0.0   0.1   0.4   0.7   0.8   0.8  1.02  0.95  0.00  0.00  0.00    9.49   19.97    0.23    0.00    0.00
 2002 336    34     0     1     4.5   76.5    7831   64.5   12.0   0.3   0.4   2.5   8.0   8.2   4.4   2.2   0.0   0.0   0.0   0.1   0.4   0.7   0.8   0.8  1.01  0.93  0.00  0.00  0.00    9.76   20.35    0.23    0.00    0.00
 2002 337    35     0     1     4.5   74.2    7830   62.5   11.8   0.3   0.3   2.2   7.3   8.2   4.4   2.2   0.0   0.0   0.0   0.1   0.4   0.6   0.8   0.8  1.00  0.92  0.00  0.00  0.00   10.02   20.72    0.24    0.00    0.00
 2002 338    36     0     1     4.5   72.3    7830   60.8   11.6   0.3   0.3   2.0   6.7   8.2   4.4   2.2   0.0   0.0   0.0   0.1   0.4   0.6   0.7   0.8  0.99  0.91  0.00  0.00  0.00   10.29   21.10    0.24    0.00    0.00
 2002 339    37     0     1     4.5   71.4    7830   60.0   11.4   0.3   0.3   1.9   6.4   8.2   4.5   2.2   0.0   0.0   0.0   0.1   0.4   0.6   0.7   0.8  0.98  0.90  0.00  0.00  0.00   10.55   21.47    0.24    0.00    0.00
 2002 340    38     0     1     4.5   68.7    7830   57.5   11.2   0.4   0.3   1.6   5.5   8.2   4.5   2.3   0.0   0.0   0.0   0.1   0.4   0.6   0.7   0.8  0.97  0.89  0.00  0.00  0.00   10.82   21.84    0.24    0.00    0.00
 2002 341    39     0     1     4.5   65.8    7829   54.9   11.0   0.4   0.3   1.3   4.6   8.3   4.5   2.3   0.0   0.0   0.0   0.1   0.4   0.6   0.6   0.8  0.96  0.88  0.00  0.00  0.00   11.07   22.22    0.25    0.00    0.00
 2002 342    40     0     1     4.5   63.5    7829   52.8   10.7   0.4   0.3   1.1   3.7   8.3   4.5   2.3   0.0   0.0   0.0   0.1   0.4   0.6   0.6   0.7  0.95  0.87  0.00  0.00  0.00   11.32   22.59    0.25    0.00    0.00
 2002 343    41     0     1     4.5   61.6    7829   51.1   10.6   0.4   0.3   1.0   3.1   8.3   4.5   2.3   0.0   0.0   0.0   0.1   0.4   0.5   0.6   0.7  0.94  0.85  0.00  0.00  0.00   11.54   22.93    0.25    0.00    0.00
 2002 344    42     0     1     4.5   60.3    7829   49.9   10.4   0.4   0.3   0.9   2.6   8.3   4.5   2.3   0.0   0.0   0.0   0.1   0.3   0.5   0.6   0.7  0.93  0.84  0.00  0.00  0.00   11.75   23.27    0.25    0.00    0.00
 2002 345    43     0     1     4.5   59.3    7829   49.1   10.2   0.5   0.3   0.8   2.3   8.4   4.5   2.3   0.0   0.0   0.0   0.1   0.3   0.5   0.6   0.7  0.92  0.83  0.00  0.00  0.00   11.95   23.59    0.25    0.00    0.00
 2002 346    44     0     1     4.5   57.7    7828   47.6   10.1   0.5   0.3   0.7   2.0   8.0   4.6   2.3   0.0   0.0   0.0   0.1   0.3   0.5   0.5   0.7  0.92  0.82  0.00  0.00  0.00   12.13   23.90    0.26    0.00    0.00
 2002 347    45     0     1     4.5   54.5    7828   44.7    9.8   0.5   0.3   0.7   1.9   6.9   4.6   2.4   0.0   0.0   0.0   0.1   0.3   0.5   0.5   0.7  0.91  0.81  0.00  0.00  0.00   12.29   24.20    0.26    0.00    0.00
 2002 348    46     0     1     4.5   51.8    7828   42.2    9.6   0.5   0.3   0.6   1.8   5.9   4.6   2.4   0.0   0.0   0.0   0.1   0.3   0.5   0.5   0.6  0.90  0.80  0.00  0.00  0.00   12.46   24.50    0.26    0.00    0.00
 2002 349    47     0     1     4.5   49.6    7828   40.2    9.5   0.5   0.3   0.6   1.7   5.1   4.6   2.4   0.0   0.0   0.0   0.1   0.3   0.5   0.5   0.6  0.89  0.79  0.00  0.00  0.00   12.61   24.79    0.26    0.00    0.00
 2002 350    48     0     1     4.5   48.0    7828   38.7    9.3   0.3   0.3   0.6   1.6   4.6   4.6   2.4   0.0   0.0   0.0   0.1   0.3   0.5   0.5   0.6  0.88  0.78  0.00  0.00  0.00   12.78   25.10    0.26    0.00    0.00
 2002 351    49     0     1     4.5   46.9    7828   37.8    9.1   0.3   0.3   0.6   1.6   4.2   4.6   2.4   0.0   0.0   0.0   0.1   0.3   0.5   0.5   0.5  0.87  0.78  0.00  0.00  0.00   12.95   25.43    0.26    0.00    0.00
 2002 352    50     0     1     4.5   46.1    7827   37.1    9.0   0.2   0.4   0.6   1.6   3.9   4.6   2.4   0.0   0.0   0.0   0.1   0.2   0.5   0.5   0.5  0.86  0.77  0.00  0.00  0.00   13.10   25.74    0.26    0.00    0.00
 2002 353    51     0     1     4.5   45.5    7827   36.6    8.8   0.2   0.3   0.6   1.5   3.6   4.7   2.4   0.0   0.0   0.0   0.1   0.3   0.5   0.5   0.5  0.86  0.76  0.00  0.00  0.00   13.31   26.06    0.26    0.00    0.00
 2002 354    52     0     1     4.5   45.0    7827   36.3    8.7   0.3   0.3   0.6   1.5   3.4   4.7   2.5   0.0   0.0   0.0   0.1   0.3   0.4   0.4   0.5  0.85  0.75  0.00  0.00  0.00   13.50   26.39    0.26    0.00    0.00
 2002 355    53     0     1     4.5   44.6    7827   36.0    8.5   0.3   0.3   0.6   1.5   3.3   4.7   2.5   0.0   0.0   0.0   0.1   0.3   0.4   0.4   0.5  0.84  0.74  0.00  0.00  0.00   13.65   26.71    0.26    0.00    0.00
 2002 356    54     0     1     4.5   44.3    7827   35.9    8.4   0.1   0.2   0.7   1.7   3.1   4.7   2.5   0.0   0.0   0.0   0.1   0.2   0.4   0.4   0.5  0.83  0.73  0.00  0.00  0.00   13.78   27.00    0.26    0.00    0.00
 2002 357    55     0     1     4.5   43.5    7826   35.1    8.4   0.1   0.2   0.4   1.7   3.0   4.7   2.5   0.0   0.0   0.0   0.1   0.3   0.4   0.4   0.5  0.82  0.72  0.00  0.00  0.00   14.05   27.28    0.26    0.00    0.00
 2002 358    56     0     1     4.5   42.4    7826   34.1    8.3   0.1   0.2   0.3   1.4   2.9   4.7   2.5   0.0   0.0   0.0   0.1   0.3   0.5   0.4   0.5  0.80  0.71  0.00  0.00  0.00   14.33   27.58    0.26    0.00    0.00
 2002 359    57     0     1     4.5   40.6    7826   32.3    8.2   0.2   0.2   0.3   1.2   2.8   4.4   2.5   0.0   0.0   0.0   0.1   0.3   0.5   0.4   0.4  0.78  0.70  0.00  0.00  0.00   14.61   27.88    0.26    0.00    0.00
 2002 360    58     0     1     4.5   38.7    7826   30.6    8.1   0.2   0.3   0.3   1.0   2.7   4.0   2.5   0.0   0.0   0.0   0.1   0.3   0.5   0.4   0.4  0.74  0.70  0.00  0.00  0.00   14.86   28.18    0.26    0.00    0.00
 2002 361    59     0     1     4.5   37.0    7825   29.0    8.0   0.1   0.3   0.3   0.9   2.6   3.6   2.5   0.0   0.0   0.0   0.1   0.3   0.5   0.4   0.4  0.71  0.69  0.00  0.00  0.00   15.09   28.47    0.26    0.00    0.00
 2002 362    60     0     1     4.5   35.4    7825   27.5    7.9   0.2   0.3   0.3   0.8   2.5   3.3   2.6   0.0   0.0   0.0   0.1   0.3   0.5   0.4   0.4  0.69  0.68  0.00  0.00  0.00   15.37   28.80    0.26    0.00    0.00
 2002 363    61     0     1     4.5   34.0    7825   26.3    7.7   0.1   0.1   0.2   0.6   2.6   3.1   2.6   0.0   0.0   0.0   0.1   0.3   0.5   0.4   0.4  0.66  0.67  0.00  0.00  0.00   15.66   29.16    0.26    0.00    0.00
 2002 364    62     0     1     4.9   31.9    7825   24.1    7.7   0.1   0.1   0.2   0.4   2.0   2.9   2.7   0.0   0.0   0.0   0.1   0.3   0.5   0.4   0.4  0.64  0.66  0.00  0.00  0.00   16.01   29.48    0.26    0.00    0.00
 2002 365    63     0     1     7.6   27.7    7824   20.0    7.7   0.2   0.2   0.2   0.3   1.3   2.3   2.6   0.0   0.0   0.0   0.1   0.3   0.5   0.4   0.4  0.62  0.66  0.00  0.00  0.00   16.34   29.79    0.27    0.00    0.00
 2003 001    64     0     1     8.3   26.1    7824   18.4    7.7   0.2   0.2   0.2   0.3   1.0   2.0   2.5   0.0   0.0   0.0   0.1   0.3   0.5   0.4   0.4  0.61  0.65  0.00  0.00  0.00   16.65   30.10    0.27    0.00    0.00
 2003 002    65     0     1     8.3   25.4    7824   17.8    7.6   0.3   0.3   0.2   0.3   0.9   1.8   2.5   0.0   0.0   0.0   0.1   0.4   0.5   0.4   0.4  0.59  0.64  0.00  0.00  0.00   16.93   30.39    0.27    0.00    0.00
 2003 003    66     0     1     8.3   24.7    7823   17.1    7.6   0.3   0.3   0.3   0.3   0.8   1.6   2.5   0.0   0.0   0.0   0.1   0.4   0.5   0.5   0.4  0.58  0.64  0.00  0.00  0.00   17.20   30.67    0.27    0.00    0.00
 2003 004    67     0     1     8.3   24.0    7823   16.4    7.5   0.3   0.3   0.3   0.3   0.7   1.5   2.6   0.0   0.0   0.0   0.1   0.4   0.5   0.5   0.4  0.57  0.63  0.00  0.00  0.00   17.48   30.96    0.27    0.00    0.00
 2003 005    68     0     1     8.3   23.4    7823   15.9    7.5   0.3   0.3   0.3   0.3   0.6   1.4   2.6   0.0   0.0   0.0   0.1   0.4   0.5   0.5   0.4  0.56  0.62  0.00  0.00  0.00   17.75   31.25    0.27    0.00    0.00
 2003 006    69     0     1     8.3   22.8    7823   15.4    7.4   0.3   0.3   0.3   0.3   0.5   1.3   2.6   0.0   0.0   0.0   0.1   0.3   0.5   0.5   0.4  0.55  0.62  0.00  0.00  0.00   18.00   31.56    0.27    0.00    0.00
 2003 007    70     0     1     8.3   22.3    7822   15.0    7.3   0.4   0.3   0.3   0.3   0.5   1.1   2.6   0.0   0.0   0.0   0.1   0.3   0.5   0.5   0.4  0.54  0.61  0.00  0.00  0.00   18.23   31.88    0.27    0.00    0.00
 2003 008    71     0     1     8.3   21.8    7822   14.6    7.1   0.4   0.3   0.3   0.3   0.4   1.1   2.6   0.0   0.0   0.0   0.1   0.3   0.5   0.5   0.4  0.53  0.60  0.00  0.00  0.00   18.43   32.19    0.27    0.00    0.00
 2003 009    72     0     1     8.3   21.4    7822   14.4    7.0   0.4   0.3   0.3   0.3   0.4   1.0   2.6   0.0   0.0   0.0   0.1   0.3   0.5   0.4   0.4  0.52  0.60  0.00  0.00  0.00   18.63   32.50    0.27    0.00    0.00
 2003 010    73     0     1     8.3   21.0    7822   14.1    6.9   0.2   0.3   0.3   0.3   0.4   0.9   2.6   0.0   0.0   0.0   0.1   0.3   0.5   0.4   0.4  0.51  0.59  0.00  0.00  0.00   18.83   32.81    0.27    0.00    0.00
 2003 011    74     0     1     8.3   20.8    7822   14.0    6.8   0.3   0.3   0.3   0.3   0.4   0.9   2.6   0.0   0.0   0.0   0.1   0.3   0.5   0.4   0.4  0.50  0.58  0.00  0.00  0.00   19.02   33.13    0.27    0.00    0.00
 2003 012    75     0     1     8.3   20.6    7821   14.0    6.7   0.3   0.3   0.3   0.3   0.3   0.9   2.6   0.0   0.0   0.0   0.1   0.3   0.5   0.4   0.3  0.49  0.58  0.00  0.00  0.00   19.18   33.41    0.27    0.00    0.00
 2003 013    76     0     1     8.3   20.5    7821   14.0    6.5   0.3   0.3   0.3   0.3   0.3   0.8   2.7   0.0   0.0   0.0   0.1   0.2   0.5   0.4   0.3  0.49  0.57  0.00  0.00  0.00   19.31   33.68    0.27    0.00    0.00
 2003 014    77     0     1     8.3   20.4    7821   14.0    6.4   0.4   0.3   0.3   0.3   0.3   0.8   2.7   0.0   0.0   0.0   0.1   0.2   0.4   0.4   0.3  0.48  0.57  0.00  0.00  0.00   19.44   33.94    0.27    0.00    0.00
 2003 015    78     0     1     8.3   20.4    7821   14.1    6.2   0.4   0.3   0.3   0.3   0.3   0.8   2.7   0.0   0.0   0.0   0.0   0.2   0.4   0.4   0.3  0.47  0.56  0.00  0.00  0.00   19.56   34.20    0.27    0.00    0.00
 2003 016    79     0     1     8.3   20.4    7821   14.3    6.1   0.4   0.3   0.4   0.3   0.4   0.8   2.7   0.0   0.0   0.0   0.0   0.2   0.4   0.4   0.3  0.46  0.55  0.00  0.00  0.00   19.68   34.46    0.27    0.00    0.00
 2003 017    80     0     1     8.3   20.4    7821   14.4    6.0   0.4   0.4   0.4   0.3   0.4   0.8   2.7   0.0   0.0   0.0   0.0   0.2   0.4   0.4   0.3  0.46  0.55  0.00  0.00  0.00   19.80   34.72    0.27    0.00    0.00
 2003 018    81     0     1     8.3   20.4    7821   14.6    5.8   0.4   0.4   0.4   0.4   0.4   0.8   2.7   0.0   0.0   0.0   0.0   0.2   0.4   0.4   0.3  0.45  0.54  0.00  0.00  0.00   19.91   34.98    0.27    0.00    0.00
 2003 019    82     0     1     8.3   20.5    7821   14.8    5.7   0.3   0.5   0.4   0.4   0.4   0.8   2.7   0.0   0.0   0.0   0.0   0.2   0.4   0.3   0.3  0.44  0.54  0.00  0.00  0.00   20.03   35.22    0.27    0.00    0.00
 2003 020    83     0     1     8.3   20.4    7820   14.8    5.6   0.3   0.4   0.4   0.4   0.4   0.8   2.7   0.0   0.0   0.0   0.1   0.2   0.4   0.3   0.3  0.43  0.53  0.00  0.00  0.00   20.18   35.44    0.27    0.00    0.00
 2003 021    84     0     1     8.3   20.4    7820   14.8    5.5   0.2   0.4   0.5   0.4   0.4   0.8   2.7   0.0   0.0   0.0   0.1   0.2   0.4   0.3   0.3  0.43  0.53  0.00  0.00  0.00   20.32   35.67    0.27    0.00    0.00
 2003 022    85     0     1     8.3   20.3    7820   14.9    5.5   0.2   0.3   0.5   0.4   0.4   0.8   2.7   0.0   0.0   0.0   0.1   0.2   0.4   0.3   0.3  0.42  0.52  0.00  0.00  0.00   20.48   35.89    0.27    0.00    0.00
 2003 023    86     0     1     8.3   20.4    7820   15.0    5.4   0.3   0.3   0.5   0.4   0.4   0.8   2.8   0.0   0.0   0.0   0.1   0.2   0.4   0.3   0.3  0.41  0.52  0.00  0.00  0.00   20.64   36.10    0.27    0.00    0.00
 2003 024    87     0     1     8.3   20.5    7820   15.2    5.3   0.3   0.3   0.5   0.5   0.4   0.8   2.8   0.0   0.0   0.0   0.1   0.2   0.4   0.3   0.2  0.41  0.51  0.00  0.00  0.00   20.77   36.31    0.27    0.00    0.00
 2003 025    88     0     1     8.3   20.6    7820   15.3    5.3   0.3   0.3   0.5   0.5   0.4   0.8   2.8   0.0   0.0   0.0   0.1   0.2   0.3   0.3   0.2  0.40  0.51  0.00  0.00  0.00   20.87   36.51    0.27    0.00    0.00
 2003 026    89     0     1     8.3   20.6    7820   15.5    5.2   0.3   0.3   0.5   0.5   0.5   0.8   2.8   0.0   0.0   0.0   0.1   0.2   0.3   0.3   0.2  0.40  0.50  0.00  0.00  0.00   20.98   36.70    0.27    0.00    0.00
 2003 027    90     0     1     8.3   20.7    7819   15.6    5.1   0.4   0.3   0.5   0.5   0.5   0.8   2.8   0.0   0.0   0.0   0.1   0.2   0.3   0.3   0.2  0.39  0.50  0.00  0.00  0.00   21.08   36.89    0.27    0.00    0.00
 2003 028    91     0     1     8.3   20.8    7819   15.8    5.0   0.4   0.3   0.6   0.5   0.5   0.8   2.8   0.0   0.0   0.0   0.1   0.2   0.3   0.3   0.2  0.38  0.49  0.00  0.00  0.00   21.18   37.09    0.27    0.00    0.00
 2003 029    92     0     1     8.3   20.9    7819   16.0    4.9   0.4   0.3   0.6   0.5   0.5   0.8   2.8   0.0   0.0   0.0   0.0   0.2   0.3   0.3   0.2  0.38  0.49  0.00  0.00  0.00   21.29   37.30    0.27    0.00    0.00
 2003 030    93     0     1     8.3   21.0    7819   16.2    4.8   0.4   0.3   0.6   0.5   0.5   0.8   2.8   0.0   0.0   0.0   0.0   0.2   0.3   0.3   0.2  0.37  0.48  0.00  0.00  0.00   21.41   37.51    0.27    0.00    0.00
 2003 031    94     0     1     8.3   21.1    7819   16.4    4.7   0.2   0.4   0.6   0.5   0.5   0.8   2.8   0.0   0.0   0.0   0.0   0.2   0.3   0.3   0.2  0.36  0.48  0.00  0.00  0.00   21.52   37.72    0.27    0.00    0.00
 2003 032    95     0     1     8.3   21.0    7819   16.4    4.6   0.2   0.4   0.6   0.6   0.5   0.8   2.8   0.0   0.0   0.0   0.1   0.2   0.3   0.2   0.2  0.36  0.47  0.00  0.00  0.00   21.70   37.96    0.27    0.00    0.00
 2003 033    96     0     1     8.3   21.1    7819   16.5    4.6   0.1   0.2   0.8   0.6   0.5   0.8   2.9   0.0   0.0   0.0   0.1   0.2   0.3   0.2   0.2  0.35  0.47  0.00  0.00  0.00   21.90   38.22    0.27    0.00    0.00
 2003 034    97     0     1     8.3   20.9    7818   16.4    4.6   0.2   0.2   0.6   0.6   0.6   0.9   2.9   0.0   0.0   0.0   0.1   0.2   0.3   0.2   0.2  0.35  0.46  0.00  0.00  0.00   22.16   38.47    0.27    0.00    0.00
 2003 035    98     0     1     8.3   20.8    7818   16.2    4.6   0.2   0.3   0.5   0.6   0.6   0.9   2.9   0.0   0.0   0.0   0.1   0.2   0.3   0.2   0.2  0.34  0.46  0.00  0.00  0.00   22.41   38.73    0.27    0.00    0.00
 2003 036    99     0     1     8.3   20.7    7818   16.2    4.6   0.3   0.3   0.4   0.6   0.6   0.9   2.9   0.0   0.0   0.0   0.1   0.2   0.3   0.2   0.2  0.33  0.46  0.00  0.00  0.00   22.64   38.97    0.27    0.00    0.00
 2003 037   100     0     1     8.3   20.6    7818   16.1    4.6   0.3   0.3   0.3   0.6   0.6   0.9   2.9   0.0   0.0   0.0   0.1   0.3   0.3   0.2   0.2  0.33  0.45  0.00  0.00  0.00   22.87   39.18    0.27    0.00    0.00
 2003 038   101     0     1     8.3   20.6    7817   16.0    4.6   0.3   0.3   0.3   0.6   0.6   0.9   2.9   0.0   0.0   0.0   0.1   0.3   0.3   0.2   0.2  0.32  0.45  0.00  0.00  0.00   23.08   39.39    0.27    0.00    0.00
 2003 039   102     0     1     8.3   20.6    7817   16.1    4.6   0.4   0.3   0.3   0.6   0.6   0.9   2.9   0.0   0.0   0.0   0.1   0.3   0.4   0.2   0.2  0.32  0.44  0.00  0.00  0.00   23.28   39.59    0.27    0.00    0.00
 2003 040   103     0     1     8.3   20.7    7817   16.1    4.6   0.4   0.3   0.3   0.6   0.6   0.9   2.9   0.0   0.0   0.0   0.1   0.3   0.4   0.2   0.2  0.31  0.44  0.00  0.00  0.00   23.47   39.80    0.27    0.00    0.00
 2003 041   104     0     1     8.3   20.7    7817   16.1    4.5   0.4   0.3   0.3   0.6   0.6   0.9   2.9   0.0   0.0   0.0   0.1   0.3   0.4   0.2   0.2  0.31  0.44  0.00  0.00  0.00   23.65   40.02    0.27    0.00    0.00
 2003 042   105     0     1     8.3   20.6    7817   16.2    4.5   0.1   0.3   0.3   0.5   0.6   0.9   2.9   0.0   0.0   0.0   0.0   0.3   0.4   0.2   0.2  0.30  0.43  0.00  0.00  0.00   23.81   40.23    0.27    0.00    0.00
 2003 043   106     0     1     8.3   20.5    7816   16.0    4.5   0.1   0.2   0.3   0.5   0.6   0.9   2.9   0.0   0.0   0.0   0.1   0.3   0.4   0.2   0.2  0.30  0.43  0.00  0.00  0.00   24.05   40.44    0.27    0.00    0.00
[...]
 2013 325    23     0     1     5.2   85.1    7834   70.7   14.3   0.3   1.8   4.7   7.5   7.8   4.6   2.4   0.0   0.0   0.0   0.1   0.5   0.9   0.9   1.0  1.14  1.08  0.00  0.00  0.00    6.62   15.29    0.19    0.00    0.00
 2013 326    24     0     1     5.6   84.0    7834   69.9   14.1   0.3   1.7   4.4   7.4   7.8   4.6   2.4   0.0   0.0   0.0   0.1   0.4   0.9   0.9   1.0  1.13  1.06  0.00  0.00  0.00    6.89   15.75    0.20    0.00    0.00
 2013 327    25     0     1     5.6   83.3    7833   69.4   13.9   0.3   1.5   4.2   7.4   7.8   4.6   2.5   0.0   0.0   0.0   0.1   0.4   0.9   0.9   0.9  1.12  1.05  0.00  0.00  0.00    7.15   16.18    0.21    0.00    0.00
 2013 328    26     0     1     5.6   82.4    7833   68.8   13.6   0.4   1.3   3.9   7.4   7.8   4.7   2.5   0.0   0.0   0.0   0.1   0.4   0.8   0.9   0.9  1.11  1.04  0.00  0.00  0.00    7.41   16.62    0.21    0.00    0.00
 2013 329    27     0     1     5.8   81.2    7833   67.8   13.4   0.1   1.0   3.5   7.4   7.9   4.7   2.5   0.0   0.0   0.0   0.1   0.4   0.8   0.9   0.9  1.10  1.02  0.00  0.00  0.00    7.69   17.07    0.21    0.00    0.00
 2013 330    28     0     1     6.8   79.6    7832   66.4   13.2   0.1   0.3   1.8   6.0   8.5   5.8   3.1   0.0   0.0   0.0   0.1   0.4   0.8   0.9   0.9  1.08  1.01  0.00  0.00  0.00    8.00   17.54    0.22    0.00    0.00
 2013 331    29     0     1     8.9   76.6    7832   63.6   13.0   0.1   0.3   1.1   4.9   7.7   6.2   3.7   0.0   0.0   0.0   0.1   0.4   0.7   0.9   0.9  1.08  1.00  0.00  0.00  0.00    8.32   17.93    0.32    0.00    0.00
 2013 332    30     0     1    15.2   69.9    7832   57.1   12.8   0.2   0.3   0.7   3.9   6.5   5.8   4.0   0.0   0.0   0.0   0.1   0.4   0.7   0.9   0.9  1.07  0.99  0.00  0.00  0.00    8.63   18.32    0.42    0.00    0.00
 2013 333    31     0     1    17.5   66.5    7832   54.0   12.5   0.2   0.3   0.5   3.3   6.0   5.6   4.0   0.0   0.0   0.0   0.1   0.4   0.6   0.8   0.9  1.06  0.97  0.00  0.00  0.00    8.91   18.73    0.45    0.00    0.00
 2013 334    32     0     1    18.3   64.1    7831   51.9   12.2   0.2   0.3   0.4   2.7   5.9   5.5   4.0   0.0   0.0   0.0   0.1   0.4   0.6   0.8   0.9  1.05  0.96  0.00  0.00  0.00    9.17   19.10    0.46    0.00    0.00
 2013 335    33     0     1    18.3   62.7    7831   50.8   11.9   0.2   0.3   0.3   2.2   5.9   5.5   4.1   0.0   0.0   0.0   0.1   0.4   0.6   0.7   0.9  1.04  0.95  0.00  0.00  0.00    9.43   19.48    0.46    0.00    0.00
 2013 336    34     0     1    18.3   61.7    7831   50.0   11.7   0.2   0.3   0.3   1.8   5.9   5.6   4.1   0.0   0.0   0.0   0.1   0.4   0.6   0.7   0.8  1.03  0.94  0.00  0.00  0.00    9.71   19.87    0.47    0.00    0.00
 2013 337    35     0     1    18.3   61.0    7830   49.5   11.5   0.2   0.3   0.3   1.5   6.0   5.6   4.1   0.0   0.0   0.0   0.1   0.4   0.6   0.6   0.8  1.02  0.93  0.00  0.00  0.00   10.04   20.30    0.47    0.00    0.00
 2013 338    36     0     1    18.3   60.4    7830   49.1   11.3   0.3   0.3   0.3   1.3   6.0   5.6   4.1   0.0   0.0   0.0   0.1   0.4   0.5   0.6   0.8  1.01  0.91  0.00  0.00  0.00   10.35   20.72    0.47    0.00    0.00
 2013 339    37     0     1    18.3   60.0    7830   48.9   11.1   0.3   0.3   0.3   1.1   6.0   5.6   4.1   0.0   0.0   0.0   0.1   0.4   0.5   0.6   0.8  1.00  0.90  0.00  0.00  0.00   10.62   21.14    0.47    0.00    0.00
 2013 340    38     0     1    18.3   59.6    7830   48.8   10.9   0.3   0.3   0.3   1.0   6.0   5.6   4.1   0.0   0.0   0.0   0.1   0.4   0.5   0.6   0.8  0.99  0.89  0.00  0.00  0.00   10.86   21.53    0.48    0.00    0.00
 2013 341    39     0     1    18.3   59.4    7829   48.7   10.7   0.4   0.3   0.3   0.9   6.1   5.6   4.2   0.0   0.0   0.0   0.1   0.3   0.5   0.5   0.8  0.98  0.88  0.00  0.00  0.00   11.07   21.90    0.48    0.00    0.00
 2013 342    40     0     1    18.3   57.1    7829   46.7   10.4   0.4   0.3   0.3   0.8   5.2   5.7   4.2   0.0   0.0   0.0   0.1   0.3   0.5   0.5   0.7  0.97  0.87  0.00  0.00  0.00   11.26   22.25    0.48    0.00    0.00
 2013 343    41     0     1    18.3   55.2    7829   45.0   10.2   0.4   0.3   0.3   0.7   4.5   5.7   4.2   0.0   0.0   0.0   0.1   0.3   0.5   0.5   0.7  0.96  0.86  0.00  0.00  0.00   11.47   22.62    0.48    0.00    0.00
 2013 344    42     0     1    18.3   53.5    7829   43.5    9.9   0.4   0.3   0.3   0.7   3.9   5.7   4.2   0.0   0.0   0.0   0.1   0.3   0.5   0.5   0.6  0.95  0.84  0.00  0.00  0.00   11.65   22.96    0.48    0.00    0.00
 2013 345    43     0     1    18.3   52.2    7829   42.5    9.7   0.4   0.3   0.3   0.7   3.4   5.7   4.2   0.0   0.0   0.0   0.1   0.3   0.5   0.5   0.6  0.94  0.83  0.00  0.00  0.00   11.81   23.29    0.49    0.00    0.00
 2013 346    44     0     1    18.3   51.4    7828   41.9    9.5   0.5   0.3   0.3   0.7   3.1   5.7   4.2   0.0   0.0   0.0   0.1   0.3   0.5   0.5   0.6  0.93  0.82  0.00  0.00  0.00   11.97   23.61    0.49    0.00    0.00
 2013 347    45     0     1    18.3   50.9    7828   41.5    9.4   0.5   0.3   0.3   0.7   2.9   5.7   4.3   0.0   0.0   0.0   0.0   0.3   0.5   0.5   0.6  0.92  0.81  0.00  0.00  0.00   12.11   23.92    0.49    0.00    0.00
 2013 348    46     0     1    18.3   50.5    7828   41.3    9.2   0.5   0.3   0.3   0.7   2.7   5.7   4.3   0.0   0.0   0.0   0.0   0.2   0.5   0.5   0.5  0.91  0.80  0.00  0.00  0.00   12.24   24.21    0.49    0.00    0.00
 2013 349    47     0     1    18.3   50.2    7828   41.2    9.0   0.5   0.3   0.3   0.7   2.6   5.8   4.3   0.0   0.0   0.0   0.0   0.2   0.4   0.4   0.5  0.90  0.79  0.00  0.00  0.00   12.37   24.51    0.49    0.00    0.00
 2013 350    48     0     1    18.3   50.0    7828   41.2    8.8   0.5   0.3   0.3   0.7   2.5   5.8   4.3   0.0   0.0   0.0   0.0   0.2   0.4   0.4   0.5  0.89  0.78  0.00  0.00  0.00   12.50   24.83    0.49    0.00    0.00
 2013 351    49     0     1    18.3   49.9    7828   41.2    8.6   0.5   0.4   0.3   0.7   2.4   5.8   4.3   0.0   0.0   0.0   0.0   0.2   0.4   0.4   0.5  0.88  0.77  0.00  0.00  0.00   12.64   25.16    0.49    0.00    0.00
 2013 352    50     0     1    18.3   49.8    7828   41.4    8.4   0.6   0.4   0.4   0.7   2.4   5.8   4.3   0.0   0.0   0.0   0.0   0.2   0.4   0.4   0.5  0.87  0.76  0.00  0.00  0.00   12.78   25.48    0.49    0.00    0.00
 2013 353    51     0     1    18.3   49.8    7828   41.5    8.3   0.6   0.4   0.4   0.8   2.3   5.8   4.3   0.0   0.0   0.0   0.0   0.2   0.4   0.4   0.5  0.86  0.75  0.00  0.00  0.00   12.91   25.81    0.49    0.00    0.00
 2013 354    52     0     1    18.3   49.6    7827   41.5    8.1   0.6   0.5   0.4   0.8   2.3   5.8   4.4   0.0   0.0   0.0   0.0   0.2   0.4   0.4   0.4  0.84  0.74  0.00  0.00  0.00   13.04   26.12    0.50    0.00    0.00
 2013 355    53     0     1    18.3   49.1    7827   41.3    7.9   0.6   0.5   0.4   0.8   2.3   5.7   4.4   0.0   0.0   0.0   0.0   0.1   0.4   0.4   0.4  0.82  0.73  0.00  0.00  0.00   13.17   26.41    0.50    0.00    0.00
 2013 356    54     0     1    18.3   48.3    7827   40.6    7.7   0.6   0.5   0.5   0.8   2.2   5.4   4.4   0.0   0.0   0.0   0.0   0.1   0.4   0.3   0.4  0.80  0.72  0.00  0.00  0.00   13.30   26.69    0.50    0.00    0.00
 2013 357    55     0     1    18.3   47.3    7827   39.8    7.5   0.7   0.5   0.5   0.9   2.2   5.1   4.4   0.0   0.0   0.0   0.0   0.1   0.4   0.3   0.4  0.77  0.71  0.00  0.00  0.00   13.42   26.97    0.50    0.00    0.00
 2013 358    56     0     1    18.3   46.1    7827   38.8    7.3   0.7   0.5   0.5   0.9   2.2   4.8   4.4   0.0   0.0   0.0   0.0   0.1   0.3   0.3   0.4  0.74  0.71  0.00  0.00  0.00   13.55   27.23    0.50    0.00    0.00
 2013 359    57     0     1    18.3   44.8    7827   37.7    7.1   0.7   0.6   0.5   0.9   2.2   4.4   4.4   0.0   0.0   0.0   0.0   0.1   0.3   0.3   0.4  0.71  0.70  0.00  0.00  0.00   13.68   27.50    0.50    0.00    0.00
 2013 360    58     0     1    18.3   43.6    7827   36.7    6.9   0.7   0.6   0.5   0.9   2.2   4.0   4.4   0.0   0.0   0.0   0.0   0.1   0.3   0.3   0.4  0.68  0.69  0.00  0.00  0.00   13.81   27.77    0.50    0.00    0.00
 2013 361    59     0     1    18.3   42.5    7826   35.8    6.7   0.7   0.6   0.6   0.9   2.3   3.6   4.4   0.0   0.0   0.0   0.0   0.1   0.3   0.3   0.3  0.66  0.68  0.00  0.00  0.00   13.96   28.05    0.50    0.00    0.00
 2013 362    60     0     1    18.3   41.5    7826   35.0    6.5   0.8   0.6   0.6   1.0   2.3   3.3   4.5   0.0   0.0   0.0   0.0   0.1   0.3   0.3   0.3  0.63  0.67  0.00  0.00  0.00   14.09   28.32    0.50    0.00    0.00
 2013 363    61     0     1    18.3   40.7    7826   34.4    6.3   0.8   0.7   0.6   1.0   2.3   3.0   4.5   0.0   0.0   0.0   0.0   0.1   0.3   0.3   0.3  0.61  0.66  0.00  0.00  0.00   14.23   28.58    0.50    0.00    0.00
 2013 364    62     0     1    18.3   40.0    7826   33.8    6.2   0.8   0.7   0.6   1.0   2.3   2.8   4.5   0.0   0.0   0.0   0.0   0.1   0.3   0.3   0.3  0.60  0.65  0.00  0.00  0.00   14.36   28.84    0.50    0.00    0.00
 2013 365    63     0     1    18.3   39.4    7826   33.3    6.0   0.8   0.7   0.6   1.0   2.3   2.6   4.5   0.0   0.0   0.0   0.1   0.1   0.3   0.3   0.3  0.58  0.65  0.00  0.00  0.00   14.51   29.09    0.50    0.00    0.00
 2014 001    64     0     1    18.3   38.9    7826   32.9    5.9   0.1   0.4   0.8   1.3   2.3   2.4   4.5   0.0   0.0   0.0   0.0   0.1   0.3   0.3   0.3  0.57  0.64  0.00  0.00  0.00   14.64   29.32    0.50    0.00    0.00
 2014 002    65     0     1    18.3   37.5    7825   31.6    5.9   0.1   0.2   0.5   1.3   2.4   2.2   4.5   0.0   0.0   0.0   0.1   0.1   0.3   0.3   0.3  0.56  0.63  0.00  0.00  0.00   14.93   29.57    0.50    0.00    0.00
 2014 003    66     0     1    18.3   36.3    7825   30.3    6.0   0.2   0.2   0.3   0.9   2.6   2.1   4.5   0.0   0.0   0.0   0.1   0.2   0.3   0.3   0.3  0.54  0.62  0.00  0.00  0.00   15.22   29.84    0.50    0.00    0.00
 2014 004    67     0     1    18.3   34.6    7825   28.7    6.0   0.2   0.2   0.3   0.7   2.3   1.9   4.6   0.0   0.0   0.0   0.1   0.2   0.3   0.3   0.3  0.53  0.62  0.00  0.00  0.00   15.49   30.09    0.50    0.00    0.00
 2014 005    68     0     1    18.3   33.3    7825   27.3    6.0   0.2   0.2   0.3   0.6   2.0   1.8   4.6   0.0   0.0   0.0   0.1   0.2   0.3   0.3   0.3  0.53  0.61  0.00  0.00  0.00   15.75   30.32    0.50    0.00    0.00
 2014 006    69     0     1    18.3   32.2    7824   26.2    6.0   0.1   0.2   0.3   0.5   1.7   1.7   4.6   0.0   0.0   0.0   0.1   0.2   0.4   0.3   0.3  0.52  0.60  0.00  0.00  0.00   16.02   30.55    0.50    0.00    0.00
 2014 007    70     0     1    20.9   28.7    7824   22.6    6.1   0.0   0.1   0.1   0.3   0.9   1.7   4.4   0.0   0.0   0.0   0.1   0.3   0.4   0.3   0.3  0.51  0.60  0.00  0.00  0.00   16.33   30.81    0.50    0.00    0.00
 2014 008    71     0     1    27.2   21.8    7824   15.6    6.2   0.1   0.1   0.1   0.2   0.5   1.1   3.0   0.0   0.0   0.0   0.1   0.3   0.4   0.3   0.3  0.51  0.59  0.00  0.00  0.00   16.66   31.03    0.50    0.00    0.00
 2014 009    72     0     1    28.1   20.7    7823   14.5    6.2   0.1   0.2   0.2   0.2   0.4   1.0   2.9   0.0   0.0   0.0   0.1   0.3   0.4   0.3   0.3  0.51  0.58  0.00  0.00  0.00   16.99   31.32    0.50    0.00    0.00
 2014 010    73     0     1    30.6   18.1    7823   11.8    6.3   0.1   0.2   0.2   0.2   0.3   0.7   2.3   0.0   0.0   0.0   0.1   0.3   0.4   0.3   0.3  0.51  0.58  0.00  0.00  0.00   17.34   31.60    0.50    0.00    0.00
 2014 011    74     0     1    31.4   17.4    7823   11.1    6.3   0.2   0.2   0.2   0.2   0.3   0.6   2.2   0.0   0.0   0.0   0.1   0.3   0.4   0.3   0.3  0.50  0.57  0.00  0.00  0.00   17.68   31.90    0.50    0.00    0.00
 2014 012    75     0     1    31.4   17.4    7822   11.1    6.4   0.2   0.3   0.2   0.2   0.3   0.6   2.2   0.0   0.0   0.0   0.1   0.3   0.4   0.3   0.3  0.50  0.57  0.00  0.00  0.00   17.99   32.16    0.50    0.00    0.00
 2014 013    76     0     1    31.4   17.5    7822   11.1    6.4   0.3   0.3   0.2   0.3   0.3   0.5   2.2   0.0   0.0   0.0   0.1   0.3   0.5   0.4   0.3  0.50  0.56  0.00  0.00  0.00   18.28   32.42    0.50    0.00    0.00
 2014 014    77     0     1    31.4   17.5    7822   11.1    6.4   0.3   0.3   0.3   0.3   0.3   0.5   2.2   0.0   0.0   0.0   0.1   0.3   0.5   0.4   0.3  0.49  0.56  0.00  0.00  0.00   18.58   32.69    0.50    0.00    0.00
 2014 015    78     0     1    31.4   17.5    7821   11.0    6.5   0.3   0.3   0.3   0.3   0.3   0.5   2.2   0.0   0.0   0.0   0.1   0.3   0.5   0.4   0.3  0.49  0.55  0.00  0.00  0.00   18.88   32.95    0.50    0.00    0.00
 2014 016    79     0     1    31.4   17.5    7821   11.0    6.5   0.3   0.3   0.3   0.3   0.3   0.4   2.2   0.0   0.0   0.0   0.1   0.3   0.5   0.4   0.3  0.49  0.54  0.00  0.00  0.00   19.18   33.22    0.50    0.00    0.00
 2014 017    80     0     1    31.4   17.5    7821   11.0    6.5   0.3   0.3   0.3   0.3   0.3   0.4   2.2   0.0   0.0   0.0   0.1   0.3   0.5   0.4   0.3  0.48  0.54  0.00  0.00  0.00   19.49   33.51    0.50    0.00    0.00
 2014 018    81     0     1    31.4   17.5    7821   10.9    6.5   0.4   0.3   0.3   0.3   0.3   0.4   2.2   0.0   0.0   0.0   0.0   0.3   0.5   0.4   0.3  0.48  0.53  0.00  0.00  0.00   19.81   33.84    0.51    0.00    0.00
 2014 019    82     0     1    31.4   17.4    7820   10.9    6.5   0.4   0.3   0.3   0.3   0.3   0.3   2.3   0.0   0.0   0.0   0.0   0.3   0.5   0.4   0.3  0.48  0.53  0.00  0.00  0.00   20.12   34.19    0.51    0.00    0.00
 2014 020    83     0     1    31.4   17.3    7820   10.9    6.4   0.4   0.3   0.3   0.3   0.3   0.3   2.3   0.0   0.0   0.0   0.0   0.3   0.5   0.4   0.3  0.47  0.52  0.00  0.00  0.00   20.42   34.54    0.51    0.00    0.00
 2014 021    84     0     1    31.4   17.2    7820   10.8    6.4   0.0   0.2   0.3   0.4   0.3   0.3   2.3   0.0   0.0   0.0   0.1   0.3   0.5   0.4   0.3  0.47  0.52  0.00  0.00  0.00   20.75   34.89    0.51    0.00    0.00
 2014 022    85     0     1    31.9   16.6    7819   10.1    6.4   0.1   0.2   0.2   0.3   0.3   0.3   2.2   0.0   0.0   0.0   0.1   0.3   0.5   0.4   0.3  0.47  0.51  0.00  0.00  0.00   21.15   35.23    0.51    0.00    0.00
 2014 023    86     0     1    36.7   11.7    7819    5.3    6.5   0.1   0.1   0.2   0.2   0.3   0.2   0.9   0.0   0.0   0.0   0.1   0.3   0.5   0.4   0.3  0.47  0.51  0.00  0.00  0.00   21.54   35.58    0.51    0.00    0.00
 2014 024    87     0     1    37.4   11.4    7819    4.9    6.6   0.1   0.1   0.2   0.2   0.2   0.2   0.8   0.0   0.0   0.0   0.1   0.3   0.5   0.4   0.3  0.47  0.50  0.00  0.00  0.00   21.93   35.85    0.51    0.00    0.00
 2014 025    88     0     1    38.3   10.9    7818    4.2    6.6   0.2   0.2   0.2   0.2   0.2   0.2   0.6   0.0   0.0   0.0   0.1   0.3   0.5   0.5   0.3  0.47  0.50  0.00  0.00  0.00   22.31   36.15    0.52    0.00    0.00
 2014 026    89     0     1    38.6   10.9    7818    4.2    6.7   0.2   0.2   0.2   0.2   0.2   0.2   0.5   0.0   0.0   0.0   0.1   0.3   0.5   0.5   0.3  0.47  0.50  0.00  0.00  0.00   22.66   36.45    0.52    0.00    0.00
 2014 027    90     0     1    38.7   11.1    7818    4.5    6.7   0.1   0.3   0.2   0.3   0.2   0.2   0.5   0.0   0.0   0.0   0.1   0.4   0.5   0.5   0.3  0.47  0.49  0.00  0.00  0.00   22.99   36.74    0.52    0.00    0.00
 2014 028    91     0     1    38.7   11.3    7817    4.6    6.7   0.1   0.2   0.3   0.3   0.3   0.2   0.5   0.0   0.0   0.0   0.1   0.4   0.5   0.5   0.3  0.46  0.49  0.00  0.00  0.00   23.34   37.03    0.52    0.00    0.00
 2014 029    92     0     1    39.1   11.1    7817    4.4    6.8   0.1   0.2   0.2   0.3   0.3   0.2   0.4   0.0   0.0   0.0   0.1   0.4   0.5   0.5   0.3  0.46  0.49  0.00  0.00  0.00   23.66   37.30    0.52    0.00    0.00
 2014 030    93     0     1    39.1   11.4    7817    4.6    6.8   0.2   0.3   0.3   0.3   0.3   0.2   0.4   0.0   0.0   0.0   0.1   0.4   0.5   0.5   0.3  0.46  0.48  0.00  0.00  0.00   24.00   37.60    0.52    0.00    0.00
 2014 031    94     0     1    39.2   11.4    7816    4.6    6.8   0.1   0.2   0.3   0.3   0.3   0.3   0.4   0.0   0.0   0.0   0.1   0.4   0.5   0.5   0.4  0.46  0.48  0.00  0.00  0.00   24.35   37.91    0.52    0.00    0.00
 2014 032    95     0     1    39.4   11.3    7816    4.4    6.8   0.1   0.2   0.2   0.3   0.3   0.3   0.4   0.0   0.0   0.0   0.1   0.4   0.5   0.5   0.4  0.46  0.47  0.00  0.00  0.00   24.71   38.20    0.53    0.00    0.00
 2014 033    96     0     1    39.6   11.2    7816    4.3    6.9   0.1   0.2   0.2   0.3   0.3   0.3   0.4   0.0   0.0   0.0   0.1   0.4   0.5   0.5   0.4  0.46  0.47  0.00  0.00  0.00   25.07   38.48    0.53    0.00    0.00
 2014 034    97     0     1    39.8   11.2    7816    4.3    6.9   0.2   0.2   0.2   0.3   0.3   0.3   0.4   0.0   0.0   0.0   0.1   0.4   0.5   0.5   0.4  0.46  0.47  0.00  0.00  0.00   25.44   38.79    0.54    0.00    0.00
 2014 035    98     0     1    40.2   11.1    7815    4.1    6.9   0.2   0.3   0.3   0.3   0.2   0.2   0.4   0.0   0.0   0.0   0.1   0.4   0.5   0.5   0.4  0.46  0.47  0.00  0.00  0.00   25.79   39.08    0.54    0.00    0.00
 2014 036    99     0     1    40.6   11.0    7815    4.1    6.9   0.1   0.1   0.2   0.3   0.3   0.3   0.4   0.0   0.0   0.0   0.1   0.4   0.5   0.5   0.4  0.46  0.46  0.00  0.00  0.00   26.13   39.40    0.55    0.00    0.00
 2014 037   100     0     1    41.3   10.3    7815    3.4    7.0   0.1   0.1   0.2   0.2   0.2   0.2   0.3   0.0   0.0   0.0   0.1   0.4   0.6   0.5   0.4  0.46  0.46  0.00  0.00  0.00   26.49   39.65    0.55    0.00    0.00
 2014 038   101     0     1    42.4    9.6    7814    2.6    7.1   0.1   0.1   0.1   0.2   0.2   0.2   0.2   0.0   0.0   0.0   0.1   0.4   0.6   0.5   0.4  0.47  0.46  0.00  0.00  0.00   26.85   39.91    0.56    0.00    0.00
 2014 039   102     0     1    42.8    9.5    7814    2.4    7.1   0.1   0.1   0.1   0.1   0.2   0.2   0.2   0.0   0.0   0.0   0.1   0.4   0.6   0.5   0.4  0.47  0.46  0.00  0.00  0.00   27.21   40.17    0.57    0.00    0.00
 2014 040   103     0     1    43.0    9.7    7814    2.5    7.1   0.1   0.1   0.1   0.1   0.2   0.2   0.2   0.0   0.0   0.0   0.1   0.4   0.6   0.5   0.4  0.47  0.46  0.00  0.00  0.00   27.59   40.46    0.57    0.00    0.00
 2014 041   104     0     1    43.2    9.7    7813    2.6    7.2   0.2   0.2   0.1   0.2   0.2   0.2   0.2   0.0   0.0   0.0   0.1   0.4   0.6   0.5   0.4  0.47  0.46  0.00  0.00  0.00   27.98   40.79    0.58    0.00    0.00
 2014 042   105     0     1    43.3   10.0    7813    2.8    7.1   0.1   0.3   0.2   0.2   0.2   0.2   0.2   0.0   0.0   0.0   0.1   0.4   0.6   0.5   0.4  0.47  0.45  0.00  0.00  0.00   28.33   41.11    0.58    0.00    0.00
 2014 043   106     0     1    43.4   10.2    7813    3.0    7.1   0.2   0.3   0.2   0.2   0.2   0.2   0.2   0.0   0.0   0.0   0.1   0.4   0.6   0.5   0.4  0.47  0.45  0.00  0.00  0.00   28.72   41.46    0.58    0.00    0.00
 2014 044   107     0     1    43.5   10.5    7812    3.4    7.1   0.2   0.4   0.2   0.2   0.2   0.2   0.2   0.0   0.0   0.0   0.1   0.4   0.6   0.5   0.4  0.47  0.45  0.00  0.00  0.00   29.10   41.83    0.58    0.00    0.00
 2014 045   108     0     1    43.5   10.9    7812    3.7    7.2   0.3   0.4   0.3   0.3   0.2   0.2   0.2   0.0   0.0   0.0   0.1   0.4   0.6   0.6   0.4  0.47  0.44  0.00  0.00  0.00   29.46   42.17    0.58    0.00    0.00
 2014 046   109     0     1    43.5   11.2    7812    4.0    7.2   0.3   0.5   0.3   0.3   0.2   0.2   0.2   0.0   0.0   0.0   0.1   0.4   0.6   0.6   0.5  0.47  0.44  0.00  0.00  0.00   29.81   42.49    0.58    0.00    0.00
 2014 047   110     0     1    43.5   11.5    7812    4.3    7.2   0.3   0.5   0.3   0.3   0.3   0.2   0.2   0.0   0.0   0.0   0.1   0.4   0.6   0.6   0.5  0.47  0.44  0.00  0.00  0.00   30.15   42.82    0.58    0.00    0.00
