*SOIL N BALANCE - CERES SOIL N&C ROUTINES

*DSSAT Cropping System Model Ver. 4.0.2.000               Jul 20, 2016; 16:12:44

*RUN   1        : UYMZ                    
 MODEL          : MZCER040 - Maize           
 EXPERIMENT     : UYMZ0090 MZ    late to create DSS                             
 TREATMENT  1   : UYMZ                    



                                         INITIAL Year/Doy      FINAL Year/Doy
                                                 1990/191            1991/009
SOIL N BALANCE                                  -----------kg N/ha-----------

   Soil Humus N                                  16646.04            16539.72
   Soil Litter N                                     0.00               10.66
   N in Surface Residue                              0.00                0.00
   Soil NO3                                         74.81                5.89
   Soil NH4                                         23.95                7.34
   Soil Urea                                         0.00                0.00

   Added to / Removed from Soil:
   N in Harvest Residues from Previous Crop          0.00
   N from Organic Applications                       0.00
   N from senesced plant matter                     15.05
   Fertilizer N                                      2.00
   Leached NO3                                                           4.38
   N Denitrified                                                         0.51
   N Uptake From Soil                                                  192.66
   Ammonia volatilization                                                0.69

   Total N balance                               16761.85            16761.85

================================================================================

*DSSAT Cropping System Model Ver. 4.0.2.000               Jul 20, 2016; 16:12:44

*RUN   2        : UYMZ                    
 MODEL          : MZCER040 - Maize           
 EXPERIMENT     : UYMZ0090 MZ    late to create DSS                             
 TREATMENT  1   : UYMZ                    



                                         INITIAL Year/Doy      FINAL Year/Doy
                                                 1991/191            1992/006
SOIL N BALANCE                                  -----------kg N/ha-----------

   Soil Humus N                                  16646.04            16541.21
   Soil Litter N                                     0.00               12.51
   N in Surface Residue                              0.00                0.00
   Soil NO3                                         74.81                6.61
   Soil NH4                                         23.95                8.21
   Soil Urea                                         0.00                0.00

   Added to / Removed from Soil:
   N in Harvest Residues from Previous Crop          0.00
   N from Organic Applications                       0.00
   N from senesced plant matter                     18.04
   Fertilizer N                                      2.00
   Leached NO3                                                          23.38
   N Denitrified                                                         2.69
   N Uptake From Soil                                                  169.11
   Ammonia volatilization                                                1.12

   Total N balance                               16764.85            16764.85

================================================================================

*DSSAT Cropping System Model Ver. 4.0.2.000               Jul 20, 2016; 16:12:44

*RUN   3        : UYMZ                    
 MODEL          : MZCER040 - Maize           
 EXPERIMENT     : UYMZ0090 MZ    late to create DSS                             
 TREATMENT  1   : UYMZ                    



                                         INITIAL Year/Doy      FINAL Year/Doy
                                                 1992/191            1993/014
SOIL N BALANCE                                  -----------kg N/ha-----------

   Soil Humus N                                  16646.04            16567.04
   Soil Litter N                                     0.00               17.92
   N in Surface Residue                              0.00                0.00
   Soil NO3                                         74.81                5.96
   Soil NH4                                         23.95                6.39
   Soil Urea                                         0.00                0.00

   Added to / Removed from Soil:
   N in Harvest Residues from Previous Crop          0.00
   N from Organic Applications                       0.00
   N from senesced plant matter                     19.40
   Fertilizer N                                      2.00
   Leached NO3                                                           0.00
   N Denitrified                                                         0.01
   N Uptake From Soil                                                  168.25
   Ammonia volatilization                                                0.64

   Total N balance                               16766.20            16766.21
