*SOIL NITROGEN DAILY OUTPUT FILE

*DSSAT Cropping System Model Ver. 4.0.2.000               Aug 03, 2016; 14:28:43

*RUN   1        : UYMZ                    
 MODEL          : MZCER040 - Maize           
 EXPERIMENT     : UYMZ0116 MZ    late to create DSS                             
 TREATMENT  1   : UYMZ                    

@YEAR DOY   DAS  NAPC  NI#M    NLCC   NIAD    NOAD   NITD   NHTD  NI1D  NI2D  NI3D  NI4D  NI5D  NI6D  NI7D  NI8D  NI9D  NI10  NH1D  NH2D  NH3D  NH4D  NH5D  NH6D  NH7D  NH8D  NH9D  NH10    NMNC    NITC    NDNC    NIMC    AMLC
 1987 184     0     0     0     0.0   99.3   16645   76.5   22.8  13.3  16.6  15.1   8.6   4.6   0.0   0.1   0.1   0.0   0.0   0.6   1.3   1.5   1.4   1.4  1.50  1.46  1.45  0.00  0.00    0.55    1.71    0.00    0.00    0.00
 1987 185     1     0     0     0.0   99.9   16645   77.6   22.2  12.6  17.2  15.3   8.7   4.6   0.0   0.1   0.1   0.0   0.0   0.6   1.2   1.4   1.4   1.4  1.51  1.43  1.41  0.00  0.00    1.09    2.83    0.00    0.00    0.00
 1987 186     2     0     0     0.0  100.4   16644   78.9   21.5  13.0  17.3  15.5   8.8   4.7   0.1   0.1   0.2   0.0   0.0   0.3   1.1   1.4   1.3   1.3  1.51  1.40  1.36  0.00  0.00    1.64    4.09    0.00    0.00    0.00
 1987 187     3     0     0     0.0  101.0   16644   80.0   20.9   5.9  16.0  19.1   8.9   4.8   0.1   0.2   0.2   0.0   0.0   0.2   1.0   1.4   1.3   1.3  1.51  1.36  1.32  0.00  0.00    2.21    5.22    0.00    0.00    0.00
 1987 188     4     3     3     0.0  104.5   16643   82.4   22.0   8.7  15.6  19.4   9.0   4.8   0.1   0.2   0.3   0.0   0.0   2.7   1.0   1.4   1.2   1.3  1.52  1.33  1.28  0.00  0.00    2.79    6.11    0.00    0.00    0.10
 1987 189     5     3     3     0.0  105.0   16643   84.5   20.4  10.7  15.7  19.5   9.2   4.9   0.1   0.3   0.3   0.0   0.0   0.6   0.9   1.4   1.2   1.2  1.52  1.30  1.24  0.00  0.00    3.37    8.22    0.00    0.00    0.16
 1987 190     6     3     3     0.0  105.5   16642   85.8   19.7  11.2  15.8  19.6   9.4   5.0   0.1   0.3   0.3   0.0   0.0   0.1   0.9   1.3   1.1   1.2  1.52  1.27  1.20  0.00  0.00    3.95    9.45    0.00    0.00    0.22
 1987 191     7     3     3     0.0  106.0   16642   86.7   19.3  11.3  15.9  19.7   9.5   5.0   0.2   0.4   0.4   0.0   0.0   0.1   0.8   1.3   1.1   1.1  1.52  1.24  1.17  0.00  0.00    4.52   10.41    0.00    0.00    0.25
 1987 192     8     3     3     0.0  106.6   16641   87.6   18.9   4.9  13.2  20.1  12.9   5.1   0.2   0.4   0.4   0.0   0.0   0.0   0.7   1.3   1.1   1.1  1.53  1.21  1.13  0.00  0.00    5.10   11.32    0.00    0.00    0.29
 1987 193     9     3     3     0.0  107.1   16640   88.1   19.0   4.9  13.0  19.7  12.9   5.7   0.2   0.4   0.5   0.0   0.0   0.1   0.8   1.4   1.1   1.1  1.53  1.19  1.10  0.00  0.00    5.67   11.79    0.00    0.00    0.30
 1987 194    10     3     3     0.0  107.7   16640   88.6   19.1   5.0  12.9  19.5  12.9   6.0   0.2   0.5   0.5   0.0   0.0   0.1   0.9   1.5   1.1   1.0  1.53  1.16  1.06  0.00  0.00    6.26   12.33    0.00    0.00    0.33
 1987 195    11     3     3     0.0  108.3   16639   89.4   18.8   5.2  13.0  19.4  12.9   6.2   0.2   0.5   0.5   0.0   0.0   0.1   0.8   1.5   1.1   1.0  1.54  1.13  1.03  0.00  0.00    6.83   13.09    0.00    0.00    0.34
 1987 196    12     3     3     0.0  108.8   16639   90.2   18.7   5.5  13.0  19.5  13.0   6.2   0.2   0.5   0.6   0.0   0.0   0.1   0.7   1.6   1.0   1.0  1.54  1.11  1.00  0.00  0.00    7.42   13.86    0.00    0.00    0.36
 1987 197    13     3     3     0.0  109.4   16638   91.1   18.3   5.9  13.0  19.6  13.1   6.3   0.3   0.6   0.6   0.0   0.0   0.1   0.7   1.6   1.0   1.0  1.54  1.08  0.97  0.00  0.00    8.04   14.81    0.00    0.00    0.38
 1987 198    14     3     3     0.0  109.8   16637   91.9   18.0   6.1  12.9  19.7  13.1   6.4   0.3   0.6   0.6   0.0   0.0   0.1   0.7   1.5   1.0   0.9  1.54  1.06  0.94  0.00  0.00    8.65   15.74    0.00    0.00    0.38
 1987 199    15     3     3     0.0  110.4   16637   92.7   17.7   6.5  12.9  19.8  13.2   6.4   0.3   0.7   0.7   0.0   0.0   0.1   0.6   1.5   0.9   0.9  1.55  1.04  0.91  0.00  0.00    9.24   16.61    0.00    0.00    0.38
 1987 200    16     3     3     0.0  111.0   16636   93.6   17.4   6.8  13.0  19.9  13.2   6.5   0.3   0.7   0.7   0.0   0.0   0.1   0.6   1.5   0.9   0.9  1.55  1.02  0.89  0.00  0.00    9.80   17.44    0.00    0.00    0.39
 1987 201    17     3     3     0.0  111.5   16636   94.3   17.2   7.1  13.0  20.0  13.3   6.6   0.3   0.7   0.7   0.0   0.0   0.1   0.6   1.4   0.9   0.9  1.55  1.00  0.86  0.00  0.00   10.30   18.17    0.00    0.00    0.39
 1987 202    18     3     3     0.0  111.9   16635   94.9   17.0   7.4  12.9  20.1  13.3   6.6   0.4   0.7   0.8   0.0   0.0   0.1   0.6   1.4   0.9   0.9  1.55  0.98  0.84  0.00  0.00   10.72   18.81    0.00    0.00    0.39
 1987 203    19     3     3     0.0  112.3   16635   95.5   16.8   7.7  12.9  20.1  13.3   6.7   0.4   0.8   0.8   0.0   0.0   0.1   0.6   1.4   0.9   0.8  1.56  0.96  0.81  0.00  0.00   11.10   19.39    0.00    0.00    0.40
 1987 204    20     3     3     0.0  112.6   16635   96.1   16.6   6.2  13.5  20.4  13.4   6.7   0.4   0.8   0.8   0.0   0.0   0.1   0.5   1.4   0.8   0.8  1.56  0.94  0.79  0.00  0.00   11.46   19.95    0.00    0.00    0.40
 1987 205    21     3     3     0.0  113.0   16634   96.6   16.4   4.5  12.1  21.0  14.1   6.9   0.4   0.8   0.8   0.0   0.0   0.1   0.6   1.3   0.8   0.8  1.56  0.92  0.77  0.00  0.00   11.84   20.44    0.00    0.00    0.40
 1987 206    22     3     3     0.0  113.4   16634   96.9   16.5   4.5  12.0  20.6  14.0   7.4   0.5   0.9   0.9   0.0   0.0   0.1   0.6   1.4   0.9   0.8  1.56  0.91  0.75  0.00  0.00   12.30   20.81    0.00    0.00    0.40
 1987 207    23     3     3     0.0  114.0   16633   97.2   16.8   3.4  11.0  20.0  14.8   7.9   0.6   0.9   0.9   0.0   0.0   0.1   0.7   1.5   0.9   0.8  1.58  0.89  0.73  0.00  0.00   12.82   21.10    0.00    0.00    0.41
 1987 208    24     3     3     0.0  114.5   16633   97.4   17.1   2.6  10.0  19.2  14.7   8.8   0.9   0.9   0.9   0.0   0.0   0.2   0.8   1.6   0.9   0.8  1.59  0.89  0.71  0.00  0.00   13.35   21.29    0.00    0.00    0.41
 1987 209    25     3     3     0.3  114.7   16632   97.2   17.5   2.6   9.7  18.8  14.3   8.9   1.2   0.9   0.9   0.0   0.0   0.2   0.8   1.6   0.9   0.9  1.61  0.90  0.70  0.00  0.00   13.92   21.44    0.10    0.00    0.41
 1987 210    26     3     3     0.5  114.8   16632   97.0   17.8   2.8   9.6  18.4  14.0   8.9   1.4   1.0   0.9   0.0   0.0   0.1   0.9   1.7   1.0   0.9  1.62  0.90  0.70  0.00  0.00   14.49   21.72    0.40    0.00    0.42
 1987 211    27     3     3     0.5  115.2   16631   97.2   17.9   2.2   8.8  18.1  14.5   9.3   1.5   1.0   0.9   0.0   0.0   0.1   0.8   1.8   1.0   0.9  1.64  0.90  0.70  0.00  0.00   15.04   22.12    0.56    0.00    0.42
 1987 212    28     3     3     0.7  115.0   16631   96.8   18.2   2.3   8.7  17.6  14.0   9.4   1.8   1.0   1.0   0.0   0.0   0.1   0.9   1.8   1.0   0.9  1.65  0.90  0.69  0.00  0.00   15.53   22.31    0.94    0.00    0.42
 1987 213    29     3     3     0.8  115.1   16630   96.6   18.5   2.4   8.6  17.3  13.8   9.4   1.9   1.1   1.0   0.0   0.0   0.1   0.9   1.9   1.0   0.9  1.67  0.91  0.69  0.00  0.00   16.00   22.52    1.15    0.00    0.43
 1987 214    30     3     3     0.8  115.4   16630   96.8   18.6   2.6   8.7  17.2  13.7   9.4   2.0   1.1   1.0   0.0   0.0   0.1   0.9   1.9   1.0   1.0  1.68  0.91  0.68  0.00  0.00   16.45   22.86    1.27    0.00    0.43
 1987 215    31     3     3     0.9  115.8   16629   97.2   18.6   3.0   8.7  17.3  13.6   9.4   2.1   1.1   1.0   0.0   0.0   0.1   0.8   1.9   1.0   1.0  1.69  0.91  0.68  0.00  0.00   16.92   23.37    1.30    0.00    0.43
 1987 216    32     3     3     0.9  116.2   16629   97.6   18.5   3.2   8.7  17.4  13.6   9.4   2.1   1.1   1.0   0.0   0.0   0.1   0.8   1.8   1.1   1.0  1.71  0.91  0.68  0.00  0.00   17.39   23.87    1.32    0.00    0.43
 1987 217    33     3     3     0.9  116.6   16628   98.1   18.5   2.7   8.7  17.7  13.6   9.4   2.1   1.1   1.0   0.0   0.0   0.1   0.7   1.8   1.1   1.0  1.72  0.91  0.67  0.00  0.00   17.86   24.37    1.33    0.00    0.44
 1987 218    34     3     3     0.9  117.0   16628   98.2   18.8   2.1   8.0  17.7  13.9   9.6   2.1   1.2   1.0   0.0   0.0   0.2   0.8   1.8   1.1   1.0  1.73  0.92  0.67  0.00  0.00   18.33   24.56    1.35    0.00    0.44
 1987 219    35     3     3     0.9  117.2   16627   98.2   19.0   1.4   6.6  16.0  13.9  10.6   2.7   1.3   1.0   0.0   0.0   0.2   0.8   1.9   1.1   1.0  1.75  0.92  0.66  0.00  0.00   18.77   24.73    1.42    0.00    0.44
 1987 220    36     3     3     1.3  117.0   16627   97.7   19.3   1.5   6.5  15.6  13.4  10.5   3.0   1.4   1.1   0.0   0.0   0.2   0.9   1.9   1.1   1.0  1.76  0.92  0.66  0.00  0.00   19.18   24.90    1.63    0.00    0.45
 1987 221    37     3     3     1.5  117.0   16626   97.6   19.5   1.6   6.5  15.4  13.1  10.4   3.1   1.5   1.1   0.0   0.0   0.1   0.9   2.0   1.1   1.1  1.78  0.92  0.66  0.00  0.00   19.59   25.10    1.76    0.00    0.45
 1987 222    38     3     3     1.6  117.1   16626   97.5   19.6   1.8   6.5  15.2  13.0  10.3   3.2   1.6   1.1   0.0   0.0   0.1   0.8   2.0   1.1   1.1  1.79  0.93  0.65  0.00  0.00   20.02   25.42    1.91    0.00    0.45
 1987 223    39     3     3     1.7  117.3   16626   97.6   19.7   2.0   6.5  15.2  12.9  10.3   3.2   1.6   1.1   0.0   0.0   0.1   0.8   2.0   1.2   1.1  1.80  0.93  0.65  0.00  0.00   20.47   25.75    1.96    0.00    0.46
 1987 224    40     3     3     1.7  117.5   16625   97.9   19.6   1.9   6.6  15.3  12.9  10.3   3.3   1.6   1.1   0.0   0.0   0.1   0.7   2.0   1.2   1.1  1.82  0.93  0.65  0.00  0.00   20.96   26.31    1.99    0.00    0.46
 1987 225    41     3     3     1.7  117.8   16625   98.1   19.7   1.9   6.5  15.4  12.9  10.3   3.3   1.6   1.2   0.0   0.0   0.2   0.8   1.9   1.2   1.1  1.83  0.93  0.64  0.00  0.00   21.47   26.72    2.01    0.00    0.46
 1987 226    42     3     3     1.7  118.0   16624   98.1   19.9   1.5   6.0  15.3  13.1  10.4   3.3   1.7   1.2   0.0   0.0   0.1   0.8   1.9   1.2   1.1  1.84  0.93  0.64  0.00  0.00   21.99   27.02    2.03    0.00    0.47
 1987 227    43     3     3     1.8  118.1   16624   98.0   20.1   1.3   5.4  14.4  13.3  10.9   3.5   1.7   1.2   0.0   0.0   0.1   0.9   2.0   1.2   1.1  1.86  0.94  0.64  0.00  0.00   22.51   27.25    2.10    0.00    0.47
 1987 228    44     3     3     2.1  118.0   16623   97.6   20.4   1.3   5.3  14.0  12.9  10.8   3.7   1.8   1.2   0.0   0.0   0.1   1.0   2.0   1.2   1.1  1.87  0.94  0.63  0.00  0.00   23.02   27.46    2.28    0.00    0.47
 1987 229    45     3     3     2.2  117.8   16623   97.2   20.6   1.4   5.2  13.7  12.6  10.7   3.9   1.9   1.3   0.0   0.0   0.1   1.0   2.1   1.3   1.2  1.89  0.94  0.63  0.00  0.00   23.52   27.69    2.42    0.00    0.48
 1987 230    46     3     3     2.2  118.1   16622   97.4   20.7   1.6   5.3  13.6  12.5  10.8   3.9   2.0   1.3   0.0   0.0   0.1   0.9   2.1   1.3   1.2  1.90  0.94  0.63  0.00  0.00   23.97   28.06    2.53    0.00    0.48
 1987 231    47     3     3     2.3  118.4   16622   97.6   20.8   1.7   5.3  13.6  12.4  10.7   4.0   2.0   1.3   0.0   0.0   0.1   0.9   2.2   1.3   1.2  1.91  0.94  0.62  0.00  0.00   24.39   28.40    2.59    0.00    0.48
 1987 232    48     3     3     2.3  118.6   16621   97.9   20.7   1.9   5.4  13.7  12.3  10.7   4.0   2.0   1.3   0.0   0.0   0.1   0.8   2.1   1.3   1.2  1.92  0.95  0.62  0.00  0.00   24.77   28.87    2.62    0.00    0.48
 1987 233    49     3     3     2.3  118.9   16621   98.3   20.6   2.0   5.4  13.8  12.4  10.7   4.0   2.0   1.3   0.0   0.0   0.1   0.8   2.0   1.3   1.2  1.93  0.95  0.62  0.00  0.00   25.12   29.30    2.64    0.00    0.49
 1987 234    50     3     3     2.3  119.3   16621   98.7   20.5   2.2   5.5  13.9  12.4  10.7   4.0   2.0   1.3   0.0   0.0   0.1   0.7   2.0   1.3   1.2  1.95  0.95  0.61  0.00  0.00   25.46   29.72    2.66    0.00    0.49
 1987 235    51     3     3     2.3  119.4   16620   98.9   20.5   2.3   5.5  13.8  12.4  10.7   4.0   2.0   1.3   0.0   0.0   0.1   0.7   1.9   1.3   1.2  1.96  0.95  0.61  0.00  0.00   25.85   30.16    2.68    0.00    0.49
 1987 236    52     3     3     2.3  119.4   16620   99.1   20.3   2.5   5.6  13.8  12.5  10.7   4.0   2.1   1.4   0.0   0.0   0.1   0.7   1.8   1.3   1.2  1.97  0.95  0.61  0.00  0.00   26.28   30.72    2.69    0.00    0.49
 1987 237    53     3     3     2.3  119.6   16619   99.5   20.2   2.6   5.6  13.8  12.5  10.7   4.0   2.1   1.4   0.0   0.0   0.1   0.6   1.8   1.2   1.2  1.98  0.95  0.60  0.00  0.00   26.75   31.30    2.71    0.00    0.50
 1987 238    54     3     3     2.3  119.7   16619   99.6   20.0   2.7   5.7  13.7  12.6  10.7   4.0   2.1   1.4   0.0   0.0   0.1   0.6   1.7   1.2   1.2  2.00  0.95  0.60  0.00  0.00   27.27   31.93    2.72    0.00    0.50
 1987 239    55     3     3     2.3  119.3   16618   99.5   19.9   2.9   5.6  13.4  12.7  10.7   4.0   2.1   1.4   0.0   0.0   0.1   0.6   1.6   1.1   1.3  2.01  0.96  0.60  0.00  0.00   27.84   32.60    2.74    0.00    0.50
 1987 240    56     3     3     2.4  119.4   16618   99.6   19.7   1.4   4.4  12.3  13.0  11.6   4.4   2.2   1.4   0.0   0.0   0.1   0.6   1.6   1.1   1.3  2.02  0.96  0.60  0.00  0.00   28.42   33.26    2.75    0.00    0.50
 1987 241    57     3     3     3.7  117.9   16617   97.8   20.1   0.6   2.9   9.4  11.0  11.3   5.8   3.3   2.0   0.0   0.0   0.2   0.6   1.6   1.1   1.3  2.04  0.96  0.59  0.00  0.00   28.98   33.42    2.88    0.00    0.51
 1987 242    58     3     3     4.7  116.7   16617   96.2   20.4   0.6   2.8   8.9  10.6  10.9   5.8   3.4   2.1   0.0   0.0   0.3   0.7   1.7   1.2   1.3  2.05  0.97  0.59  0.00  0.00   29.52   33.56    3.08    0.00    0.51
 1987 243    59     3     3     5.3  115.6   16616   95.0   20.6   0.7   2.7   8.5  10.4  10.7   5.8   3.5   2.2   0.0   0.0   0.2   0.8   1.7   1.2   1.3  2.07  0.97  0.59  0.00  0.00   30.02   33.82    3.21    0.00    0.51
 1987 244    60     3     3     5.7  115.4   16616   94.7   20.7   0.9   2.7   8.4  10.2  10.6   5.8   3.6   2.2   0.0   0.0   0.1   0.7   1.7   1.2   1.3  2.08  0.97  0.59  0.00  0.00   30.50   34.16    3.28    0.00    0.52
 1987 245    61     3     3     5.8  115.6   16615   94.9   20.7   1.0   2.8   8.5  10.2  10.5   5.8   3.6   2.2   0.0   0.0   0.1   0.7   1.7   1.2   1.3  2.09  0.97  0.59  0.00  0.00   30.95   34.63    3.34    0.00    0.52
 1987 246    62     3     3     6.0  115.8   16615   95.1   20.6   1.2   2.9   8.5  10.2  10.5   5.8   3.6   2.3   0.0   0.0   0.1   0.7   1.6   1.2   1.3  2.11  0.98  0.59  0.00  0.00   31.38   35.08    3.37    0.00    0.53
 1987 247    63     3     3     6.0  115.2   16614   94.7   20.5   1.2   2.8   8.3  10.1  10.5   5.8   3.6   2.3   0.0   0.0   0.1   0.6   1.6   1.2   1.4  2.12  0.98  0.58  0.00  0.00   31.83   35.54    3.39    0.00    0.53
 1987 248    64     3     3     6.0  114.9   16614   94.5   20.4   1.3   2.8   8.1  10.1  10.5   5.8   3.6   2.3   0.0   0.0   0.1   0.6   1.5   1.2   1.4  2.13  0.98  0.58  0.00  0.00   32.29   36.08    3.40    0.00    0.53
 1987 249    65     3     3     6.0  115.3   16613   95.0   20.3   1.4   2.9   8.1  10.2  10.5   5.8   3.6   2.3   0.0   0.0   0.1   0.6   1.5   1.1   1.4  2.14  0.98  0.58  0.00  0.00   32.74   36.60    3.42    0.00    0.53
 1987 250    66     3     3     6.0  115.2   16613   95.0   20.2   1.5   3.0   8.1  10.2  10.6   5.8   3.6   2.3   0.0   0.0   0.1   0.6   1.4   1.1   1.4  2.15  0.98  0.57  0.00  0.00   33.19   37.11    3.43    0.00    0.54
 1987 251    67     3     3     6.0  115.5   16612   95.3   20.1   1.6   3.0   8.1  10.2  10.6   5.9   3.7   2.3   0.0   0.0   0.1   0.6   1.4   1.1   1.4  2.16  0.98  0.57  0.00  0.00   33.65   37.61    3.45    0.00    0.54
 1987 252    68     3     3     6.0  115.7   16612   95.7   20.1   1.7   3.1   8.1  10.3  10.6   5.9   3.7   2.3   0.0   0.0   0.1   0.5   1.4   1.0   1.4  2.18  0.98  0.57  0.00  0.00   34.13   38.13    3.46    0.00    0.54
 1987 253    69     3     3     6.0  115.5   16611   95.5   20.0   1.8   3.1   8.0  10.2  10.6   5.9   3.7   2.3   0.0   0.0   0.1   0.5   1.3   1.0   1.4  2.19  0.99  0.57  0.00  0.00   34.63   38.65    3.47    0.00    0.55
 1987 254    70     3     3     6.0  114.6   16611   94.7   19.9   1.8   3.1   7.6  10.1  10.6   5.9   3.7   2.3   0.0   0.0   0.1   0.5   1.3   1.0   1.4  2.20  0.99  0.56  0.00  0.00   35.13   39.18    3.48    0.00    0.55
 1987 255    71     3     3     6.0  114.1   16610   94.3   19.8   1.9   3.0   7.4  10.0  10.6   5.9   3.7   2.3   0.0   0.0   0.1   0.5   1.2   0.9   1.4  2.21  0.99  0.56  0.00  0.00   35.66   39.71    3.49    0.00    0.55
 1987 256    72     3     3     6.0  113.8   16610   94.1   19.7   1.9   3.0   7.2   9.9  10.7   5.9   3.7   2.3   0.0   0.0   0.1   0.5   1.2   0.9   1.4  2.22  0.99  0.56  0.00  0.00   36.18   40.34    3.50    0.00    0.55
 1987 257    73     3     3     6.0  113.8   16609   94.2   19.5   2.0   3.1   7.1   9.9  10.8   5.9   3.7   2.3   0.0   0.0   0.1   0.5   1.2   0.9   1.3  2.24  0.99  0.56  0.00  0.00   36.72   40.97    3.51    0.00    0.56
 1987 258    74     3     3     6.1  113.2   16609   93.8   19.4   0.7   2.1   6.0   9.1  11.1   6.6   4.0   2.4   0.0   0.0   0.1   0.5   1.1   0.9   1.3  2.25  0.99  0.55  0.00  0.00   37.25   41.58    3.52    0.00    0.56
 1987 259    75     3     3     7.0  111.8   16608   92.1   19.7   0.7   2.0   5.7   8.6  10.7   6.6   4.2   2.6   0.0   0.0   0.1   0.6   1.2   0.9   1.3  2.26  1.00  0.55  0.00  0.00   37.79   41.74    3.63    0.00    0.56
 1987 260    76     3     3     7.6  110.4   16608   90.5   19.9   0.8   1.9   5.3   8.2  10.5   6.6   4.3   2.7   0.0   0.0   0.1   0.6   1.2   0.9   1.3  2.28  1.00  0.55  0.00  0.00   38.30   41.95    3.70    0.00    0.56
 1987 261    77     3     3     7.9  110.1   16607   90.0   20.1   0.9   1.9   5.2   8.0  10.4   6.6   4.3   2.8   0.0   0.0   0.1   0.6   1.3   0.9   1.3  2.29  1.00  0.55  0.00  0.00   38.81   42.26    3.73    0.00    0.57
 1987 262    78     3     3     8.1  110.0   16607   89.9   20.1   1.0   2.0   5.2   7.9  10.4   6.5   4.4   2.8   0.0   0.0   0.1   0.6   1.2   0.9   1.3  2.30  1.00  0.55  0.00  0.00   39.28   42.68    3.76    0.00    0.57
 1987 263    79     3     3     8.1  109.4   16606   89.3   20.1   1.0   2.0   5.0   7.8  10.3   6.5   4.4   2.8   0.0   0.0   0.1   0.6   1.2   0.9   1.3  2.31  1.00  0.54  0.00  0.00   39.73   43.07    3.78    0.00    0.57
 1987 264    80     3     3     8.1  109.2   16606   89.2   20.0   1.1   2.0   4.9   7.7  10.3   6.5   4.4   2.8   0.0   0.0   0.1   0.6   1.2   0.9   1.3  2.32  1.00  0.54  0.00  0.00   40.17   43.52    3.80    0.00    0.58
 1987 265    81     3     3     8.1  109.7   16605   89.7   20.0   1.2   2.1   4.9   7.8  10.4   6.5   4.4   2.8   0.0   0.0   0.1   0.5   1.2   0.9   1.4  2.34  1.00  0.54  0.00  0.00   40.62   43.97    3.81    0.00    0.58
 1987 266    82     3     3     8.1  109.4   16605   89.5   20.0   1.2   2.1   4.8   7.7  10.4   6.5   4.4   2.8   0.0   0.0   0.1   0.5   1.1   0.9   1.4  2.35  1.01  0.54  0.00  0.00   41.06   44.40    3.83    0.00    0.58
 1987 267    83     3     3     8.1  109.5   16605   89.5   19.9   1.3   2.1   4.8   7.7  10.4   6.6   4.4   2.8   0.0   0.0   0.1   0.5   1.1   0.8   1.4  2.36  1.01  0.53  0.00  0.00   41.50   44.83    3.84    0.00    0.58
 1987 268    84     3     3     8.1  108.7   16604   88.8   19.9   1.3   2.0   4.5   7.5  10.4   6.6   4.4   2.9   0.0   0.0   0.1   0.5   1.1   0.8   1.4  2.37  1.01  0.53  0.00  0.00   41.97   45.27    3.86    0.00    0.59
 1987 269    85     3     3     8.1  107.7   16604   87.9   19.8   1.3   2.0   4.2   7.3  10.4   6.6   4.4   2.9   0.0   0.0   0.1   0.5   1.0   0.8   1.4  2.38  1.01  0.53  0.00  0.00   42.47   45.74    3.87    0.00    0.59
 1987 270    86     3     3     8.1  106.2   16603   86.5   19.7   1.3   1.8   3.8   7.1  10.3   6.6   4.4   2.9   0.0   0.0   0.1   0.5   1.0   0.8   1.4  2.39  1.01  0.53  0.00  0.00   43.02   46.24    3.88    0.00    0.59
 1987 271    87     3     3     8.1  104.8   16603   85.3   19.5   1.2   1.8   3.5   6.8  10.3   6.6   4.5   2.9   0.0   0.0   0.1   0.5   0.9   0.7   1.3  2.40  1.01  0.53  0.00  0.00   43.60   46.87    3.89    0.00    0.59
 1987 272    88     3     3     8.1  103.5   16602   84.1   19.3   1.2   1.7   3.2   6.6  10.2   6.6   4.5   2.9   0.0   0.0   0.1   0.5   0.9   0.7   1.3  2.42  1.01  0.52  0.00  0.00   44.19   47.50    3.90    0.00    0.60
 1987 273    89     3     3     8.1  102.1   16601   83.0   19.2   0.9   1.8   3.0   6.4  10.0   6.6   4.5   2.9   0.0   0.0   0.1   0.5   0.9   0.7   1.2  2.43  1.01  0.52  0.00  0.00   44.79   48.14    3.91    0.00    0.60
 1987 274    90     3     3     8.1  101.7   16601   82.5   19.2   0.9   1.8   2.9   6.3   9.9   6.6   4.5   2.9   0.0   0.0   0.2   0.5   0.9   0.7   1.2  2.44  1.01  0.52  0.00  0.00   45.40   48.69    3.92    0.00    0.60
 1987 275    91     3     3     8.1   99.1   16600   80.2   18.9   0.9   1.6   2.5   5.9   9.4   6.6   4.5   2.9   0.0   0.0   0.1   0.5   0.8   0.7   1.1  2.45  1.01  0.52  0.00  0.00   45.98   49.30    3.93    0.00    0.60
 1987 276    92     3     3     8.1   97.6   16600   78.8   18.8   0.9   1.5   2.3   5.7   9.1   6.6   4.5   2.9   0.0   0.0   0.1   0.5   0.8   0.7   1.0  2.46  1.02  0.52  0.00  0.00   46.54   49.85    3.94    0.00    0.61
 1987 277    93     3     3     8.1   97.0   16599   78.2   18.8   0.9   1.5   2.3   5.6   9.0   6.6   4.5   2.9   0.0   0.0   0.1   0.5   0.8   0.6   1.0  2.47  1.02  0.51  0.00  0.00   47.09   50.37    3.95    0.00    0.61
 1987 278    94     3     3     8.1   94.1   16599   75.5   18.6   0.8   1.3   1.9   5.2   8.4   6.6   4.5   2.9   0.0   0.0   0.1   0.5   0.8   0.6   0.9  2.49  1.02  0.51  0.00  0.00   47.63   50.89    3.96    0.00    0.62
 1987 279    95     3     3     8.1   91.2   16598   72.8   18.4   0.7   1.1   1.5   4.7   7.8   6.6   4.5   2.9   0.0   0.0   0.1   0.5   0.7   0.6   0.9  2.50  1.02  0.51  0.00  0.00   48.18   51.41    3.97    0.00    0.62
 1987 280    96     3     3     8.1   89.3   16597   70.9   18.3   0.7   1.0   1.3   4.4   7.4   6.6   4.5   2.9   0.0   0.0   0.1   0.5   0.7   0.6   0.8  2.51  1.02  0.51  0.00  0.00   48.75   51.94    3.97    0.00    0.62
 1987 281    97     3     3     8.1   87.8   16597   69.5   18.3   0.7   0.9   1.2   4.2   7.0   6.6   4.5   2.9   0.0   0.0   0.1   0.5   0.7   0.6   0.8  2.52  1.02  0.51  0.00  0.00   49.32   52.48    3.98    0.00    0.62
 1987 282    98     3     3     8.1   85.0   16596   66.9   18.1   0.6   0.8   0.9   3.8   6.3   6.7   4.5   2.9   0.0   0.0   0.1   0.5   0.7   0.6   0.8  2.53  1.02  0.50  0.00  0.00   49.90   53.00    3.99    0.00    0.63
 1987 283    99     3     3     8.1   81.6   16596   63.6   18.0   0.5   0.6   0.6   3.3   5.5   6.7   4.6   2.9   0.0   0.0   0.1   0.5   0.6   0.6   0.7  2.54  1.02  0.50  0.00  0.00   50.46   53.52    4.00    0.00    0.63
 1987 284   100     3     3     8.1   78.1   16595   60.2   17.8   0.2   0.4   0.4   2.7   4.7   6.7   4.6   2.9   0.0   0.0   0.1   0.4   0.6   0.5   0.7  2.55  1.02  0.50  0.00  0.00   51.02   54.03    4.00    0.00    0.63
 1987 285   101     3     3     8.1   74.9   16595   57.2   17.7   0.1   0.3   0.4   2.3   4.0   6.5   4.6   3.0   0.0   0.0   0.2   0.5   0.6   0.5   0.6  2.51  1.02  0.50  0.00  0.00   51.65   54.38    4.01    0.00    0.63
 1987 286   102     3     3     8.1   70.8   16594   53.7   17.2   0.3   0.3   0.3   1.8   3.3   6.1   4.6   3.0   0.0   0.0   0.1   0.6   0.6   0.5   0.6  2.38  1.02  0.50  0.00  0.00   52.30   54.93    4.01    0.00    0.64
 1987 287   103     3     3     8.1   68.2   16593   51.6   16.6   0.4   0.4   0.3   1.7   3.0   5.8   4.6   3.0   0.0   0.0   0.1   0.6   0.6   0.5   0.6  2.25  1.03  0.49  0.00  0.00   52.94   55.55    4.01    0.00    0.64
 1987 288   104     3     3     8.1   67.4   16593   51.0   16.4   0.3   0.5   0.4   1.7   2.9   5.6   4.6   3.0   0.0   0.0   0.1   0.5   0.7   0.5   0.6  2.20  1.03  0.49  0.00  0.00   53.55   56.13    4.02    0.00    0.64
 1987 289   105     3     3     8.1   66.3   16592   49.9   16.4   0.3   0.5   0.3   1.6   2.8   5.4   4.6   3.0   0.0   0.0   0.2   0.6   0.7   0.5   0.6  2.13  1.03  0.49  0.00  0.00   54.11   56.42    4.02    0.00    0.65
 1987 290   106     3     3     8.1   62.7   16592   47.1   15.7   0.4   0.4   0.3   1.4   2.5   5.0   4.6   3.0   0.0   0.0   0.1   0.7   0.7   0.5   0.6  1.98  1.03  0.49  0.00  0.00   54.65   56.88    4.02    0.00    0.65
 1987 291   107     3     3     8.1   58.6   16591   43.8   14.8   0.4   0.4   0.3   1.2   2.2   4.4   4.6   3.0   0.0   0.0   0.1   0.6   0.7   0.5   0.6  1.81  1.03  0.49  0.00  0.00   55.18   57.39    4.03    0.00    0.65
 1987 292   108     3     3     8.1   54.9   16591   40.9   14.0   0.3   0.4   0.3   1.1   1.9   3.9   4.6   3.0   0.0   0.0   0.1   0.5   0.6   0.5   0.5  1.65  1.03  0.49  0.00  0.00   55.73   57.88    4.03    0.00    0.66
 1987 293   109     3     3     8.1   52.0   16590   38.6   13.5   0.3   0.4   0.3   0.9   1.6   3.5   4.6   3.0   0.0   0.0   0.1   0.5   0.6   0.5   0.5  1.53  1.03  0.48  0.00  0.00   56.29   58.37    4.03    0.00    0.66
 1987 294   110     3     3     8.1   47.8   16590   35.1   12.7   0.4   0.4   0.3   0.7   1.3   2.9   4.7   3.0   0.0   0.0   0.1   0.5   0.6   0.5   0.5  1.35  1.03  0.48  0.00  0.00   56.88   58.87    4.04    0.00    0.66
 1987 295   111     3     3     8.1   44.4   16589   32.4   12.0   0.4   0.4   0.3   0.6   1.0   2.4   4.7   3.0   0.0   0.0   0.1   0.5   0.6   0.5   0.5  1.20  1.03  0.48  0.00  0.00   57.51   59.40    4.04    0.00    0.67
 1987 296   112     3     3     8.1   41.7   16588   30.1   11.5   0.4   0.4   0.3   0.5   0.8   2.0   4.7   3.0   0.0   0.0   0.1   0.5   0.6   0.5   0.5  1.08  1.03  0.48  0.00  0.00   58.14   59.92    4.04    0.00    0.67
 1987 297   113     3     3     8.1   39.5   16588   28.4   11.1   0.4   0.4   0.3   0.4   0.7   1.6   4.7   3.0   0.0   0.0   0.1   0.5   0.6   0.5   0.5  0.99  1.03  0.48  0.00  0.00   58.79   60.47    4.04    0.00    0.67
 1987 298   114     3     3     8.1   37.7   16587   27.0   10.8   0.4   0.4   0.3   0.3   0.6   1.4   4.7   3.0   0.0   0.0   0.1   0.5   0.6   0.5   0.5  0.91  1.03  0.48  0.00  0.00   59.45   61.03    4.05    0.00    0.67
 1987 299   115     3     3     8.1   36.2   16586   25.8   10.5   0.4   0.4   0.3   0.3   0.5   1.1   4.7   3.0   0.0   0.0   0.1   0.5   0.6   0.5   0.5  0.85  1.03  0.47  0.00  0.00   60.08   61.57    4.05    0.00    0.68
 1987 300   116     3     3     8.1   35.1   16586   24.9   10.2   0.4   0.4   0.3   0.3   0.4   0.9   4.7   3.0   0.0   0.0   0.1   0.4   0.6   0.5   0.5  0.80  1.01  0.47  0.00  0.00   60.70   62.14    4.05    0.00    0.68
 1987 301   117     3     3     8.1   34.2   16585   24.3    9.9   0.4   0.4   0.3   0.3   0.3   0.8   4.8   3.0   0.0   0.0   0.1   0.4   0.6   0.5   0.5  0.75  0.99  0.47  0.00  0.00   61.30   62.70    4.05    0.00    0.68
 1987 302   118     3     3     8.1   33.4   16585   23.7    9.7   0.4   0.4   0.3   0.3   0.3   0.6   4.8   3.0   0.0   0.0   0.1   0.4   0.6   0.5   0.5  0.72  0.97  0.47  0.00  0.00   61.85   63.22    4.05    0.00    0.68
 1987 303   119     3     3     8.1   32.8   16584   23.3    9.5   0.2   0.4   0.4   0.3   0.3   0.5   4.8   3.1   0.0   0.0   0.1   0.4   0.6   0.5   0.5  0.69  0.95  0.47  0.00  0.00   62.38   63.73    4.05    0.00    0.69
 1987 304   120     3     3     8.1   32.5   16584   22.9    9.6   0.2   0.3   0.3   0.3   0.3   0.5   4.9   3.1   0.0   0.0   0.2   0.5   0.6   0.5   0.5  0.67  0.94  0.47  0.00  0.00   63.05   64.11    4.05    0.00    0.69
 1987 305   121     3     3     8.1   32.4   16583   23.0    9.3   0.5   0.4   0.3   0.3   0.3   0.4   4.9   3.1   0.0   0.0   0.1   0.5   0.6   0.5   0.5  0.65  0.92  0.47  0.00  0.00   63.74   64.82    4.05    0.00    0.69
 1987 306   122     3     3     8.1   32.0   16582   22.8    9.2   0.4   0.4   0.3   0.3   0.3   0.3   4.9   3.1   0.0   0.0   0.1   0.5   0.6   0.5   0.5  0.63  0.90  0.46  0.00  0.00   64.45   65.43    4.05    0.00    0.69
 1987 307   123     3     3     8.1   31.8   16582   22.8    9.1   0.4   0.4   0.3   0.3   0.3   0.3   4.9   3.1   0.0   0.0   0.1   0.5   0.6   0.5   0.5  0.62  0.88  0.46  0.00  0.00   65.17   66.10    4.05    0.00    0.69
 1987 308   124     3     3     8.1   31.7   16581   22.8    9.0   0.4   0.4   0.3   0.3   0.3   0.3   5.0   3.1   0.0   0.0   0.1   0.5   0.6   0.5   0.5  0.61  0.86  0.46  0.00  0.00   65.88   66.74    4.06    0.00    0.70
 1987 309   125     3     3     8.1   31.7   16580   22.8    8.9   0.3   0.4   0.3   0.3   0.3   0.3   5.0   3.1   0.0   0.0   0.1   0.5   0.6   0.5   0.5  0.60  0.85  0.46  0.00  0.00   66.54   67.33    4.06    0.00    0.70
 1987 310   126     3     3     8.1   31.6   16580   22.7    9.0   0.2   0.2   0.4   0.3   0.3   0.3   5.0   3.1   0.0   0.0   0.2   0.6   0.6   0.5   0.5  0.59  0.83  0.46  0.00  0.00   67.16   67.69    4.06    0.00    0.70
 1987 311   127     3     3     8.1   31.4   16579   22.3    9.2   0.2   0.3   0.3   0.3   0.3   0.3   4.9   3.1   0.0   0.0   0.3   0.7   0.7   0.5   0.5  0.58  0.81  0.46  0.00  0.00   67.78   67.97    4.06    0.00    0.70
 1987 312   128     3     3     8.1   30.7   16579   22.0    8.7   0.5   0.4   0.3   0.3   0.3   0.3   4.6   3.1   0.0   0.0   0.1   0.5   0.6   0.5   0.4  0.58  0.78  0.46  0.00  0.00   68.41   68.66    4.06    0.00    0.70
 1987 313   129     3     3     8.1   29.0   16578   20.4    8.6   0.3   0.4   0.3   0.3   0.3   0.3   4.1   3.1   0.0   0.0   0.2   0.5   0.6   0.5   0.4  0.57  0.73  0.45  0.00  0.00   69.03   69.12    4.06    0.00    0.71
 1987 314   130     3     3     8.1   27.7   16577   19.3    8.4   0.5   0.4   0.3   0.3   0.3   0.3   3.6   3.1   0.0   0.0   0.1   0.5   0.6   0.5   0.4  0.57  0.69  0.45  0.00  0.00   69.63   69.68    4.06    0.00    0.71
 1987 315   131     3     3     8.1   26.5   16577   18.2    8.3   0.4   0.4   0.3   0.3   0.3   0.3   3.1   3.1   0.0   0.0   0.1   0.5   0.6   0.5   0.4  0.56  0.65  0.45  0.00  0.00   70.25   70.19    4.06    0.00    0.71
 1987 316   132     3     3     8.1   25.5   16576   17.3    8.2   0.4   0.4   0.3   0.3   0.3   0.3   2.7   3.1   0.0   0.0   0.1   0.5   0.6   0.5   0.4  0.56  0.63  0.45  0.00  0.00   70.89   70.71    4.06    0.00    0.72
 1987 317   133     3     3     8.1   24.6   16576   16.6    8.1   0.4   0.4   0.3   0.3   0.3   0.3   2.4   3.1   0.0   0.0   0.1   0.5   0.6   0.5   0.4  0.56  0.60  0.44  0.00  0.00   71.53   71.27    4.06    0.00    0.72
 1987 318   134     3     3     8.1   23.9   16575   15.9    8.0   0.1   0.2   0.3   0.3   0.3   0.3   2.1   3.2   0.0   0.0   0.1   0.5   0.6   0.5   0.4  0.56  0.58  0.43  0.00  0.00   72.17   71.84    4.06    0.00    0.72
 1987 319   135     3     3     8.1   23.4   16574   14.9    8.4   0.1   0.3   0.3   0.2   0.3   0.3   1.9   3.2   0.0   0.0   0.2   0.6   0.7   0.5   0.5  0.56  0.56  0.42  0.00  0.00   72.92   72.03    4.06    0.00    0.72
 1987 320   136     3     3     8.1   23.1   16574   14.6    8.5   0.4   0.3   0.3   0.3   0.3   0.3   1.7   3.2   0.0   0.0   0.1   0.7   0.7   0.6   0.5  0.57  0.54  0.41  0.00  0.00   73.71   72.44    4.06    0.00    0.73
 1987 321   137     3     3     8.1   22.8   16573   14.0    8.8   0.3   0.3   0.3   0.3   0.3   0.3   1.5   3.2   0.0   0.0   0.2   0.7   0.8   0.6   0.5  0.57  0.53  0.40  0.00  0.00   74.48   72.64    4.06    0.00    0.73
 1987 322   138     3     3     8.1   22.6   16572   13.9    8.7   0.5   0.3   0.3   0.3   0.3   0.3   1.3   3.2   0.0   0.0   0.1   0.7   0.8   0.6   0.5  0.57  0.52  0.39  0.00  0.00   75.27   73.07    4.06    0.00    0.73
 1987 323   139     3     3     9.7   20.6   16571   12.2    8.4   0.0   0.4   0.3   0.3   0.3   0.3   0.9   2.9   0.0   0.0   0.1   0.5   0.7   0.6   0.5  0.57  0.51  0.38  0.00  0.00   76.05   73.68    4.06    0.00    0.73
 1987 324   140     3     3    10.8   19.5   16571   10.6    8.9   0.0   0.3   0.3   0.2   0.2   0.2   0.8   2.6   0.0   0.0   0.2   0.6   0.8   0.6   0.5  0.59  0.52  0.38  0.00  0.00   76.80   73.78    4.06    0.00    0.74
 1987 325   141     3     3    11.0   19.3   16570   10.3    9.0   0.1   0.3   0.3   0.3   0.3   0.2   0.7   2.5   0.0   0.0   0.3   0.7   0.8   0.6   0.6  0.59  0.52  0.38  0.00  0.00   77.52   73.93    4.07    0.00    0.74
 1987 326   142     3     3    11.5   18.9   16569    9.7    9.2   0.2   0.3   0.3   0.3   0.3   0.2   0.5   2.4   0.0   0.0   0.4   0.7   0.8   0.6   0.6  0.59  0.52  0.39  0.00  0.00   78.23   74.10    4.07    0.00    0.74
 1987 327   143     3     3    11.5   18.5   16569    9.6    8.9   0.6   0.3   0.3   0.3   0.3   0.3   0.5   2.3   0.0   0.0   0.1   0.7   0.7   0.6   0.6  0.59  0.53  0.39  0.00  0.00   78.91   74.49    4.07    0.00    0.75
 1987 328   144     3     3    11.6   17.9   16568    9.3    8.6   0.3   0.4   0.3   0.3   0.3   0.3   0.4   2.1   0.0   0.0   0.1   0.5   0.7   0.6   0.6  0.59  0.52  0.39  0.00  0.00   79.56   74.97    4.07    0.00    0.75
 1987 329   145     3     3    11.6   17.3   16568    8.9    8.3   0.4   0.4   0.3   0.3   0.3   0.3   0.4   2.0   0.0   0.0   0.1   0.5   0.6   0.6   0.6  0.59  0.51  0.39  0.00  0.00   80.20   75.50    4.07    0.00    0.75
 1987 330   146     3     3    11.6   16.8   16567    8.5    8.3   0.3   0.4   0.3   0.3   0.3   0.3   0.4   1.9   0.0   0.0   0.2   0.5   0.6   0.6   0.5  0.59  0.50  0.38  0.00  0.00   80.86   75.96    4.07    0.00    0.75
 1987 331   147     3     3    11.6   16.4   16566    8.3    8.1   0.5   0.4   0.3   0.3   0.3   0.3   0.3   1.8   0.0   0.0   0.1   0.5   0.6   0.5   0.5  0.58  0.49  0.38  0.00  0.00   81.54   76.54    4.07    0.00    0.75
 1987 332   148     3     3    11.6   16.0   16566    7.9    8.1   0.4   0.4   0.3   0.3   0.3   0.3   0.3   1.7   0.0   0.0   0.1   0.5   0.6   0.5   0.5  0.58  0.49  0.38  0.00  0.00   82.22   77.07    4.07    0.00    0.76
 1987 333   149     3     3    11.6   15.7   16565    7.7    8.0   0.4   0.4   0.3   0.3   0.3   0.3   0.3   1.6   0.0   0.0   0.1   0.5   0.6   0.5   0.5  0.58  0.48  0.38  0.00  0.00   82.96   77.65    4.07    0.00    0.76
 1987 334   150     3     3    11.6   15.5   16564    7.5    8.0   0.4   0.4   0.3   0.3   0.3   0.3   0.3   1.5   0.0   0.0   0.1   0.5   0.6   0.5   0.5  0.58  0.48  0.37  0.00  0.00   83.74   78.29    4.07    0.00    0.76
 1987 335   151     3     3    11.6   15.3   16564    7.4    7.9   0.4   0.4   0.3   0.3   0.3   0.3   0.3   1.4   0.0   0.0   0.1   0.5   0.6   0.5   0.5  0.58  0.47  0.36  0.00  0.00   84.56   78.97    4.07    0.00    0.77
 1987 336   152     3     3    11.6   15.1   16563    7.2    7.9   0.4   0.4   0.3   0.3   0.3   0.3   0.3   1.3   0.0   0.0   0.1   0.5   0.6   0.5   0.5  0.58  0.47  0.35  0.00  0.00   85.44   79.71    4.07    0.00    0.77
 1987 337   153     3     3    11.6   14.9   16562    7.1    7.8   0.4   0.4   0.3   0.3   0.3   0.3   0.3   1.3   0.0   0.0   0.1   0.4   0.6   0.5   0.5  0.58  0.46  0.34  0.00  0.00   86.33   80.48    4.07    0.00    0.77
 1987 338   154     3     3    11.6   14.6   16561    6.9    7.8   0.1   0.3   0.3   0.3   0.3   0.3   0.3   1.2   0.0   0.0   0.1   0.4   0.6   0.5   0.5  0.58  0.46  0.33  0.00  0.00   87.19   81.20    4.07    0.00    0.77
 1987 339   155     3     3    11.6   14.6   16560    6.3    8.3   0.1   0.3   0.3   0.3   0.3   0.3   0.3   1.1   0.0   0.0   0.2   0.6   0.7   0.6   0.5  0.60  0.46  0.33  0.00  0.00   87.98   81.31    4.07    0.00    0.77
 1987 340   156     3     3    11.9   14.4   16560    5.7    8.7   0.2   0.3   0.3   0.3   0.2   0.2   0.3   1.0   0.0   0.0   0.3   0.7   0.8   0.6   0.6  0.60  0.47  0.32  0.00  0.00   88.76   81.47    4.07    0.00    0.78
 1987 341   157     3     3    11.9   14.4   16559    5.8    8.6   0.6   0.3   0.3   0.3   0.3   0.2   0.3   0.9   0.0   0.0   0.1   0.7   0.7   0.6   0.6  0.60  0.47  0.31  0.00  0.00   89.50   81.85    4.07    0.00    0.78
 1987 342   158     3     3    11.9   14.2   16558    5.8    8.4   0.3   0.5   0.3   0.3   0.3   0.3   0.3   0.9   0.0   0.0   0.1   0.5   0.7   0.6   0.6  0.60  0.47  0.31  0.00  0.00   90.21   82.23    4.07    0.00    0.78
 1987 343   159     3     3    11.9   14.0   16558    5.6    8.4   0.3   0.3   0.3   0.3   0.3   0.3   0.3   0.8   0.0   0.0   0.2   0.6   0.6   0.6   0.6  0.60  0.46  0.30  0.00  0.00   90.91   82.54    4.07    0.00    0.79
 1987 344   160     3     3    11.9   14.0   16557    5.7    8.2   0.5   0.3   0.3   0.3   0.3   0.3   0.3   0.8   0.0   0.0   0.1   0.6   0.6   0.6   0.6  0.60  0.46  0.29  0.00  0.00   91.65   83.11    4.07    0.00    0.79
 1987 345   161     3     3    11.9   13.7   16556    5.7    8.0   0.4   0.4   0.3   0.3   0.3   0.3   0.3   0.7   0.0   0.0   0.1   0.5   0.6   0.6   0.6  0.60  0.46  0.29  0.00  0.00   92.41   83.76    4.07    0.00    0.79
 1987 346   162     3     3    11.9   13.5   16556    5.6    7.9   0.4   0.4   0.3   0.3   0.3   0.3   0.3   0.7   0.0   0.0   0.1   0.5   0.6   0.6   0.5  0.59  0.45  0.28  0.00  0.00   93.16   84.36    4.07    0.00    0.80
 1987 347   163     3     3    11.9   13.3   16555    5.5    7.8   0.4   0.4   0.3   0.3   0.3   0.3   0.3   0.7   0.0   0.0   0.1   0.5   0.6   0.5   0.5  0.59  0.45  0.28  0.00  0.00   93.93   84.97    4.07    0.00    0.80
 1987 348   164     3     3    11.9   13.2   16554    5.5    7.8   0.4   0.4   0.3   0.3   0.3   0.3   0.3   0.6   0.0   0.0   0.1   0.5   0.6   0.5   0.5  0.59  0.45  0.27  0.00  0.00   94.71   85.58    4.07    0.00    0.80
 1987 349   165     3     3    11.9   13.1   16554    5.4    7.7   0.4   0.4   0.3   0.3   0.3   0.3   0.3   0.6   0.0   0.0   0.1   0.5   0.6   0.5   0.5  0.59  0.44  0.27  0.00  0.00   95.49   86.19    4.07    0.00    0.80
 1987 350   166     3     3    11.9   13.0   16553    5.3    7.7   0.1   0.3   0.3   0.3   0.3   0.3   0.3   0.6   0.0   0.0   0.1   0.5   0.6   0.5   0.5  0.59  0.44  0.26  0.00  0.00   96.27   86.81    4.07    0.00    0.81
 1987 351   167     3     3    11.9   12.9   16552    4.8    8.2   0.1   0.3   0.3   0.3   0.3   0.3   0.3   0.5   0.0   0.0   0.2   0.6   0.7   0.6   0.6  0.60  0.44  0.26  0.00  0.00   97.04   86.95    4.07    0.00    0.81
 1987 352   168     3     3    12.0   13.1   16552    4.8    8.4   0.5   0.3   0.3   0.3   0.3   0.2   0.3   0.5   0.0   0.0   0.1   0.7   0.7   0.6   0.6  0.60  0.44  0.25  0.00  0.00   97.81   87.25    4.07    0.00    0.81
 1987 353   169     3     3    12.0   13.2   16551    4.7    8.4   0.3   0.3   0.3   0.3   0.3   0.3   0.3   0.5   0.0   0.0   0.1   0.7   0.7   0.6   0.6  0.61  0.44  0.25  0.00  0.00   98.58   87.48    4.07    0.00    0.82
 1987 354   170     3     3    12.0   13.1   16550    5.1    8.1   0.4   0.5   0.3   0.3   0.3   0.3   0.3   0.5   0.0   0.0   0.1   0.5   0.6   0.6   0.6  0.60  0.44  0.24  0.00  0.00   99.36   88.08    4.07    0.00    0.82
 1987 355   171     3     3    12.0   12.9   16550    5.0    7.9   0.4   0.4   0.3   0.3   0.3   0.3   0.3   0.4   0.0   0.0   0.1   0.5   0.6   0.6   0.6  0.60  0.44  0.24  0.00  0.00  100.10   88.67    4.07    0.00    0.82
 1987 356   172     3     3    12.0   12.7   16549    4.9    7.8   0.4   0.4   0.3   0.3   0.3   0.3   0.3   0.4   0.0   0.0   0.1   0.5   0.6   0.6   0.6  0.60  0.43  0.23  0.00  0.00  100.84   89.25    4.07    0.00    0.82
 1987 357   173     3     3    12.0   12.6   16548    4.9    7.7   0.4   0.4   0.3   0.3   0.3   0.3   0.3   0.4   0.0   0.0   0.1   0.5   0.6   0.6   0.5  0.60  0.43  0.23  0.00  0.00  101.59   89.83    4.07    0.00    0.83
 1987 358   174     3     3    12.0   12.5   16548    4.8    7.7   0.4   0.4   0.3   0.3   0.3   0.3   0.3   0.4   0.0   0.0   0.1   0.5   0.6   0.5   0.5  0.60  0.43  0.23  0.00  0.00  102.34   90.40    4.07    0.00    0.83
 1987 359   175     3     3    12.0   12.4   16547    4.8    7.6   0.4   0.4   0.3   0.3   0.3   0.3   0.3   0.4   0.0   0.0   0.1   0.5   0.6   0.5   0.5  0.60  0.43  0.22  0.00  0.00  103.09   90.98    4.07    0.00    0.83
 1987 360   176     3     3    12.0   12.4   16546    4.8    7.6   0.4   0.4   0.3   0.3   0.3   0.3   0.3   0.3   0.0   0.0   0.1   0.5   0.6   0.5   0.5  0.59  0.43  0.22  0.00  0.00  103.84   91.55    4.07    0.00    0.84
 1987 361   177     3     3    12.0   12.3   16546    4.7    7.6   0.2   0.4   0.4   0.3   0.3   0.3   0.3   0.3   0.0   0.0   0.1   0.5   0.6   0.5   0.5  0.59  0.43  0.22  0.00  0.00  104.60   92.13    4.07    0.00    0.84
 1987 362   178     3     3    12.0   12.3   16545    4.3    8.0   0.2   0.3   0.3   0.3   0.3   0.3   0.3   0.3   0.0   0.0   0.2   0.6   0.7   0.6   0.5  0.59  0.42  0.21  0.00  0.00  105.39   92.36    4.07    0.00    0.84
 1987 363   179     3     3    12.0   12.6   16544    4.5    8.0   0.5   0.3   0.3   0.3   0.3   0.3   0.3   0.3   0.0   0.0   0.1   0.7   0.7   0.6   0.5  0.59  0.42  0.21  0.00  0.00  106.21   92.79    4.07    0.00    0.84
 1987 364   180     3     3    12.0   12.7   16543    4.3    8.3   0.3   0.3   0.3   0.3   0.3   0.3   0.3   0.3   0.0   0.0   0.2   0.7   0.8   0.6   0.6  0.59  0.42  0.21  0.00  0.00  107.01   92.98    4.07    0.00    0.85
 1987 365   181     3     3    12.0   12.8   16543    4.3    8.6   0.1   0.2   0.3   0.3   0.3   0.3   0.3   0.3   0.0   0.0   0.3   0.8   0.8   0.6   0.6  0.59  0.42  0.20  0.00  0.00  107.81   93.19    4.07    0.00    0.85
 1988 001   182     3     3    12.0   12.9   16542    4.3    8.6   0.6   0.3   0.3   0.3   0.2   0.2   0.3   0.3   0.0   0.0   0.0   0.8   0.9   0.6   0.6  0.60  0.42  0.20  0.00  0.00  108.62   93.57    4.09    0.00    0.85
 1988 002   183     3     3    12.1   12.8   16541    4.2    8.6   0.3   0.3   0.3   0.3   0.3   0.2   0.3   0.3   0.0   0.0   0.1   0.8   0.8   0.7   0.6  0.61  0.42  0.20  0.00  0.00  109.46   93.79    4.09    0.00    0.86
 1988 003   184     3     3    12.1   12.8   16541    4.6    8.2   0.5   0.5   0.3   0.3   0.3   0.3   0.3   0.3   0.0   0.0   0.1   0.5   0.8   0.6   0.6  0.61  0.42  0.20  0.00  0.00  110.30   94.36    4.09    0.00    0.86
 1988 004   185     3     3    12.1   12.6   16540    4.7    7.9   0.4   0.4   0.4   0.3   0.3   0.3   0.3   0.3   0.0   0.0   0.1   0.5   0.6   0.6   0.6  0.61  0.42  0.19  0.00  0.00  111.18   95.10    4.09    0.00    0.86
 1988 005   186     3     3    12.1   12.5   16539    4.8    7.7   0.3   0.4   0.4   0.3   0.3   0.3   0.3   0.3   0.0   0.0   0.1   0.5   0.6   0.6   0.6  0.61  0.42  0.19  0.00  0.00  112.11   95.86    4.09    0.00    0.87
 1988 006   187     3     3    12.1   12.5   16538    4.3    8.2   0.3   0.3   0.3   0.3   0.3   0.3   0.3   0.3   0.0   0.0   0.2   0.6   0.7   0.6   0.6  0.61  0.42  0.19  0.00  0.00  113.04   96.12    4.09    0.00    0.87
 1988 007   188     3     3    12.1   12.7   16538    4.5    8.2   0.6   0.3   0.3   0.3   0.3   0.3   0.3   0.3   0.0   0.0   0.0   0.7   0.8   0.6   0.6  0.61  0.42  0.19  0.00  0.00  113.93   96.59    4.09    0.00    0.87
 1988 008   189     3     3    12.1   12.6   16537    4.5    8.1   0.3   0.5   0.3   0.3   0.3   0.3   0.3   0.3   0.0   0.0   0.2   0.5   0.8   0.6   0.5  0.61  0.42  0.19  0.00  0.00  114.82   97.13    4.09    0.00    0.88
 1988 009   190     3     3    12.1   12.5   16536    4.7    7.8   0.5   0.4   0.4   0.3   0.3   0.3   0.3   0.3   0.0   0.0   0.1   0.5   0.7   0.6   0.5  0.61  0.42  0.19  0.00  0.00  115.70   97.88    4.09    0.00    0.88
 1988 010   191     3     3    12.1   13.4   16535    5.4    8.0   0.6   0.6   0.4   0.4   0.3   0.3   0.3   0.3   0.0   0.0   0.1   0.5   0.7   0.6   0.5  0.63  0.42  0.18  0.00  0.00  116.55   98.53    4.09    0.00    0.88
 1988 011   192     3     3    12.1   14.2   16535    6.1    8.1   0.8   0.7   0.5   0.4   0.4   0.3   0.3   0.3   0.0   0.0   0.1   0.5   0.8   0.6   0.6  0.65  0.42  0.18  0.00  0.00  117.44   99.25    4.09    0.00    0.88

*DSSAT Cropping System Model Ver. 4.0.2.000               Aug 03, 2016; 14:28:43

*RUN   2        : UYMZ                    
 MODEL          : MZCER040 - Maize           
 EXPERIMENT     : UYMZ0116 MZ    late to create DSS                             
 TREATMENT  1   : UYMZ                    

@YEAR DOY   DAS  NAPC  NI#M    NLCC   NIAD    NOAD   NITD   NHTD  NI1D  NI2D  NI3D  NI4D  NI5D  NI6D  NI7D  NI8D  NI9D  NI10  NH1D  NH2D  NH3D  NH4D  NH5D  NH6D  NH7D  NH8D  NH9D  NH10    NMNC    NITC    NDNC    NIMC    AMLC
 1988 184     0     0     0     0.0   99.5   16645   77.3   22.2  16.6  15.4  15.2   8.6   4.6   0.0   0.1   0.1   0.0   0.0   0.0   1.2   1.4   1.4   1.4  1.50  1.46  1.45  0.00  0.00    0.76    2.51    0.00    0.00    0.00
 1988 185     1     0     0     0.0  100.3   16645   78.7   21.5  16.6  15.8  15.4   8.8   4.7   0.1   0.1   0.1   0.0   0.0   0.1   1.0   1.4   1.3   1.4  1.51  1.42  1.40  0.00  0.00    1.51    3.93    0.00    0.00    0.00
 1988 186     2     0     0     0.0  101.0   16644   80.0   20.9   4.5  10.7  17.8  13.3   5.0   0.1   0.2   0.2   0.0   0.0   0.1   0.9   1.4   1.3   1.3  1.51  1.39  1.36  0.00  0.00    2.20    5.23    0.00    0.00    0.00
 1988 187     3     0     0     0.0  101.6   16643   80.6   20.9   2.8   8.8  16.1  13.3   7.7   0.4   0.2   0.2   0.0   0.0   0.1   1.0   1.5   1.3   1.3  1.51  1.35  1.31  0.00  0.00    2.82    5.82    0.00    0.00    0.00
 1988 188     4     3     3     0.1  105.0   16643   82.3   22.7   5.6   8.6  15.8  13.0   7.8   0.7   0.3   0.2   0.0   0.0   2.7   1.0   1.5   1.3   1.3  1.53  1.35  1.30  0.00  0.00    3.35    6.05    0.00    0.00    0.06
 1988 189     5     3     3     0.1  105.4   16642   83.2   22.1   6.9   8.6  15.6  12.7   7.8   0.8   0.3   0.3   0.0   0.0   1.3   1.1   1.6   1.3   1.3  1.54  1.35  1.29  0.00  0.00    3.80    7.01    0.00    0.00    0.10
 1988 190     6     3     3     0.1  105.7   16642   83.7   21.9   7.6   8.5  15.5  12.6   7.8   0.9   0.3   0.3   0.0   0.0   0.7   1.1   1.6   1.3   1.3  1.56  1.35  1.28  0.00  0.00    4.17    7.52    0.00    0.00    0.17
 1988 191     7     3     3     0.1  105.9   16642   84.1   21.8   8.1   8.6  15.5  12.6   7.8   1.0   0.3   0.3   0.0   0.0   0.3   1.0   1.7   1.4   1.3  1.57  1.34  1.27  0.00  0.00    4.53    7.99    0.04    0.00    0.25
 1988 192     8     3     3     0.1  106.2   16641   84.6   21.5   8.4   8.6  15.6  12.5   7.8   1.0   0.4   0.3   0.0   0.0   0.1   0.9   1.6   1.4   1.3  1.58  1.34  1.26  0.00  0.00    4.89    8.48    0.06    0.00    0.32
 1988 193     9     3     3     0.1  106.4   16641   85.0   21.4   8.7   8.6  15.6  12.5   7.8   1.0   0.4   0.3   0.0   0.0   0.0   0.9   1.6   1.4   1.3  1.60  1.34  1.25  0.00  0.00    5.23    8.90    0.07    0.00    0.37
 1988 194    10     3     3     0.1  106.8   16640   85.4   21.4   8.9   8.6  15.7  12.6   7.8   1.0   0.4   0.3   0.0   0.0   0.0   0.8   1.6   1.4   1.3  1.61  1.34  1.24  0.00  0.00    5.57    9.30    0.08    0.00    0.37
 1988 195    11     3     3     0.1  107.1   16640   85.8   21.3   9.1   8.7  15.7  12.6   7.9   1.0   0.4   0.3   0.0   0.0   0.0   0.8   1.5   1.4   1.3  1.62  1.34  1.23  0.00  0.00    5.90    9.68    0.09    0.00    0.38
 1988 196    12     3     3     0.1  107.4   16640   86.2   21.2   9.3   8.7  15.8  12.6   7.9   1.0   0.4   0.4   0.0   0.0   0.0   0.7   1.5   1.3   1.4  1.63  1.33  1.22  0.00  0.00    6.21   10.13    0.09    0.00    0.38
 1988 197    13     3     3     0.1  107.7   16639   86.7   21.0   9.5   8.7  15.8  12.7   7.9   1.0   0.4   0.4   0.0   0.0   0.0   0.7   1.5   1.3   1.4  1.65  1.33  1.21  0.00  0.00    6.55   10.58    0.10    0.00    0.39
 1988 198    14     3     3     0.1  108.1   16639   87.1   20.9   9.7   8.8  15.9  12.8   7.9   1.0   0.4   0.4   0.0   0.0   0.1   0.7   1.4   1.3   1.4  1.66  1.33  1.19  0.00  0.00    6.93   11.06    0.10    0.00    0.39
 1988 199    15     3     3     0.1  108.5   16639   87.7   20.8   9.9   8.8  16.0  12.8   7.9   1.0   0.5   0.4   0.0   0.0   0.1   0.6   1.4   1.2   1.4  1.67  1.33  1.18  0.00  0.00    7.37   11.58    0.11    0.00    0.39
 1988 200    16     3     3     0.1  109.0   16638   88.2   20.8  10.1   8.9  16.0  12.9   7.9   1.1   0.5   0.4   0.0   0.0   0.1   0.6   1.4   1.2   1.4  1.69  1.33  1.17  0.00  0.00    7.87   12.16    0.12    0.00    0.39
 1988 201    17     3     3     0.1  109.5   16638   88.9   20.7  10.3   9.0  16.1  12.9   8.0   1.1   0.5   0.4   0.0   0.0   0.1   0.6   1.4   1.1   1.4  1.70  1.32  1.16  0.00  0.00    8.42   12.79    0.12    0.00    0.40
 1988 202    18     3     3     0.1  110.1   16637   89.5   20.6  10.5   9.1  16.2  13.0   8.0   1.1   0.5   0.4   0.0   0.0   0.1   0.6   1.4   1.1   1.4  1.72  1.32  1.15  0.00  0.00    9.01   13.46    0.13    0.00    0.40
 1988 203    19     3     3     0.1  110.7   16636   90.2   20.5  10.7   9.2  16.3  13.1   8.0   1.1   0.5   0.5   0.0   0.0   0.1   0.6   1.3   1.1   1.4  1.73  1.32  1.14  0.00  0.00    9.59   14.11    0.13    0.00    0.40
 1988 204    20     3     3     0.1  111.3   16636   90.8   20.5  11.0   9.3  16.4  13.1   8.0   1.1   0.5   0.5   0.0   0.0   0.1   0.6   1.3   1.0   1.4  1.75  1.32  1.13  0.00  0.00   10.16   14.73    0.13    0.00    0.40
 1988 205    21     3     3     0.1  111.8   16635   91.5   20.3  10.7   9.6  16.5  13.2   8.1   1.1   0.5   0.5   0.0   0.0   0.1   0.5   1.3   1.0   1.4  1.76  1.32  1.12  0.00  0.00   10.68   15.40    0.13    0.00    0.41
 1988 206    22     3     3     0.1  112.2   16635   92.0   20.2  10.5   9.9  16.6  13.2   8.2   1.1   0.5   0.5   0.0   0.0   0.1   0.5   1.3   1.0   1.3  1.78  1.31  1.11  0.00  0.00   11.13   15.98    0.14    0.00    0.41
 1988 207    23     3     3     0.1  112.6   16635   92.5   20.1  10.5  10.0  16.6  13.3   8.2   1.1   0.6   0.5   0.0   0.0   0.1   0.5   1.3   1.0   1.3  1.79  1.31  1.10  0.00  0.00   11.52   16.49    0.14    0.00    0.41
 1988 208    24     3     3     0.1  113.0   16634   93.0   19.9  10.6  10.1  16.7  13.3   8.3   1.1   0.6   0.5   0.0   0.0   0.1   0.5   1.3   0.9   1.3  1.80  1.31  1.10  0.00  0.00   11.89   16.99    0.14    0.00    0.41
 1988 209    25     3     3     0.1  113.4   16634   93.6   19.8  10.7  10.1  16.7  13.3   8.3   1.1   0.6   0.5   0.0   0.0   0.1   0.5   1.3   0.9   1.2  1.81  1.31  1.09  0.00  0.00   12.30   17.50    0.14    0.00    0.42
 1988 210    26     3     3     0.1  113.8   16633   94.1   19.7  10.8  10.2  16.8  13.4   8.4   1.1   0.6   0.6   0.0   0.0   0.1   0.5   1.2   0.9   1.2  1.83  1.31  1.08  0.00  0.00   12.74   18.03    0.14    0.00    0.42
 1988 211    27     3     3     0.1  114.1   16633   94.4   19.7  10.8  10.2  16.9  13.4   8.5   1.1   0.6   0.6   0.0   0.0   0.1   0.5   1.2   0.9   1.2  1.84  1.30  1.07  0.00  0.00   13.22   18.59    0.15    0.00    0.42
 1988 212    28     3     3     0.1  114.6   16632   95.1   19.6  11.0  10.3  17.0  13.5   8.5   1.1   0.6   0.6   0.0   0.0   0.1   0.5   1.2   0.9   1.1  1.85  1.30  1.06  0.00  0.00   13.77   19.22    0.15    0.00    0.42
 1988 213    29     3     3     0.1  115.3   16632   95.8   19.5  11.2  10.4  17.1  13.5   8.6   1.1   0.6   0.6   0.0   0.0   0.1   0.5   1.2   0.8   1.1  1.87  1.30  1.05  0.00  0.00   14.39   19.92    0.15    0.00    0.43
 1988 214    30     3     3     0.1  115.9   16631   96.4   19.4   6.2  10.3  17.9  14.3   8.9   1.1   0.6   0.6   0.0   0.0   0.1   0.5   1.2   0.8   1.1  1.88  1.30  1.04  0.00  0.00   15.00   20.60    0.15    0.00    0.43
 1988 215    31     3     3     1.6  115.0   16630   95.2   19.8   1.8   5.7  12.5  12.0  10.9   4.3   1.9   0.7   0.0   0.0   0.2   0.6   1.3   0.8   1.1  1.90  1.30  1.03  0.00  0.00   15.59   20.80    0.15    0.00    0.43
 1988 216    32     3     3     2.1  115.0   16630   94.7   20.3   1.2   4.8  11.4  11.1  10.8   4.9   2.4   1.0   0.0   0.0   0.3   0.7   1.4   0.9   1.1  1.92  1.30  1.03  0.00  0.00   16.16   20.92    0.23    0.00    0.43
 1988 217    33     3     3     2.3  115.2   16629   94.6   20.6   1.2   4.6  11.2  10.9  10.7   5.0   2.5   1.1   0.0   0.0   0.3   0.7   1.4   0.9   1.1  1.93  1.30  1.03  0.00  0.00   16.66   21.05    0.32    0.00    0.44
 1988 218    34     3     3     2.8  115.0   16629   94.1   20.9   1.2   4.6  10.9  10.6  10.5   5.1   2.7   1.3   0.0   0.0   0.3   0.8   1.5   0.9   1.1  1.95  1.31  1.03  0.00  0.00   17.10   21.18    0.40    0.00    0.44
 1988 219    35     3     3     3.2  114.8   16629   93.7   21.1   1.3   4.5  10.7  10.4  10.3   5.1   2.8   1.4   0.0   0.0   0.2   0.8   1.6   0.9   1.1  1.96  1.31  1.02  0.00  0.00   17.51   21.42    0.64    0.00    0.45
 1988 220    36     3     3     3.4  114.9   16628   93.7   21.2   1.5   4.6  10.7  10.3  10.2   5.1   2.9   1.4   0.0   0.0   0.1   0.8   1.6   1.0   1.2  1.97  1.31  1.02  0.00  0.00   17.95   21.76    0.77    0.00    0.46
 1988 221    37     3     3     3.5  115.2   16628   93.9   21.3   1.7   4.6  10.7  10.2  10.1   5.1   2.9   1.5   0.0   0.0   0.1   0.7   1.7   1.0   1.2  1.99  1.31  1.01  0.00  0.00   18.41   22.11    0.82    0.00    0.46
 1988 222    38     3     3     3.6  115.6   16627   94.3   21.3   1.9   4.7  10.8  10.2  10.1   5.1   2.9   1.5   0.0   0.0   0.1   0.7   1.6   1.0   1.2  2.00  1.31  1.00  0.00  0.00   18.91   22.62    0.85    0.00    0.47
 1988 223    39     3     3     3.6  116.0   16627   94.8   21.3   2.1   4.8  10.9  10.2  10.1   5.2   2.9   1.5   0.0   0.0   0.1   0.7   1.6   1.0   1.2  2.01  1.31  0.99  0.00  0.00   19.39   23.12    0.87    0.00    0.47
 1988 224    40     3     3     3.6  116.4   16626   95.2   21.2   2.2   4.8  11.0  10.2  10.1   5.2   2.9   1.5   0.0   0.0   0.1   0.6   1.5   1.0   1.2  2.02  1.30  0.99  0.00  0.00   19.84   23.58    0.89    0.00    0.47
 1988 225    41     3     3     3.6  116.9   16626   95.7   21.2   2.4   4.9  11.0  10.3  10.1   5.2   2.9   1.5   0.0   0.0   0.1   0.6   1.5   1.0   1.2  2.04  1.30  0.98  0.00  0.00   20.28   24.10    0.91    0.00    0.47
 1988 226    42     3     3     3.6  117.3   16625   96.2   21.1   2.6   5.0  11.1  10.3  10.2   5.2   2.9   1.5   0.0   0.0   0.1   0.6   1.5   1.0   1.2  2.05  1.30  0.97  0.00  0.00   20.73   24.61    0.92    0.00    0.48
 1988 227    43     3     3     3.6  117.7   16625   96.7   21.0   2.7   5.0  11.2  10.4  10.2   5.2   3.0   1.5   0.0   0.0   0.1   0.6   1.5   0.9   1.2  2.06  1.30  0.96  0.00  0.00   21.18   25.11    0.94    0.00    0.48
 1988 228    44     3     3     3.6  118.2   16624   97.2   21.0   2.9   5.1  11.3  10.4  10.2   5.2   3.0   1.5   0.0   0.0   0.1   0.6   1.4   0.9   1.2  2.07  1.30  0.96  0.00  0.00   21.68   25.66    0.95    0.00    0.48
 1988 229    45     3     3     3.6  118.7   16624   97.7   20.9   3.1   5.2  11.4  10.5  10.2   5.2   3.0   1.6   0.0   0.0   0.1   0.6   1.4   0.9   1.2  2.09  1.30  0.95  0.00  0.00   22.22   26.24    0.97    0.00    0.49
 1988 230    46     3     3     3.6  119.0   16623   98.1   20.9   3.2   5.2  11.4  10.5  10.2   5.2   3.0   1.6   0.0   0.0   0.1   0.5   1.4   0.9   1.3  2.10  1.29  0.94  0.00  0.00   22.77   26.82    0.98    0.00    0.49
 1988 231    47     3     3     3.6  119.4   16623   98.6   20.9   3.3   5.3  11.5  10.6  10.2   5.2   3.0   1.6   0.0   0.0   0.1   0.5   1.4   0.9   1.3  2.11  1.29  0.93  0.00  0.00   23.32   27.40    1.00    0.00    0.49
 1988 232    48     3     3     3.6  119.8   16622   99.0   20.8   3.5   5.4  11.5  10.6  10.3   5.2   3.0   1.6   0.0   0.0   0.1   0.5   1.3   0.8   1.3  2.13  1.29  0.93  0.00  0.00   23.90   28.00    1.01    0.00    0.49
 1988 233    49     3     3     3.6  120.2   16622   99.4   20.8   2.4   5.4  11.9  10.7  10.3   5.2   3.0   1.6   0.0   0.0   0.1   0.5   1.3   0.8   1.3  2.14  1.29  0.92  0.00  0.00   24.49   28.60    1.02    0.00    0.50
 1988 234    50     3     3     3.6  120.2   16621   99.2   21.0   2.4   5.3  11.5  10.9  10.3   5.2   3.1   1.6   0.0   0.0   0.1   0.6   1.4   0.8   1.3  2.15  1.29  0.91  0.00  0.00   25.08   28.95    1.03    0.00    0.50
 1988 235    51     3     3     3.6  120.3   16620   99.1   21.2   2.5   5.1  11.4  10.9  10.4   5.2   3.1   1.6   0.0   0.0   0.1   0.7   1.4   0.8   1.3  2.17  1.29  0.91  0.00  0.00   25.68   29.35    1.04    0.00    0.50
 1988 236    52     3     3     3.6  120.5   16620   99.4   21.2   2.7   5.2  11.3  10.9  10.4   5.2   3.1   1.7   0.0   0.0   0.1   0.6   1.4   0.9   1.3  2.18  1.28  0.90  0.00  0.00   26.31   29.97    1.05    0.00    0.51
 1988 237    53     3     3     3.6  120.9   16619   99.7   21.1   2.9   5.2  11.3  10.9  10.4   5.3   3.1   1.7   0.0   0.0   0.1   0.6   1.4   0.9   1.3  2.20  1.28  0.89  0.00  0.00   26.95   30.60    1.06    0.00    0.53
 1988 238    54     3     3     3.6  120.6   16618   99.7   20.9   3.0   5.2  11.1  11.0  10.5   5.3   3.1   1.7   0.0   0.0   0.1   0.6   1.3   0.9   1.2  2.21  1.28  0.88  0.00  0.00   27.60   31.38    1.07    0.00    0.55
 1988 239    55     3     3     3.6  120.4   16618   99.6   20.8   3.1   5.1  10.9  11.0  10.6   5.3   3.1   1.7   0.0   0.0   0.1   0.6   1.3   0.8   1.2  2.22  1.28  0.88  0.00  0.00   28.23   32.12    1.08    0.00    0.57
 1988 240    56     3     3     3.6  120.4   16617   99.8   20.6   3.3   5.1  10.7  11.1  10.7   5.3   3.1   1.7   0.0   0.0   0.1   0.5   1.2   0.8   1.2  2.24  1.28  0.87  0.00  0.00   28.82   32.80    1.09    0.00    0.59
 1988 241    57     3     3     3.6  121.0   16617  100.4   20.6   3.4   5.2  10.8  11.1  10.7   5.3   3.2   1.7   0.0   0.0   0.1   0.5   1.2   0.8   1.1  2.25  1.28  0.86  0.00  0.00   29.37   33.41    1.10    0.00    0.61
 1988 242    58     3     3     3.6  121.4   16616  100.9   20.5   3.6   5.3  10.9  11.2  10.8   5.3   3.2   1.7   0.0   0.0   0.1   0.5   1.2   0.8   1.1  2.26  1.27  0.86  0.00  0.00   29.85   33.95    1.11    0.00    0.61
 1988 243    59     3     3     3.6  121.9   16616  101.4   20.4   3.7   5.4  11.0  11.2  10.8   5.3   3.2   1.7   0.0   0.0   0.1   0.5   1.2   0.8   1.1  2.27  1.27  0.85  0.00  0.00   30.31   34.47    1.12    0.00    0.61
 1988 244    60     3     3     3.6  122.0   16615  101.6   20.4   3.8   5.4  10.9  11.2  10.9   5.3   3.2   1.7   0.0   0.0   0.1   0.5   1.2   0.8   1.0  2.28  1.27  0.85  0.00  0.00   30.78   35.00    1.13    0.00    0.61
 1988 245    61     3     3     3.6  122.0   16615  101.7   20.3   3.9   5.4  10.8  11.3  10.9   5.3   3.2   1.7   0.0   0.0   0.1   0.5   1.2   0.7   1.0  2.30  1.27  0.84  0.00  0.00   31.29   35.56    1.14    0.00    0.62
 1988 246    62     3     3     3.6  121.9   16614  101.7   20.2   4.0   5.3  10.6  11.3  11.0   5.3   3.2   1.8   0.0   0.0   0.1   0.5   1.2   0.7   1.0  2.31  1.27  0.83  0.00  0.00   31.80   36.12    1.15    0.00    0.62
 1988 247    63     3     3     3.6  122.2   16614  102.1   20.2   4.1   5.4  10.6  11.3  11.0   5.3   3.2   1.8   0.0   0.0   0.1   0.5   1.2   0.7   1.0  2.32  1.27  0.83  0.00  0.00   32.31   36.67    1.16    0.00    0.62
 1988 248    64     3     3     3.6  122.7   16613  102.6   20.1   4.3   5.5  10.7  11.4  11.1   5.3   3.2   1.8   0.0   0.0   0.1   0.5   1.2   0.7   0.9  2.33  1.27  0.82  0.00  0.00   32.79   37.18    1.17    0.00    0.62
 1988 249    65     3     3     3.6  123.1   16613  103.1   20.1   4.4   5.5  10.7  11.4  11.1   5.3   3.2   1.8   0.0   0.0   0.1   0.5   1.1   0.7   0.9  2.34  1.26  0.82  0.00  0.00   33.25   37.68    1.18    0.00    0.63
 1988 250    66     3     3     3.6  123.3   16612  103.3   20.0   4.5   5.6  10.7  11.4  11.2   5.3   3.3   1.8   0.0   0.0   0.1   0.5   1.1   0.7   0.9  2.35  1.26  0.81  0.00  0.00   33.73   38.18    1.19    0.00    0.63
 1988 251    67     3     3     3.6  123.7   16612  103.7   20.0   3.7   6.1  10.7  11.5  11.2   5.3   3.3   1.8   0.0   0.0   0.1   0.5   1.1   0.7   0.9  2.37  1.26  0.81  0.00  0.00   34.22   38.70    1.20    0.00    0.63
 1988 252    68     3     3     3.6  124.1   16611  104.1   20.0   3.7   6.1  10.8  11.5  11.3   5.3   3.3   1.8   0.0   0.0   0.2   0.5   1.1   0.7   0.9  2.38  1.26  0.80  0.00  0.00   34.75   39.21    1.21    0.00    0.63
 1988 253    69     3     3     3.6  124.5   16611  104.5   20.0   3.0   6.2  11.1  11.5  11.3   5.3   3.3   1.8   0.0   0.0   0.1   0.5   1.1   0.7   0.9  2.39  1.26  0.80  0.00  0.00   35.34   39.83    1.22    0.00    0.64
 1988 254    70     3     3     3.6  124.6   16610  104.5   20.1   2.4   5.8  11.2  11.8  11.4   5.3   3.3   1.8   0.0   0.0   0.2   0.6   1.1   0.7   0.8  2.40  1.26  0.79  0.00  0.00   35.92   40.28    1.23    0.00    0.64
 1988 255    71     3     3     3.7  124.7   16610  104.4   20.3   2.3   5.6  10.9  11.8  11.5   5.4   3.3   1.9   0.0   0.0   0.3   0.7   1.2   0.7   0.8  2.41  1.26  0.78  0.00  0.00   36.46   40.59    1.24    0.00    0.64
 1988 256    72     3     3     3.7  125.0   16609  104.5   20.5   2.6   5.6  10.8  11.7  11.5   5.4   3.4   1.9   0.0   0.0   0.2   0.7   1.3   0.7   0.8  2.43  1.25  0.78  0.00  0.00   36.99   40.88    1.25    0.00    0.65
 1988 257    73     3     3     3.7  124.8   16609  104.2   20.7   2.7   5.5  10.5  11.7  11.5   5.5   3.4   1.9   0.0   0.0   0.1   0.7   1.3   0.7   0.9  2.44  1.25  0.77  0.00  0.00   37.53   41.26    1.26    0.00    0.66
 1988 258    74     3     3     3.7  123.7   16608  103.1   20.5   2.8   5.2  10.0  11.7  11.5   5.5   3.4   1.9   0.0   0.0   0.1   0.6   1.2   0.7   0.9  2.45  1.25  0.77  0.00  0.00   38.06   41.80    1.27    0.00    0.66
 1988 259    75     3     3     3.7  122.7   16607  102.3   20.5   2.9   5.0   9.6  11.6  11.6   5.5   3.4   1.9   0.0   0.0   0.1   0.6   1.2   0.7   0.9  2.46  1.25  0.76  0.00  0.00   38.58   42.31    1.28    0.00    0.66
 1988 260    76     3     3     3.7  122.6   16607  102.2   20.5   3.0   5.0   9.5  11.6  11.6   5.5   3.4   1.9   0.0   0.0   0.1   0.6   1.2   0.7   0.9  2.47  1.25  0.76  0.00  0.00   39.11   42.82    1.29    0.00    0.66
 1988 261    77     3     3     3.7  122.6   16606  102.2   20.4   3.1   5.0   9.4  11.6  11.6   5.5   3.4   1.9   0.0   0.0   0.1   0.6   1.2   0.7   0.9  2.48  1.25  0.75  0.00  0.00   39.60   43.35    1.30    0.00    0.67
 1988 262    78     3     3     3.7  123.1   16606  102.7   20.4   3.3   5.0   9.4  11.6  11.7   5.5   3.4   1.9   0.0   0.0   0.1   0.6   1.2   0.7   0.9  2.49  1.25  0.75  0.00  0.00   40.06   43.84    1.31    0.00    0.67
 1988 263    79     3     3     3.7  123.5   16606  103.2   20.3   3.5   5.1   9.5  11.6  11.7   5.5   3.5   2.0   0.0   0.0   0.1   0.5   1.2   0.7   0.8  2.50  1.25  0.74  0.00  0.00   40.50   44.31    1.31    0.00    0.67
 1988 264    80     3     3     3.7  123.1   16605  102.8   20.3   3.5   5.0   9.3  11.6  11.7   5.5   3.5   2.0   0.0   0.0   0.1   0.5   1.1   0.7   0.8  2.51  1.24  0.74  0.00  0.00   40.96   44.80    1.32    0.00    0.68
 1988 265    81     3     3     3.7  122.5   16605  102.3   20.2   3.2   5.1   9.0  11.5  11.8   5.5   3.5   2.0   0.0   0.0   0.1   0.5   1.1   0.6   0.8  2.52  1.24  0.74  0.00  0.00   41.47   45.32    1.33    0.00    0.68
 1988 266    82     3     3     4.3  121.8   16604  101.6   20.2   1.0   3.3   7.3   9.9  11.8   6.8   4.3   2.5   0.0   0.0   0.2   0.5   1.1   0.6   0.8  2.54  1.24  0.73  0.00  0.00   42.01   45.82    1.34    0.00    0.68
 1988 267    83     3     3     5.9  119.7   16604   99.2   20.5   0.7   2.6   6.3   8.7  11.1   7.2   4.8   2.9   0.0   0.0   0.1   0.6   1.2   0.7   0.8  2.55  1.25  0.73  0.00  0.00   42.55   46.00    1.48    0.00    0.68
 1988 268    84     3     3     7.2  117.2   16603   96.3   20.9   0.6   2.4   5.8   8.2  10.7   7.1   4.9   3.0   0.0   0.0   0.2   0.7   1.2   0.7   0.9  2.57  1.25  0.73  0.00  0.00   43.14   46.13    1.63    0.00    0.69
 1988 269    85     3     3     8.1  115.6   16602   94.5   21.1   0.7   2.2   5.4   7.8  10.5   7.0   4.9   3.1   0.0   0.0   0.1   0.7   1.2   0.7   0.9  2.58  1.25  0.73  0.00  0.00   43.71   46.39    1.73    0.00    0.69
 1988 270    86     3     3     8.4  115.2   16602   94.0   21.3   0.5   1.7   4.6   7.0  10.1   7.6   5.4   3.3   0.0   0.0   0.1   0.7   1.3   0.7   0.9  2.59  1.25  0.73  0.00  0.00   44.25   46.74    1.78    0.00    0.70
 1988 271    87     3     3     8.9  114.2   16601   92.6   21.6   0.4   1.6   4.3   6.6   9.7   7.6   5.5   3.6   0.0   0.0   0.2   0.7   1.3   0.8   0.9  2.61  1.26  0.72  0.00  0.00   44.76   46.86    2.12    0.00    0.70
 1988 272    88     3     3    10.5  112.1   16601   90.2   21.8   0.5   1.5   4.0   6.2   9.2   7.4   5.5   3.7   0.0   0.0   0.1   0.8   1.4   0.8   0.9  2.62  1.26  0.72  0.00  0.00   45.24   47.04    2.46    0.00    0.70
 1988 273    89     3     3    11.5  109.6   16600   87.7   21.9   0.5   1.4   3.6   5.8   8.8   7.3   5.5   3.8   0.0   0.0   0.1   0.8   1.4   0.8   0.9  2.63  1.26  0.72  0.00  0.00   45.71   47.24    2.65    0.00    0.71
 1988 274    90     3     3    12.0  107.3   16600   85.6   21.7   0.6   1.3   3.3   5.5   8.4   7.3   5.5   3.8   0.0   0.0   0.1   0.7   1.2   0.8   0.9  2.64  1.26  0.72  0.00  0.00   46.20   47.70    2.74    0.00    0.71
 1988 275    91     3     3    12.3  105.0   16599   83.5   21.4   0.6   1.2   2.9   5.2   8.0   7.2   5.5   3.8   0.0   0.0   0.1   0.7   1.1   0.8   0.9  2.66  1.26  0.71  0.00  0.00   46.72   48.18    2.79    0.00    0.71
 1988 276    92     3     3    12.5  102.5   16599   81.3   21.1   0.6   1.2   2.5   4.9   7.6   7.2   5.5   3.8   0.0   0.0   0.1   0.6   1.0   0.8   0.9  2.67  1.26  0.71  0.00  0.00   47.30   48.75    2.82    0.00    0.72
 1988 277    93     3     3    12.5  100.4   16598   79.5   20.9   0.4   1.1   2.3   4.7   7.2   7.2   5.5   3.8   0.0   0.0   0.1   0.6   0.9   0.7   0.9  2.68  1.26  0.71  0.00  0.00   47.91   49.34    2.83    0.00    0.72
 1988 278    94     3     3    12.6   98.1   16598   77.1   21.0   0.4   1.0   1.9   4.3   6.7   7.2   5.6   3.9   0.0   0.0   0.2   0.6   1.0   0.7   0.9  2.69  1.26  0.70  0.00  0.00   48.53   49.68    2.85    0.00    0.72
 1988 279    95     3     3    12.6   95.8   16597   75.1   20.7   0.5   0.8   1.6   4.0   6.2   7.2   5.6   3.9   0.0   0.0   0.1   0.7   0.9   0.7   0.8  2.70  1.26  0.70  0.00  0.00   49.14   50.23    2.86    0.00    0.72
 1988 280    96     3     3    12.6   93.5   16596   73.0   20.4   0.5   0.8   1.2   3.6   5.7   7.2   5.6   3.9   0.0   0.0   0.1   0.6   0.8   0.7   0.8  2.71  1.26  0.69  0.00  0.00   49.73   50.85    2.87    0.00    0.73
 1988 281    97     3     3    12.6   91.0   16596   70.8   20.2   0.5   0.7   1.0   3.3   5.2   7.3   5.6   3.9   0.0   0.0   0.1   0.6   0.7   0.6   0.7  2.72  1.26  0.69  0.00  0.00   50.32   51.40    2.88    0.00    0.73
 1988 282    98     3     3    12.6   88.2   16595   68.2   20.0   0.4   0.5   0.7   2.8   4.6   7.3   5.6   3.9   0.0   0.0   0.1   0.5   0.7   0.6   0.7  2.73  1.25  0.69  0.00  0.00   50.90   51.93    2.90    0.00    0.73
 1988 283    99     3     3    12.6   85.3   16595   65.5   19.8   0.4   0.4   0.4   2.4   3.9   7.3   5.6   3.9   0.0   0.0   0.1   0.5   0.6   0.6   0.7  2.74  1.25  0.68  0.00  0.00   51.52   52.48    2.91    0.00    0.74
 1988 284   100     3     3    12.6   83.9   16594   64.3   19.6   0.4   0.4   0.4   2.2   3.7   7.2   5.6   3.9   0.0   0.0   0.1   0.5   0.7   0.6   0.6  2.72  1.25  0.68  0.00  0.00   52.14   53.00    2.92    0.00    0.74
 1988 285   101     3     3    12.6   80.2   16593   61.1   19.1   0.4   0.4   0.3   1.9   3.1   6.8   5.6   3.9   0.0   0.0   0.1   0.5   0.6   0.6   0.6  2.61  1.25  0.67  0.00  0.00   52.76   53.53    2.93    0.00    0.74
 1988 286   102     3     3    12.6   77.1   16593   58.5   18.5   0.4   0.4   0.3   1.7   2.9   6.4   5.6   3.9   0.0   0.0   0.1   0.5   0.6   0.6   0.6  2.49  1.25  0.67  0.00  0.00   53.39   54.05    2.94    0.00    0.74
 1988 287   103     3     3    12.6   73.0   16592   55.3   17.7   0.4   0.4   0.3   1.5   2.5   5.8   5.7   3.9   0.0   0.0   0.1   0.5   0.6   0.5   0.6  2.30  1.25  0.67  0.00  0.00   54.00   54.66    2.94    0.00    0.75
 1988 288   104     3     3    12.6   70.6   16592   53.5   17.1   0.4   0.4   0.3   1.4   2.4   5.5   5.7   3.9   0.0   0.0   0.1   0.5   0.6   0.5   0.6  2.18  1.25  0.66  0.00  0.00   54.58   55.22    2.95    0.00    0.75
 1988 289   105     3     3    12.6   67.6   16591   51.1   16.5   0.4   0.4   0.3   1.3   2.1   5.0   5.7   3.9   0.0   0.0   0.1   0.5   0.6   0.5   0.6  2.03  1.25  0.66  0.00  0.00   55.15   55.78    2.95    0.00    0.75
 1988 290   106     3     3    12.6   64.8   16590   48.9   15.9   0.3   0.4   0.3   1.2   1.9   4.6   5.7   3.9   0.0   0.0   0.1   0.5   0.6   0.5   0.6  1.90  1.24  0.65  0.00  0.00   55.69   56.31    2.95    0.00    0.76
 1988 291   107     3     3    12.6   62.2   16590   46.8   15.3   0.3   0.3   0.3   1.1   1.8   4.3   5.7   4.0   0.0   0.0   0.1   0.4   0.6   0.5   0.5  1.78  1.24  0.65  0.00  0.00   56.20   56.80    2.96    0.00    0.76
 1988 292   108     3     3    12.6   60.4   16590   45.4   14.9   0.3   0.3   0.3   1.0   1.6   4.0   5.7   4.0   0.0   0.0   0.1   0.4   0.6   0.5   0.5  1.69  1.24  0.65  0.00  0.00   56.69   57.27    2.96    0.00    0.76
 1988 293   109     3     3    12.6   56.4   16589   42.3   14.1   0.2   0.4   0.4   0.8   1.4   3.4   5.7   4.0   0.0   0.0   0.1   0.4   0.6   0.5   0.5  1.52  1.24  0.64  0.00  0.00   57.18   57.76    2.97    0.00    0.76
 1988 294   110     3     3    12.6   54.3   16588   40.4   13.9   0.2   0.3   0.3   0.7   1.2   3.1   5.7   4.0   0.0   0.0   0.2   0.5   0.6   0.5   0.5  1.42  1.24  0.64  0.00  0.00   57.75   58.10    2.97    0.00    0.77
 1988 295   111     3     3    12.6   50.9   16588   37.6   13.2   0.4   0.3   0.3   0.6   1.0   2.5   5.7   4.0   0.0   0.0   0.1   0.6   0.6   0.5   0.5  1.26  1.24  0.64  0.00  0.00   58.36   58.56    2.97    0.00    0.77
 1988 296   112     3     3    12.6   48.1   16587   35.5   12.6   0.4   0.4   0.3   0.5   0.8   2.1   5.8   4.0   0.0   0.0   0.1   0.5   0.6   0.5   0.5  1.13  1.24  0.63  0.00  0.00   58.99   59.13    2.98    0.00    0.77
 1988 297   113     3     3    12.6   45.8   16587   33.6   12.1   0.4   0.4   0.3   0.4   0.6   1.7   5.8   4.0   0.0   0.0   0.1   0.5   0.6   0.5   0.5  1.02  1.23  0.63  0.00  0.00   59.65   59.69    2.98    0.00    0.77
 1988 298   114     3     3    12.6   43.9   16586   32.2   11.7   0.4   0.4   0.3   0.3   0.5   1.4   5.8   4.0   0.0   0.0   0.1   0.5   0.6   0.5   0.5  0.94  1.23  0.63  0.00  0.00   60.30   60.24    2.98    0.00    0.78
 1988 299   115     3     3    12.6   42.4   16585   31.0   11.4   0.4   0.4   0.3   0.3   0.4   1.2   5.8   4.0   0.0   0.0   0.1   0.5   0.6   0.5   0.5  0.87  1.23  0.62  0.00  0.00   60.97   60.81    2.98    0.00    0.78
 1988 300   116     3     3    12.6   41.2   16585   30.1   11.2   0.3   0.4   0.3   0.3   0.4   1.0   5.8   4.0   0.0   0.0   0.2   0.5   0.6   0.5   0.5  0.81  1.20  0.62  0.00  0.00   61.59   61.35    2.99    0.00    0.78
 1988 301   117     3     3    12.6   40.3   16584   29.5   10.8   0.5   0.4   0.3   0.3   0.3   0.8   5.9   4.0   0.0   0.0   0.1   0.5   0.6   0.5   0.5  0.77  1.18  0.62  0.00  0.00   62.18   61.96    2.99    0.00    0.79
 1988 302   118     3     3    12.6   39.4   16584   28.9   10.6   0.4   0.4   0.3   0.3   0.3   0.7   5.9   4.0   0.0   0.0   0.1   0.5   0.6   0.5   0.5  0.73  1.15  0.61  0.00  0.00   62.73   62.50    2.99    0.00    0.79
 1988 303   119     3     3    12.6   38.8   16583   28.5   10.3   0.4   0.4   0.3   0.3   0.3   0.6   5.9   4.0   0.0   0.0   0.1   0.5   0.6   0.5   0.5  0.70  1.13  0.61  0.00  0.00   63.27   63.05    2.99    0.00    0.79
 1988 304   120     3     3    12.6   38.4   16583   28.3   10.1   0.4   0.4   0.3   0.3   0.3   0.5   6.0   4.0   0.0   0.0   0.1   0.5   0.5   0.5   0.5  0.67  1.11  0.61  0.00  0.00   63.81   63.61    2.99    0.00    0.80
 1988 305   121     3     3    12.6   38.0   16582   28.1    9.9   0.1   0.3   0.4   0.4   0.3   0.4   6.0   4.1   0.0   0.0   0.1   0.4   0.5   0.5   0.5  0.65  1.08  0.60  0.00  0.00   64.35   64.18    2.99    0.00    0.80
 1988 306   122     3     3    12.6   37.8   16581   27.6   10.2   0.1   0.3   0.3   0.3   0.3   0.3   6.0   4.1   0.0   0.0   0.2   0.6   0.6   0.5   0.5  0.63  1.06  0.60  0.00  0.00   65.04   64.43    3.00    0.00    0.80
 1988 307   123     3     3    12.6   37.8   16581   27.7   10.1   0.4   0.4   0.3   0.3   0.3   0.3   6.1   4.1   0.0   0.0   0.1   0.5   0.7   0.5   0.5  0.62  1.04  0.60  0.00  0.00   65.72   64.97    3.00    0.00    0.80
 1988 308   124     3     3    12.6   37.6   16580   27.8    9.9   0.4   0.4   0.3   0.3   0.3   0.3   6.1   4.1   0.0   0.0   0.1   0.5   0.6   0.5   0.5  0.60  1.02  0.59  0.00  0.00   66.37   65.54    3.00    0.00    0.81
 1988 309   125     3     3    12.6   37.6   16580   27.8    9.7   0.4   0.4   0.3   0.3   0.3   0.3   6.1   4.1   0.0   0.0   0.1   0.5   0.6   0.5   0.5  0.59  1.00  0.59  0.00  0.00   66.98   66.07    3.00    0.00    0.81
 1988 310   126     3     3    12.6   37.6   16579   27.9    9.6   0.4   0.4   0.3   0.3   0.3   0.3   6.2   4.1   0.0   0.0   0.1   0.5   0.6   0.5   0.5  0.59  0.98  0.59  0.00  0.00   67.61   66.61    3.00    0.00    0.81
 1988 311   127     3     3    12.6   37.6   16578   28.1    9.6   0.4   0.4   0.3   0.3   0.3   0.3   6.2   4.1   0.0   0.0   0.1   0.5   0.6   0.5   0.5  0.58  0.96  0.58  0.00  0.00   68.28   67.20    3.00    0.00    0.81
 1988 312   128     3     3    12.6   37.6   16578   28.2    9.5   0.4   0.4   0.3   0.3   0.3   0.3   6.2   4.1   0.0   0.0   0.1   0.5   0.6   0.5   0.5  0.57  0.94  0.58  0.00  0.00   68.99   67.84    3.00    0.00    0.82
 1988 313   129     3     3    12.6   37.6   16577   28.3    9.3   0.4   0.4   0.3   0.3   0.3   0.3   6.2   4.1   0.0   0.0   0.1   0.5   0.6   0.5   0.5  0.57  0.92  0.58  0.00  0.00   69.70   68.52    3.00    0.00    0.82
 1988 314   130     3     3    12.6   35.6   16576   26.5    9.1   0.4   0.4   0.3   0.3   0.3   0.3   5.5   4.1   0.0   0.0   0.1   0.4   0.6   0.5   0.5  0.57  0.85  0.58  0.00  0.00   70.39   69.19    3.01    0.00    0.82
 1988 315   131     3     3    12.6   33.7   16576   24.9    8.8   0.4   0.4   0.3   0.3   0.3   0.3   4.8   4.1   0.0   0.0   0.1   0.4   0.6   0.5   0.5  0.56  0.79  0.57  0.00  0.00   71.04   69.83    3.01    0.00    0.82
 1988 316   132     3     3    12.6   32.0   16575   23.4    8.6   0.1   0.3   0.4   0.3   0.3   0.3   4.2   4.1   0.0   0.0   0.1   0.4   0.6   0.5   0.5  0.56  0.74  0.57  0.00  0.00   71.65   70.43    3.01    0.00    0.83
 1988 317   133     3     3    12.6   30.7   16574   21.8    8.9   0.1   0.2   0.2   0.3   0.3   0.3   3.7   4.1   0.0   0.0   0.2   0.5   0.7   0.5   0.5  0.56  0.70  0.57  0.00  0.00   72.36   70.72    3.01    0.00    0.83
 1988 318   134     3     3    12.6   29.7   16574   20.6    9.1   0.2   0.2   0.3   0.3   0.3   0.3   3.3   4.1   0.0   0.0   0.3   0.6   0.7   0.5   0.5  0.55  0.66  0.56  0.00  0.00   73.06   70.97    3.01    0.00    0.83
 1988 319   135     3     3    12.6   28.9   16573   19.9    8.9   0.6   0.3   0.3   0.3   0.3   0.3   2.9   4.2   0.0   0.0   0.0   0.7   0.7   0.6   0.5  0.55  0.63  0.55  0.00  0.00   73.77   71.48    3.01    0.00    0.83
 1988 320   136     3     3    12.6   27.9   16572   19.3    8.6   0.3   0.4   0.3   0.3   0.3   0.3   2.5   4.2   0.0   0.0   0.1   0.5   0.6   0.5   0.5  0.55  0.60  0.53  0.00  0.00   74.48   72.13    3.01    0.00    0.84
 1988 321   137     3     3    12.6   27.0   16572   18.7    8.4   0.4   0.4   0.3   0.3   0.3   0.3   2.2   4.2   0.0   0.0   0.1   0.5   0.6   0.5   0.5  0.55  0.58  0.52  0.00  0.00   75.19   72.78    3.01    0.00    0.84
 1988 322   138     3     3    12.6   26.3   16571   18.1    8.3   0.4   0.4   0.3   0.3   0.3   0.3   2.0   4.2   0.0   0.0   0.1   0.5   0.6   0.5   0.5  0.55  0.56  0.51  0.00  0.00   75.95   73.45    3.01    0.00    0.84
 1988 323   139     3     3    12.6   25.8   16570   17.6    8.2   0.4   0.4   0.3   0.3   0.3   0.3   1.7   4.2   0.0   0.0   0.1   0.5   0.6   0.5   0.5  0.55  0.54  0.49  0.00  0.00   76.74   74.18    3.01    0.00    0.85
 1988 324   140     3     3    12.6   25.2   16569   17.1    8.1   0.3   0.5   0.4   0.3   0.3   0.3   1.5   4.3   0.0   0.0   0.1   0.5   0.6   0.5   0.5  0.54  0.53  0.48  0.00  0.00   77.52   74.86    3.01    0.00    0.85
 1988 325   141     3     3    12.6   24.8   16569   16.5    8.3   0.3   0.3   0.3   0.3   0.3   0.3   1.3   4.3   0.0   0.0   0.2   0.6   0.6   0.5   0.5  0.54  0.52  0.47  0.00  0.00   78.30   75.32    3.01    0.00    0.85
 1988 326   142     3     3    12.6   24.5   16568   16.6    7.9   0.6   0.5   0.4   0.3   0.3   0.3   1.2   4.3   0.0   0.0   0.0   0.5   0.6   0.5   0.5  0.54  0.51  0.46  0.00  0.00   79.09   76.23    3.01    0.00    0.85
 1988 327   143     3     3    12.6   24.1   16567   15.8    8.2   0.3   0.3   0.3   0.3   0.3   0.3   1.0   4.3   0.0   0.0   0.2   0.6   0.7   0.5   0.5  0.54  0.50  0.45  0.00  0.00   79.81   76.53    3.01    0.00    0.85
 1988 328   144     3     3    12.6   23.8   16566   15.4    8.5   0.3   0.3   0.3   0.3   0.3   0.3   0.9   4.3   0.0   0.0   0.3   0.7   0.7   0.5   0.5  0.54  0.49  0.44  0.00  0.00   80.48   76.79    3.01    0.00    0.85
 1988 329   145     3     3    12.6   23.1   16566   15.0    8.2   0.6   0.3   0.3   0.3   0.3   0.3   0.8   4.1   0.0   0.0   0.1   0.7   0.6   0.5   0.5  0.54  0.48  0.43  0.00  0.00   81.15   77.38    3.01    0.00    0.86
 1988 330   146     3     3    12.6   22.1   16565   14.2    7.9   0.3   0.4   0.3   0.3   0.3   0.3   0.7   3.9   0.0   0.0   0.1   0.5   0.6   0.5   0.5  0.54  0.47  0.42  0.00  0.00   81.80   77.98    3.01    0.00    0.86
 1988 331   147     3     3    12.6   21.2   16565   13.4    7.8   0.4   0.4   0.3   0.3   0.3   0.3   0.7   3.6   0.0   0.0   0.1   0.5   0.6   0.5   0.5  0.54  0.47  0.41  0.00  0.00   82.44   78.55    3.01    0.00    0.86
 1988 332   148     3     3    12.6   20.5   16564   12.7    7.7   0.4   0.4   0.3   0.3   0.3   0.3   0.6   3.4   0.0   0.0   0.1   0.5   0.6   0.5   0.5  0.54  0.46  0.40  0.00  0.00   83.11   79.14    3.01    0.00    0.87
 1988 333   149     3     3    12.6   19.8   16563   12.1    7.7   0.4   0.4   0.3   0.3   0.3   0.3   0.5   3.2   0.0   0.0   0.1   0.5   0.6   0.5   0.5  0.54  0.45  0.39  0.00  0.00   83.78   79.72    3.01    0.00    0.87
 1988 334   150     3     3    12.6   19.1   16563   11.5    7.6   0.4   0.4   0.3   0.3   0.3   0.3   0.5   3.0   0.0   0.0   0.1   0.5   0.6   0.5   0.5  0.54  0.44  0.38  0.00  0.00   84.43   80.29    3.01    0.00    0.87
 1988 335   151     3     3    12.6   18.5   16562   11.0    7.5   0.4   0.4   0.3   0.3   0.3   0.3   0.4   2.8   0.0   0.0   0.1   0.5   0.6   0.5   0.5  0.53  0.44  0.37  0.00  0.00   85.06   80.86    3.01    0.00    0.87
 1988 336   152     3     3    12.6   17.9   16561   10.5    7.4   0.4   0.4   0.3   0.3   0.3   0.3   0.4   2.7   0.0   0.0   0.1   0.5   0.6   0.5   0.5  0.53  0.43  0.36  0.00  0.00   85.65   81.42    3.01    0.00    0.88
 1988 337   153     3     3    12.6   17.3   16561   10.0    7.3   0.4   0.4   0.3   0.3   0.3   0.3   0.3   2.5   0.0   0.0   0.1   0.4   0.6   0.5   0.5  0.53  0.42  0.35  0.00  0.00   86.21   81.96    3.01    0.00    0.88
 1988 338   154     3     3    12.6   16.8   16560    9.6    7.2   0.4   0.4   0.3   0.3   0.3   0.3   0.3   2.3   0.0   0.0   0.1   0.4   0.6   0.5   0.5  0.53  0.41  0.34  0.00  0.00   86.77   82.52    3.01    0.00    0.88
 1988 339   155     3     3    12.6   16.3   16560    9.2    7.1   0.2   0.4   0.4   0.3   0.3   0.3   0.3   2.2   0.0   0.0   0.1   0.4   0.6   0.5   0.5  0.53  0.41  0.33  0.00  0.00   87.33   83.11    3.01    0.00    0.88
 1988 340   156     3     3    12.6   15.9   16559    8.6    7.3   0.2   0.3   0.3   0.3   0.3   0.3   0.3   2.1   0.0   0.0   0.2   0.5   0.6   0.5   0.5  0.53  0.40  0.33  0.00  0.00   88.03   83.52    3.01    0.00    0.89
[...]
 1990 283    99     3     3     4.0   82.4   16595   65.8   16.5   0.6   1.1   2.8   6.4   7.7   5.1   3.0   2.0   0.0   0.0   0.1   0.7   0.9   0.7   0.8  2.18  0.74  0.33  0.00  0.00   51.66   57.24    1.36    0.00    0.63
 1990 284   100     3     3     4.2   78.9   16594   62.6   16.2   0.6   1.0   2.4   5.9   7.2   4.9   3.1   2.1   0.0   0.0   0.1   0.6   0.8   0.7   0.8  2.15  0.75  0.33  0.00  0.00   52.27   57.73    1.39    0.00    0.63
 1990 285   101     3     3     4.3   77.2   16593   61.1   16.1   0.3   0.8   1.9   4.8   6.7   5.3   3.5   2.2   0.0   0.0   0.1   0.6   0.8   0.7   0.8  2.13  0.75  0.33  0.00  0.00   52.88   58.23    1.40    0.00    0.64
 1990 286   102     3     3     5.2   71.0   16593   55.1   15.9   0.3   0.6   1.3   4.0   5.7   4.8   3.5   2.3   0.0   0.0   0.2   0.7   0.8   0.7   0.8  2.05  0.76  0.34  0.00  0.00   53.48   58.35    1.56    0.00    0.64
 1990 287   103     3     3     5.6   66.8   16592   51.3   15.5   0.4   0.5   1.1   3.5   5.1   4.5   3.5   2.4   0.0   0.0   0.1   0.7   0.8   0.7   0.8  1.97  0.77  0.34  0.00  0.00   54.09   58.70    1.63    0.00    0.64
 1990 288   104     3     3     5.8   62.6   16592   47.7   14.9   0.4   0.5   0.8   3.2   4.6   4.1   3.5   2.4   0.0   0.0   0.1   0.6   0.7   0.7   0.8  1.87  0.77  0.34  0.00  0.00   54.71   59.22    1.67    0.00    0.65
 1990 289   105     3     3     5.9   58.5   16591   44.3   14.2   0.4   0.5   0.6   2.8   4.2   3.7   3.5   2.4   0.0   0.0   0.1   0.5   0.7   0.6   0.7  1.77  0.77  0.34  0.00  0.00   55.32   59.74    1.69    0.00    0.65
 1990 290   106     3     3     6.0   54.9   16590   41.2   13.7   0.4   0.4   0.5   2.5   3.7   3.4   3.5   2.4   0.0   0.0   0.1   0.5   0.7   0.6   0.7  1.67  0.78  0.34  0.00  0.00   55.92   60.24    1.69    0.00    0.65
 1990 291   107     3     3     6.0   53.1   16590   39.8   13.3   0.4   0.4   0.4   2.3   3.5   3.2   3.5   2.4   0.0   0.0   0.1   0.5   0.7   0.6   0.7  1.60  0.78  0.34  0.00  0.00   56.53   60.78    1.70    0.00    0.65
 1990 292   108     3     3     6.0   47.6   16589   35.2   12.4   0.3   0.4   0.3   1.8   2.8   2.7   3.5   2.4   0.0   0.0   0.1   0.5   0.6   0.6   0.6  1.42  0.78  0.34  0.00  0.00   57.15   61.33    1.70    0.00    0.66
 1990 293   109     3     3     6.0   42.9   16589   31.3   11.7   0.2   0.4   0.3   1.4   2.2   2.3   3.5   2.4   0.0   0.0   0.2   0.5   0.6   0.6   0.6  1.26  0.79  0.34  0.00  0.00   57.77   61.79    1.70    0.00    0.66
 1990 294   110     3     3     6.0   39.4   16588   28.2   11.1   0.4   0.3   0.3   1.1   1.7   1.9   3.5   2.4   0.0   0.0   0.1   0.6   0.6   0.5   0.6  1.13  0.79  0.34  0.00  0.00   58.41   62.25    1.70    0.00    0.66
 1990 295   111     3     3     6.0   36.5   16587   25.9   10.6   0.4   0.4   0.3   0.9   1.4   1.5   3.5   2.4   0.0   0.0   0.1   0.5   0.6   0.5   0.6  1.03  0.79  0.34  0.00  0.00   59.07   62.80    1.71    0.00    0.67
 1990 296   112     3     3     6.0   34.2   16587   24.0   10.2   0.4   0.4   0.3   0.7   1.1   1.3   3.5   2.4   0.0   0.0   0.1   0.5   0.6   0.5   0.5  0.94  0.80  0.34  0.00  0.00   59.75   63.34    1.71    0.00    0.67
 1990 297   113     3     3     6.0   32.4   16586   22.5    9.9   0.4   0.4   0.3   0.5   0.9   1.1   3.5   2.4   0.0   0.0   0.1   0.5   0.6   0.5   0.5  0.87  0.80  0.34  0.00  0.00   60.43   63.87    1.71    0.00    0.67
 1990 298   114     3     3     6.0   30.9   16585   21.3    9.6   0.4   0.4   0.3   0.4   0.7   0.9   3.5   2.4   0.0   0.0   0.1   0.5   0.6   0.5   0.5  0.82  0.80  0.34  0.00  0.00   61.09   64.39    1.71    0.00    0.68
 1990 299   115     3     3     6.0   29.8   16585   20.3    9.4   0.4   0.4   0.3   0.4   0.6   0.7   3.6   2.4   0.0   0.0   0.1   0.5   0.6   0.5   0.5  0.77  0.81  0.34  0.00  0.00   61.75   64.91    1.71    0.00    0.68
 1990 300   116     3     3     6.0   28.8   16584   19.6    9.3   0.4   0.4   0.3   0.3   0.5   0.6   3.6   2.4   0.0   0.0   0.1   0.5   0.6   0.5   0.5  0.74  0.81  0.34  0.00  0.00   62.42   65.44    1.72    0.00    0.68
 1990 301   117     3     3     6.0   28.1   16583   19.0    9.1   0.4   0.4   0.3   0.3   0.4   0.5   3.6   2.4   0.0   0.0   0.1   0.5   0.6   0.5   0.5  0.71  0.81  0.34  0.00  0.00   63.08   65.97    1.72    0.00    0.68
 1990 302   118     3     3     6.0   27.6   16583   18.6    9.0   0.4   0.4   0.3   0.3   0.3   0.4   3.6   2.4   0.0   0.0   0.1   0.5   0.6   0.5   0.5  0.68  0.81  0.34  0.00  0.00   63.73   66.49    1.72    0.00    0.68
 1990 303   119     3     3     6.0   27.2   16582   18.2    8.9   0.1   0.4   0.4   0.3   0.3   0.4   3.6   2.4   0.0   0.0   0.2   0.5   0.6   0.5   0.5  0.66  0.80  0.34  0.00  0.00   64.38   67.01    1.72    0.00    0.69
 1990 304   120     3     3     6.0   26.7   16581   17.8    8.9   0.4   0.3   0.3   0.3   0.3   0.3   3.5   2.4   0.0   0.0   0.1   0.6   0.6   0.5   0.5  0.64  0.78  0.34  0.00  0.00   65.09   67.56    1.72    0.00    0.69
 1990 305   121     3     3     6.0   25.3   16581   16.7    8.6   0.3   0.4   0.3   0.3   0.3   0.3   3.1   2.5   0.0   0.0   0.1   0.5   0.6   0.5   0.5  0.63  0.73  0.34  0.00  0.00   65.78   68.16    1.72    0.00    0.69
 1990 306   122     3     3     6.0   24.3   16580   15.7    8.5   0.3   0.4   0.3   0.3   0.3   0.3   2.8   2.5   0.0   0.0   0.2   0.5   0.6   0.5   0.5  0.62  0.69  0.34  0.00  0.00   66.46   68.67    1.72    0.00    0.69
 1990 307   123     3     3     6.0   23.4   16580   15.1    8.3   0.6   0.4   0.3   0.3   0.3   0.3   2.4   2.5   0.0   0.0   0.1   0.5   0.6   0.5   0.5  0.61  0.66  0.34  0.00  0.00   67.15   69.34    1.72    0.00    0.70
 1990 308   124     3     3     6.0   22.5   16579   14.3    8.2   0.0   0.4   0.4   0.3   0.3   0.3   2.1   2.5   0.0   0.0   0.1   0.5   0.6   0.5   0.5  0.60  0.63  0.34  0.00  0.00   67.84   69.90    1.72    0.00    0.70
 1990 309   125     3     3     6.0   21.8   16578   13.3    8.5   0.1   0.3   0.3   0.3   0.3   0.3   1.9   2.5   0.0   0.0   0.2   0.6   0.7   0.5   0.5  0.59  0.60  0.34  0.00  0.00   68.52   70.11    1.72    0.00    0.70
 1990 310   126     3     3     6.0   21.3   16578   12.9    8.4   0.3   0.3   0.3   0.3   0.3   0.3   1.7   2.5   0.0   0.0   0.1   0.6   0.7   0.5   0.5  0.59  0.58  0.34  0.00  0.00   69.19   70.48    1.72    0.00    0.70
 1990 311   127     3     3     6.0   20.9   16577   12.7    8.2   0.4   0.4   0.3   0.3   0.3   0.3   1.5   2.5   0.0   0.0   0.1   0.5   0.6   0.5   0.5  0.58  0.56  0.34  0.00  0.00   69.84   71.04    1.72    0.00    0.71
 1990 312   128     3     3     6.0   20.3   16576   12.2    8.1   0.3   0.4   0.3   0.3   0.3   0.3   1.3   2.5   0.0   0.0   0.2   0.5   0.6   0.5   0.5  0.58  0.55  0.34  0.00  0.00   70.47   71.49    1.72    0.00    0.71
 1990 313   129     3     3     6.0   19.9   16576   11.9    7.9   0.4   0.4   0.3   0.3   0.3   0.3   1.1   2.5   0.0   0.0   0.1   0.5   0.6   0.5   0.5  0.57  0.54  0.33  0.00  0.00   71.06   72.02    1.72    0.00    0.71
 1990 314   130     3     3     6.0   19.4   16575   11.6    7.9   0.4   0.4   0.3   0.3   0.3   0.3   1.0   2.5   0.0   0.0   0.1   0.5   0.6   0.5   0.5  0.57  0.53  0.33  0.00  0.00   71.63   72.49    1.72    0.00    0.71
 1990 315   131     3     3     6.0   19.1   16575   11.3    7.8   0.4   0.4   0.3   0.3   0.3   0.3   0.9   2.5   0.0   0.0   0.1   0.5   0.6   0.5   0.5  0.57  0.52  0.32  0.00  0.00   72.23   72.97    1.72    0.00    0.71
 1990 316   132     3     3     6.0   18.9   16574   11.1    7.8   0.4   0.4   0.3   0.3   0.3   0.3   0.8   2.5   0.0   0.0   0.1   0.5   0.6   0.5   0.5  0.56  0.51  0.31  0.00  0.00   72.85   73.48    1.72    0.00    0.72
 1990 317   133     3     3     6.0   18.7   16573   10.9    7.7   0.4   0.4   0.3   0.3   0.3   0.3   0.7   2.5   0.0   0.0   0.1   0.5   0.6   0.5   0.5  0.56  0.50  0.31  0.00  0.00   73.47   73.99    1.72    0.00    0.72
 1990 318   134     3     3     6.0   18.5   16573   10.9    7.7   0.4   0.4   0.3   0.3   0.3   0.3   0.6   2.5   0.0   0.0   0.1   0.5   0.6   0.5   0.5  0.56  0.49  0.30  0.00  0.00   74.17   74.58    1.72    0.00    0.72
 1990 319   135     3     3     6.0   18.4   16572   10.8    7.6   0.4   0.4   0.3   0.3   0.3   0.3   0.6   2.6   0.0   0.0   0.1   0.5   0.6   0.5   0.5  0.56  0.49  0.30  0.00  0.00   74.91   75.22    1.72    0.00    0.72
 1990 320   136     3     3     6.0   18.2   16571   10.6    7.6   0.1   0.3   0.3   0.3   0.3   0.3   0.5   2.6   0.0   0.0   0.1   0.5   0.6   0.5   0.5  0.56  0.48  0.29  0.00  0.00   75.65   75.85    1.72    0.00    0.72
 1990 321   137     3     3     6.0   18.1   16571   10.1    8.1   0.2   0.3   0.3   0.3   0.3   0.3   0.5   2.5   0.0   0.0   0.2   0.6   0.7   0.5   0.5  0.56  0.48  0.29  0.00  0.00   76.39   76.02    1.72    0.00    0.73
 1990 322   138     3     3     6.0   18.0   16570    9.8    8.1   0.5   0.3   0.3   0.3   0.3   0.3   0.4   2.4   0.0   0.0   0.1   0.7   0.7   0.6   0.5  0.56  0.47  0.28  0.00  0.00   77.15   76.41    1.72    0.00    0.73
 1990 323   139     3     3     6.0   17.5   16569    9.7    7.8   0.3   0.5   0.3   0.3   0.3   0.3   0.4   2.3   0.0   0.0   0.1   0.5   0.6   0.6   0.5  0.57  0.46  0.27  0.00  0.00   77.90   77.05    1.72    0.00    0.73
 1990 324   140     3     3     6.0   17.0   16569    9.3    7.7   0.4   0.4   0.3   0.3   0.3   0.3   0.3   2.2   0.0   0.0   0.1   0.5   0.6   0.5   0.5  0.57  0.46  0.27  0.00  0.00   78.65   77.69    1.72    0.00    0.74
 1990 325   141     3     3     6.0   16.6   16568    8.9    7.6   0.4   0.4   0.3   0.3   0.3   0.3   0.3   2.0   0.0   0.0   0.1   0.5   0.6   0.5   0.5  0.57  0.45  0.27  0.00  0.00   79.43   78.31    1.72    0.00    0.74
 1990 326   142     3     3     6.0   16.2   16567    8.6    7.6   0.4   0.4   0.3   0.3   0.3   0.3   0.3   1.9   0.0   0.0   0.1   0.5   0.6   0.5   0.5  0.57  0.45  0.26  0.00  0.00   80.23   78.99    1.72    0.00    0.74
 1990 327   143     3     3     6.0   15.8   16566    8.3    7.5   0.4   0.4   0.3   0.3   0.3   0.3   0.3   1.8   0.0   0.0   0.1   0.5   0.6   0.5   0.5  0.57  0.44  0.26  0.00  0.00   81.05   79.66    1.72    0.00    0.74
 1990 328   144     3     3     6.0   15.5   16565    8.0    7.5   0.4   0.4   0.3   0.3   0.3   0.3   0.3   1.7   0.0   0.0   0.1   0.5   0.6   0.5   0.5  0.57  0.43  0.25  0.00  0.00   81.86   80.33    1.72    0.00    0.74
 1990 329   145     3     3     6.0   15.2   16565    7.7    7.5   0.4   0.4   0.3   0.3   0.3   0.3   0.3   1.6   0.0   0.0   0.1   0.5   0.6   0.5   0.5  0.57  0.43  0.25  0.00  0.00   82.64   80.96    1.72    0.00    0.75
 1990 330   146     3     3     6.0   15.0   16564    7.5    7.4   0.3   0.4   0.4   0.3   0.3   0.3   0.3   1.5   0.0   0.0   0.1   0.5   0.6   0.5   0.5  0.57  0.42  0.24  0.00  0.00   83.42   81.60    1.72    0.00    0.75
 1990 331   147     3     3     6.0   14.7   16563    7.1    7.6   0.3   0.3   0.3   0.3   0.3   0.3   0.3   1.4   0.0   0.0   0.2   0.6   0.6   0.5   0.5  0.57  0.42  0.24  0.00  0.00   84.17   82.00    1.72    0.00    0.75
 1990 332   148     3     3     6.0   14.6   16563    7.2    7.4   0.6   0.4   0.3   0.3   0.3   0.3   0.3   1.3   0.0   0.0   0.1   0.5   0.6   0.5   0.5  0.57  0.41  0.24  0.00  0.00   84.88   82.72    1.72    0.00    0.75
 1990 333   149     3     3     6.0   14.2   16562    6.9    7.4   0.3   0.4   0.3   0.3   0.3   0.3   0.3   1.2   0.0   0.0   0.1   0.5   0.6   0.5   0.5  0.57  0.41  0.23  0.00  0.00   85.57   83.26    1.72    0.00    0.76
 1990 334   150     3     3     6.0   14.0   16561    6.7    7.3   0.4   0.4   0.3   0.3   0.3   0.3   0.3   1.2   0.0   0.0   0.1   0.5   0.6   0.5   0.5  0.56  0.40  0.23  0.00  0.00   86.25   83.83    1.72    0.00    0.76
 1990 335   151     3     3     6.0   13.8   16561    6.5    7.3   0.4   0.4   0.3   0.3   0.3   0.3   0.3   1.1   0.0   0.0   0.1   0.5   0.6   0.5   0.5  0.56  0.40  0.22  0.00  0.00   86.91   84.37    1.72    0.00    0.76
 1990 336   152     3     3     6.0   13.6   16560    6.4    7.2   0.4   0.4   0.3   0.3   0.3   0.3   0.3   1.0   0.0   0.0   0.1   0.5   0.6   0.5   0.5  0.56  0.39  0.22  0.00  0.00   87.57   84.92    1.72    0.00    0.77
 1990 337   153     3     3     6.0   13.4   16559    6.2    7.2   0.3   0.4   0.3   0.3   0.3   0.3   0.3   1.0   0.0   0.0   0.1   0.5   0.6   0.5   0.5  0.56  0.39  0.22  0.00  0.00   88.22   85.47    1.72    0.00    0.77
 1990 338   154     3     3     6.0   13.2   16559    6.0    7.2   0.3   0.4   0.3   0.3   0.3   0.3   0.3   0.9   0.0   0.0   0.2   0.5   0.6   0.5   0.5  0.56  0.38  0.21  0.00  0.00   88.85   85.95    1.72    0.00    0.77
 1990 339   155     3     3     6.0   13.1   16558    6.0    7.1   0.5   0.4   0.3   0.3   0.3   0.3   0.3   0.9   0.0   0.0   0.1   0.5   0.6   0.5   0.5  0.56  0.38  0.21  0.00  0.00   89.47   86.56    1.72    0.00    0.77
 1990 340   156     3     3     6.0   12.9   16558    5.9    7.0   0.1   0.3   0.4   0.4   0.3   0.3   0.3   0.8   0.0   0.0   0.1   0.5   0.6   0.5   0.5  0.56  0.37  0.20  0.00  0.00   90.11   87.11    1.72    0.00    0.78
 1990 341   157     3     3     6.0   12.8   16557    5.4    7.4   0.0   0.1   0.2   0.2   0.3   0.3   0.3   0.8   0.0   0.0   0.2   0.6   0.7   0.5   0.5  0.55  0.37  0.20  0.00  0.00   90.80   87.31    1.72    0.00    0.78
 1990 342   158     3     3     6.0   12.9   16556    5.1    7.8   0.1   0.1   0.2   0.2   0.2   0.3   0.3   0.8   0.0   0.0   0.3   0.7   0.7   0.6   0.5  0.57  0.38  0.20  0.00  0.00   91.55   87.47    1.72    0.00    0.78
 1990 343   159     3     3     6.1   12.9   16556    5.1    7.8   0.6   0.2   0.2   0.2   0.3   0.2   0.3   0.7   0.0   0.0   0.0   0.7   0.7   0.6   0.5  0.58  0.37  0.19  0.00  0.00   92.32   87.89    1.72    0.00    0.79
 1990 344   160     3     3     6.7   12.2   16555    4.5    7.7   0.0   0.3   0.2   0.2   0.2   0.3   0.3   0.5   0.0   0.0   0.1   0.5   0.7   0.6   0.6  0.58  0.37  0.19  0.00  0.00   93.05   88.25    1.72    0.00    0.79
 1990 345   161     3     3     6.9   12.3   16554    4.2    8.1   0.0   0.3   0.2   0.2   0.2   0.2   0.2   0.5   0.0   0.0   0.2   0.6   0.8   0.6   0.6  0.59  0.38  0.19  0.00  0.00   93.70   88.33    1.73    0.00    0.79
 1990 346   162     3     3     7.0   12.4   16554    4.2    8.1   0.3   0.3   0.2   0.2   0.2   0.2   0.2   0.4   0.0   0.0   0.1   0.7   0.7   0.6   0.6  0.59  0.39  0.19  0.00  0.00   94.36   88.58    1.73    0.00    0.79
 1990 347   163     3     3     7.1   12.4   16553    4.3    8.1   0.4   0.3   0.2   0.2   0.2   0.2   0.2   0.4   0.0   0.0   0.1   0.7   0.7   0.6   0.6  0.60  0.39  0.19  0.00  0.00   95.01   88.77    1.74    0.00    0.79
 1990 348   164     3     3     7.1   12.4   16552    4.5    7.8   0.4   0.4   0.3   0.2   0.3   0.2   0.3   0.4   0.0   0.0   0.1   0.5   0.6   0.6   0.6  0.60  0.39  0.20  0.00  0.00   95.64   89.20    1.74    0.00    0.80
 1990 349   165     3     3     7.1   12.3   16552    4.7    7.6   0.4   0.4   0.3   0.3   0.3   0.3   0.3   0.3   0.0   0.0   0.1   0.5   0.6   0.6   0.6  0.59  0.39  0.19  0.00  0.00   96.30   89.72    1.74    0.00    0.80
 1990 350   166     3     3     7.1   12.2   16551    4.7    7.5   0.4   0.4   0.3   0.3   0.3   0.3   0.3   0.3   0.0   0.0   0.1   0.5   0.6   0.6   0.6  0.59  0.39  0.19  0.00  0.00   96.99   90.27    1.74    0.00    0.80
 1990 351   167     3     3     7.1   12.1   16551    4.7    7.5   0.4   0.4   0.3   0.3   0.3   0.3   0.3   0.3   0.0   0.0   0.1   0.5   0.6   0.6   0.5  0.59  0.39  0.19  0.00  0.00   97.72   90.83    1.74    0.00    0.81
 1990 352   168     3     3     7.1   12.1   16550    4.7    7.4   0.2   0.3   0.4   0.3   0.3   0.3   0.3   0.3   0.0   0.0   0.1   0.5   0.6   0.5   0.5  0.59  0.39  0.19  0.00  0.00   98.49   91.43    1.74    0.00    0.81
 1990 353   169     3     3     7.1   12.1   16549    4.2    7.9   0.2   0.3   0.3   0.3   0.3   0.3   0.3   0.3   0.0   0.0   0.2   0.6   0.7   0.6   0.6  0.59  0.39  0.18  0.00  0.00   99.27   91.60    1.74    0.00    0.81
 1990 354   170     3     3     7.1   12.4   16548    4.4    8.0   0.6   0.3   0.3   0.3   0.3   0.3   0.3   0.3   0.0   0.0   0.0   0.7   0.7   0.6   0.6  0.59  0.39  0.18  0.00  0.00  100.08   91.99    1.74    0.00    0.81
 1990 355   171     3     3     7.1   12.3   16548    4.6    7.7   0.3   0.5   0.3   0.3   0.3   0.3   0.3   0.3   0.0   0.0   0.1   0.5   0.6   0.6   0.6  0.59  0.39  0.18  0.00  0.00  100.90   92.56    1.74    0.00    0.82
 1990 356   172     3     3     7.1   12.2   16547    4.7    7.5   0.3   0.3   0.4   0.3   0.3   0.3   0.3   0.3   0.0   0.0   0.1   0.5   0.6   0.6   0.6  0.59  0.39  0.18  0.00  0.00  101.71   93.23    1.74    0.00    0.82
 1990 357   173     3     3     7.1   12.2   16546    4.2    8.0   0.3   0.3   0.3   0.3   0.3   0.3   0.3   0.3   0.0   0.0   0.2   0.6   0.7   0.6   0.6  0.60  0.39  0.17  0.00  0.00  102.49   93.36    1.74    0.00    0.82
 1990 358   174     3     3     7.1   12.4   16546    4.4    8.1   0.5   0.3   0.3   0.3   0.3   0.3   0.3   0.3   0.0   0.0   0.1   0.7   0.7   0.6   0.6  0.60  0.39  0.17  0.00  0.00  103.29   93.73    1.74    0.00    0.83
 1990 359   175     3     3     7.1   12.5   16545    4.1    8.4   0.3   0.3   0.3   0.3   0.2   0.2   0.3   0.3   0.0   0.0   0.2   0.7   0.8   0.6   0.6  0.60  0.39  0.17  0.00  0.00  104.07   93.85    1.74    0.00    0.83
 1990 360   176     3     3     7.2   12.7   16544    4.3    8.4   0.5   0.3   0.3   0.3   0.3   0.3   0.3   0.3   0.0   0.0   0.1   0.7   0.8   0.6   0.6  0.60  0.39  0.17  0.00  0.00  104.86   94.19    1.74    0.00    0.83
 1990 361   177     3     3     7.2   12.5   16543    4.5    8.1   0.4   0.5   0.3   0.3   0.3   0.3   0.3   0.3   0.0   0.0   0.1   0.5   0.8   0.6   0.6  0.60  0.40  0.17  0.00  0.00  105.66   94.68    1.74    0.00    0.84
 1990 362   178     3     3     7.2   12.4   16543    4.7    7.7   0.4   0.4   0.3   0.3   0.3   0.3   0.3   0.3   0.0   0.0   0.1   0.5   0.6   0.6   0.6  0.60  0.40  0.17  0.00  0.00  106.50   95.40    1.74    0.00    0.84
 1990 363   179     3     3     7.2   12.2   16542    4.6    7.6   0.4   0.4   0.3   0.3   0.3   0.3   0.3   0.3   0.0   0.0   0.1   0.5   0.6   0.6   0.6  0.60  0.40  0.17  0.00  0.00  107.31   96.04    1.74    0.00    0.84
 1990 364   180     3     3     7.2   12.1   16541    4.6    7.5   0.4   0.4   0.3   0.3   0.3   0.3   0.3   0.3   0.0   0.0   0.1   0.5   0.6   0.6   0.6  0.60  0.40  0.17  0.00  0.00  108.12   96.67    1.74    0.00    0.84
 1990 365   181     3     3     7.2   12.1   16541    4.6    7.4   0.4   0.4   0.3   0.3   0.3   0.3   0.3   0.3   0.0   0.0   0.1   0.5   0.6   0.5   0.5  0.60  0.40  0.16  0.00  0.00  108.93   97.29    1.74    0.00    0.85
 1991 001   182     3     3     7.2   12.0   16540    4.6    7.4   0.4   0.4   0.3   0.3   0.3   0.3   0.3   0.3   0.0   0.0   0.1   0.5   0.6   0.5   0.5  0.60  0.40  0.16  0.00  0.00  109.72   97.90    1.74    0.00    0.85
 1991 002   183     3     3     7.2   12.0   16539    4.6    7.4   0.4   0.4   0.3   0.3   0.3   0.3   0.3   0.3   0.0   0.0   0.1   0.5   0.6   0.5   0.5  0.60  0.40  0.16  0.00  0.00  110.51   98.50    1.74    0.00    0.85
 1991 003   184     3     3     7.2   12.0   16539    4.6    7.3   0.4   0.4   0.3   0.3   0.3   0.3   0.3   0.3   0.0   0.0   0.1   0.5   0.6   0.5   0.5  0.60  0.40  0.16  0.00  0.00  111.32   99.12    1.74    0.00    0.85
 1991 004   185     3     3     7.2   12.8   16538    5.3    7.5   0.6   0.6   0.4   0.3   0.3   0.3   0.3   0.3   0.0   0.0   0.1   0.4   0.7   0.5   0.5  0.61  0.40  0.16  0.00  0.00  112.15   99.78    1.74    0.00    0.86
 1991 005   186     3     3     7.2   13.6   16537    5.9    7.7   0.7   0.7   0.5   0.4   0.4   0.3   0.3   0.3   0.0   0.0   0.1   0.4   0.7   0.5   0.5  0.63  0.40  0.16  0.00  0.00  112.97  100.45    1.74    0.00    0.86
