*SOIL TEMPERATURE OUTPUT FILE (DAILY)

*DSSAT Cropping System Model Ver. 4.0.2.000               Aug 03, 2016; 14:28:43

*RUN   1        : UYMZ                    
 MODEL          : MZCER040 - Maize           
 EXPERIMENT     : UYMZ0116 MZ    late to create DSS                             
 TREATMENT  1   : UYMZ                    

@YEAR DOY   DAS  TS1D  TS2D  TS3D  TS4D  TS5D  TS6D  TS7D  TS8D  TS9D  TS10
 1987 184     0  16.1  16.5  16.9  17.4  17.7  17.9  17.9  17.8   0.0   0.0
 1987 185     1  16.3  16.6  17.1  17.5  17.7  17.9  17.9  17.9   0.0   0.0
 1987 186     2  16.9  17.1  17.4  17.8  18.0  18.1  18.0  17.9   0.0   0.0
 1987 187     3  17.6  17.7  17.9  18.1  18.2  18.2  18.1  18.0   0.0   0.0
 1987 188     4  17.6  17.7  17.9  18.1  18.2  18.2  18.1  18.0   0.0   0.0
 1987 189     5  17.7  17.8  18.0  18.1  18.2  18.2  18.1  18.0   0.0   0.0
 1987 190     6  17.2  17.3  17.6  17.8  18.0  18.1  18.0  18.0   0.0   0.0
 1987 191     7  17.2  17.4  17.6  17.8  18.0  18.1  18.1  18.0   0.0   0.0
 1987 192     8  17.5  17.6  17.8  18.0  18.1  18.2  18.1  18.0   0.0   0.0
 1987 193     9  17.9  17.9  18.0  18.1  18.2  18.2  18.1  18.0   0.0   0.0
 1987 194    10  17.5  17.6  17.7  17.9  18.0  18.1  18.1  18.0   0.0   0.0
 1987 195    11  18.0  18.0  18.1  18.2  18.3  18.3  18.2  18.0   0.0   0.0
 1987 196    12  19.0  18.9  18.7  18.7  18.6  18.5  18.3  18.1   0.0   0.0
 1987 197    13  19.0  18.8  18.7  18.6  18.6  18.5  18.3  18.1   0.0   0.0
 1987 198    14  17.9  17.9  18.0  18.1  18.2  18.2  18.1  18.0   0.0   0.0
 1987 199    15  17.2  17.2  17.4  17.7  17.9  18.0  18.0  17.9   0.0   0.0
 1987 200    16  14.6  15.1  15.7  16.4  16.9  17.3  17.6  17.6   0.0   0.0
 1987 201    17  11.9  12.7  13.8  14.9  15.8  16.6  17.1  17.3   0.0   0.0
 1987 202    18  10.1  11.1  12.6  14.0  15.1  16.2  16.8  17.1   0.0   0.0
 1987 203    19   9.8  10.8  12.4  13.8  14.9  16.1  16.8  17.1   0.0   0.0
 1987 204    20  10.5  11.5  12.8  14.2  15.2  16.3  16.9  17.1   0.0   0.0
 1987 205    21  13.1  13.7  14.6  15.5  16.2  16.9  17.3  17.4   0.0   0.0
 1987 206    22  15.9  16.1  16.5  16.9  17.2  17.6  17.7  17.7   0.0   0.0
 1987 207    23  16.1  16.3  16.6  17.0  17.3  17.6  17.8  17.8   0.0   0.0
 1987 208    24  17.5  17.5  17.6  17.7  17.8  18.0  18.0  17.9   0.0   0.0
 1987 209    25  17.7  17.7  17.7  17.8  17.9  18.0  18.0  17.9   0.0   0.0
 1987 210    26  16.9  16.9  17.1  17.3  17.6  17.8  17.9  17.8   0.0   0.0
 1987 211    27  14.5  14.8  15.4  16.1  16.6  17.1  17.5  17.5   0.0   0.0
 1987 212    28  13.9  14.3  15.0  15.8  16.4  17.0  17.4  17.5   0.0   0.0
 1987 213    29  13.4  13.9  14.6  15.5  16.1  16.8  17.3  17.4   0.0   0.0
 1987 214    30  13.7  14.2  14.9  15.6  16.3  16.9  17.3  17.4   0.0   0.0
 1987 215    31  14.0  14.4  15.1  15.8  16.4  17.0  17.3  17.5   0.0   0.0
 1987 216    32  14.0  14.4  15.1  15.8  16.3  17.0  17.3  17.5   0.0   0.0
 1987 217    33  14.3  14.6  15.2  15.9  16.4  17.0  17.4  17.5   0.0   0.0
 1987 218    34  13.0  13.6  14.4  15.2  15.9  16.7  17.2  17.3   0.0   0.0
 1987 219    35  12.2  12.8  13.7  14.7  15.6  16.4  17.0  17.2   0.0   0.0
 1987 220    36  11.9  12.5  13.5  14.6  15.4  16.3  16.9  17.2   0.0   0.0
 1987 221    37  12.6  13.1  14.0  14.9  15.7  16.5  17.0  17.3   0.0   0.0
 1987 222    38  13.4  13.8  14.6  15.3  16.0  16.7  17.2  17.3   0.0   0.0
 1987 223    39  15.0  15.2  15.7  16.2  16.6  17.1  17.4  17.5   0.0   0.0
 1987 224    40  15.7  15.8  16.1  16.5  16.8  17.3  17.5  17.6   0.0   0.0
 1987 225    41  15.9  16.0  16.2  16.6  16.9  17.3  17.5  17.6   0.0   0.0
 1987 226    42  16.3  16.3  16.5  16.7  17.0  17.4  17.6  17.6   0.0   0.0
 1987 227    43  16.2  16.2  16.4  16.7  17.0  17.3  17.6  17.6   0.0   0.0
 1987 228    44  15.2  15.3  15.7  16.1  16.6  17.1  17.4  17.5   0.0   0.0
 1987 229    45  13.6  14.0  14.6  15.3  15.9  16.6  17.1  17.3   0.0   0.0
 1987 230    46  12.5  13.0  13.8  14.7  15.5  16.3  16.9  17.2   0.0   0.0
 1987 231    47  10.9  11.6  12.7  13.9  14.8  15.9  16.7  17.0   0.0   0.0
 1987 232    48   9.8  10.6  12.0  13.3  14.4  15.6  16.5  16.8   0.0   0.0
 1987 233    49   9.7  10.6  11.9  13.2  14.4  15.6  16.4  16.8   0.0   0.0
 1987 234    50  11.3  11.9  13.0  14.0  15.0  16.0  16.7  17.0   0.0   0.0
 1987 235    51  12.8  13.2  14.0  14.8  15.5  16.4  16.9  17.2   0.0   0.0
 1987 236    52  14.4  14.6  15.1  15.6  16.1  16.7  17.2  17.3   0.0   0.0
 1987 237    53  16.4  16.4  16.4  16.6  16.9  17.2  17.5  17.6   0.0   0.0
 1987 238    54  17.8  17.6  17.4  17.3  17.4  17.6  17.7  17.7   0.0   0.0
 1987 239    55  18.6  18.2  17.9  17.7  17.7  17.8  17.8  17.8   0.0   0.0
 1987 240    56  18.4  18.1  17.8  17.6  17.6  17.7  17.8  17.8   0.0   0.0
 1987 241    57  17.4  17.2  17.0  17.1  17.2  17.4  17.6  17.6   0.0   0.0
 1987 242    58  15.9  15.9  16.0  16.3  16.6  17.0  17.3  17.5   0.0   0.0
 1987 243    59  14.7  14.9  15.2  15.7  16.1  16.7  17.1  17.3   0.0   0.0
 1987 244    60  13.7  14.0  14.5  15.1  15.7  16.4  17.0  17.2   0.0   0.0
 1987 245    61  13.2  13.5  14.1  14.8  15.5  16.3  16.9  17.1   0.0   0.0
 1987 246    62  13.8  14.1  14.6  15.2  15.7  16.4  17.0  17.2   0.0   0.0
 1987 247    63  14.1  14.3  14.7  15.3  15.8  16.5  17.0  17.2   0.0   0.0
 1987 248    64  14.1  14.3  14.7  15.3  15.8  16.5  17.0  17.2   0.0   0.0
 1987 249    65  13.9  14.1  14.5  15.1  15.7  16.4  16.9  17.2   0.0   0.0
 1987 250    66  14.4  14.5  14.9  15.4  15.9  16.5  17.0  17.2   0.0   0.0
 1987 251    67  14.9  15.0  15.3  15.7  16.1  16.6  17.1  17.3   0.0   0.0
 1987 252    68  15.8  15.8  15.9  16.1  16.4  16.8  17.2  17.4   0.0   0.0
 1987 253    69  16.3  16.2  16.2  16.3  16.6  16.9  17.3  17.4   0.0   0.0
 1987 254    70  16.9  16.7  16.5  16.6  16.8  17.1  17.3  17.5   0.0   0.0
 1987 255    71  17.0  16.8  16.7  16.7  16.8  17.1  17.4  17.5   0.0   0.0
 1987 256    72  17.7  17.4  17.1  17.0  17.1  17.3  17.4  17.5   0.0   0.0
 1987 257    73  17.5  17.2  17.0  16.9  17.0  17.2  17.4  17.5   0.0   0.0
 1987 258    74  17.5  17.2  16.9  16.9  17.0  17.2  17.4  17.5   0.0   0.0
 1987 259    75  16.5  16.4  16.3  16.4  16.6  16.9  17.2  17.4   0.0   0.0
 1987 260    76  16.2  16.0  16.0  16.1  16.4  16.8  17.1  17.3   0.0   0.0
 1987 261    77  14.8  14.8  15.1  15.4  15.9  16.4  16.9  17.1   0.0   0.0
 1987 262    78  13.9  14.1  14.5  15.0  15.5  16.2  16.8  17.0   0.0   0.0
 1987 263    79  13.9  14.1  14.4  15.0  15.5  16.2  16.7  17.0   0.0   0.0
 1987 264    80  14.1  14.2  14.5  15.0  15.5  16.2  16.8  17.0   0.0   0.0
 1987 265    81  13.7  13.9  14.3  14.8  15.4  16.1  16.7  17.0   0.0   0.0
 1987 266    82  13.8  14.0  14.3  14.9  15.4  16.1  16.7  17.0   0.0   0.0
 1987 267    83  14.8  14.8  15.0  15.4  15.8  16.3  16.8  17.1   0.0   0.0
 1987 268    84  16.0  15.9  15.9  16.0  16.2  16.7  17.0  17.2   0.0   0.0
 1987 269    85  18.2  17.7  17.3  17.1  17.0  17.2  17.4  17.5   0.0   0.0
 1987 270    86  19.5  18.9  18.2  17.7  17.5  17.5  17.5  17.6   0.0   0.0
 1987 271    87  20.1  19.4  18.6  18.0  17.8  17.6  17.6  17.7   0.0   0.0
 1987 272    88  20.8  20.0  19.1  18.4  18.0  17.8  17.7  17.7   0.0   0.0
 1987 273    89  20.1  19.4  18.6  18.0  17.8  17.6  17.6  17.6   0.0   0.0
 1987 274    90  19.1  18.6  17.9  17.5  17.4  17.3  17.4  17.5   0.0   0.0
 1987 275    91  18.4  17.9  17.4  17.1  17.1  17.2  17.3  17.4   0.0   0.0
 1987 276    92  18.2  17.7  17.3  17.0  17.0  17.1  17.3  17.4   0.0   0.0
 1987 277    93  18.1  17.7  17.2  17.0  16.9  17.1  17.2  17.4   0.0   0.0
 1987 278    94  19.2  18.6  17.9  17.5  17.3  17.3  17.4  17.5   0.0   0.0
 1987 279    95  19.9  19.3  18.4  17.9  17.6  17.5  17.5  17.6   0.0   0.0
 1987 280    96  20.6  19.8  18.9  18.2  17.8  17.6  17.6  17.6   0.0   0.0
 1987 281    97  20.9  20.1  19.1  18.3  17.9  17.7  17.6  17.6   0.0   0.0
 1987 282    98  20.6  19.8  18.9  18.2  17.8  17.6  17.6  17.6   0.0   0.0
 1987 283    99  21.5  20.6  19.5  18.6  18.2  17.8  17.7  17.7   0.0   0.0
 1987 284   100  21.6  20.7  19.5  18.7  18.2  17.8  17.7  17.7   0.0   0.0
 1987 285   101  22.0  21.0  19.8  18.9  18.3  17.9  17.8  17.7   0.0   0.0
 1987 286   102  21.6  20.7  19.6  18.7  18.2  17.8  17.7  17.7   0.0   0.0
 1987 287   103  20.8  20.0  19.0  18.3  17.9  17.6  17.6  17.6   0.0   0.0
 1987 288   104  18.5  18.0  17.4  17.1  17.0  17.0  17.2  17.3   0.0   0.0
 1987 289   105  17.6  17.2  16.8  16.6  16.6  16.8  17.0  17.2   0.0   0.0
 1987 290   106  17.3  17.0  16.6  16.4  16.5  16.7  17.0  17.1   0.0   0.0
 1987 291   107  17.9  17.5  17.0  16.8  16.7  16.8  17.1  17.2   0.0   0.0
 1987 292   108  18.7  18.1  17.5  17.1  17.0  17.0  17.2  17.3   0.0   0.0
 1987 293   109  20.2  19.4  18.5  17.9  17.5  17.4  17.4  17.4   0.0   0.0
 1987 294   110  21.4  20.5  19.4  18.5  18.0  17.7  17.6  17.6   0.0   0.0
 1987 295   111  21.9  20.9  19.7  18.8  18.2  17.8  17.6  17.6   0.0   0.0
 1987 296   112  23.3  22.2  20.7  19.5  18.7  18.1  17.9  17.8   0.0   0.0
 1987 297   113  24.3  23.0  21.4  20.0  19.1  18.4  18.0  17.9   0.0   0.0
 1987 298   114  23.9  22.6  21.1  19.8  18.9  18.2  17.9  17.8   0.0   0.0
 1987 299   115  23.7  22.5  20.9  19.6  18.8  18.2  17.9  17.8   0.0   0.0
 1987 300   116  23.2  22.1  20.6  19.4  18.7  18.1  17.8  17.7   0.0   0.0
 1987 301   117  22.1  21.1  19.8  18.8  18.2  17.8  17.6  17.6   0.0   0.0
 1987 302   118  22.3  21.3  20.0  18.9  18.3  17.8  17.6  17.6   0.0   0.0
 1987 303   119  24.0  22.7  21.1  19.8  18.9  18.2  17.9  17.8   0.0   0.0
 1987 304   120  25.2  23.8  21.9  20.4  19.4  18.5  18.1  17.9   0.0   0.0
 1987 305   121  26.2  24.7  22.6  20.9  19.8  18.8  18.2  18.0   0.0   0.0
 1987 306   122  27.0  25.3  23.1  21.3  20.1  18.9  18.3  18.1   0.0   0.0
 1987 307   123  26.7  25.1  23.0  21.2  20.0  18.9  18.3  18.1   0.0   0.0
 1987 308   124  24.9  23.5  21.7  20.2  19.2  18.4  18.0  17.8   0.0   0.0
 1987 309   125  23.1  22.0  20.5  19.3  18.6  18.0  17.7  17.6   0.0   0.0
 1987 310   126  22.3  21.3  20.0  18.9  18.3  17.8  17.6  17.5   0.0   0.0
 1987 311   127  22.0  21.0  19.8  18.8  18.1  17.7  17.5  17.5   0.0   0.0
 1987 312   128  21.6  20.7  19.5  18.6  18.0  17.6  17.5  17.5   0.0   0.0
 1987 313   129  21.5  20.6  19.5  18.5  18.0  17.6  17.4  17.4   0.0   0.0
 1987 314   130  22.0  21.0  19.8  18.8  18.1  17.7  17.5  17.5   0.0   0.0
 1987 315   131  22.9  21.8  20.4  19.2  18.5  17.9  17.6  17.6   0.0   0.0
 1987 316   132  23.2  22.0  20.6  19.4  18.6  17.9  17.7  17.6   0.0   0.0
 1987 317   133  24.0  22.8  21.2  19.8  18.9  18.1  17.8  17.7   0.0   0.0
 1987 318   134  25.4  24.0  22.1  20.5  19.4  18.5  18.0  17.8   0.0   0.0
 1987 319   135  26.0  24.5  22.6  20.9  19.7  18.7  18.1  17.9   0.0   0.0
 1987 320   136  25.7  24.3  22.4  20.7  19.6  18.6  18.1  17.9   0.0   0.0
 1987 321   137  26.1  24.6  22.7  20.9  19.7  18.7  18.1  17.9   0.0   0.0
 1987 322   138  25.7  24.3  22.4  20.7  19.6  18.6  18.1  17.9   0.0   0.0
 1987 323   139  25.0  23.7  21.9  20.4  19.3  18.4  17.9  17.8   0.0   0.0
 1987 324   140  24.0  22.8  21.2  19.8  18.9  18.1  17.8  17.7   0.0   0.0
 1987 325   141  23.4  22.3  20.8  19.5  18.7  18.0  17.7  17.6   0.0   0.0
 1987 326   142  22.2  21.2  20.0  18.9  18.2  17.7  17.5  17.4   0.0   0.0
 1987 327   143  21.1  20.3  19.2  18.3  17.8  17.4  17.3  17.3   0.0   0.0
 1987 328   144  20.9  20.1  19.1  18.3  17.7  17.3  17.2  17.3   0.0   0.0
 1987 329   145  21.6  20.7  19.6  18.6  18.0  17.5  17.4  17.3   0.0   0.0
 1987 330   146  22.0  21.1  19.9  18.8  18.2  17.6  17.4  17.4   0.0   0.0
 1987 331   147  22.5  21.5  20.2  19.1  18.4  17.8  17.5  17.4   0.0   0.0
 1987 332   148  24.2  23.0  21.4  20.0  19.0  18.2  17.8  17.6   0.0   0.0
 1987 333   149  25.9  24.5  22.5  20.8  19.7  18.6  18.0  17.8   0.0   0.0
 1987 334   150  27.6  25.9  23.7  21.7  20.3  19.0  18.3  18.0   0.0   0.0
 1987 335   151  29.9  28.0  25.3  22.9  21.2  19.6  18.7  18.3   0.0   0.0
 1987 336   152  30.9  28.8  25.9  23.4  21.6  19.8  18.8  18.4   0.0   0.0
 1987 337   153  30.0  28.0  25.3  22.9  21.2  19.6  18.6  18.3   0.0   0.0
 1987 338   154  27.6  26.0  23.7  21.7  20.3  19.0  18.3  18.0   0.0   0.0
 1987 339   155  26.0  24.6  22.7  21.0  19.8  18.7  18.1  17.8   0.0   0.0
 1987 340   156  24.3  23.1  21.5  20.1  19.1  18.2  17.8  17.6   0.0   0.0
 1987 341   157  23.0  22.0  20.6  19.4  18.6  17.9  17.6  17.5   0.0   0.0
 1987 342   158  22.9  21.9  20.6  19.4  18.6  17.9  17.5  17.5   0.0   0.0
 1987 343   159  24.0  22.8  21.3  19.9  19.0  18.1  17.7  17.6   0.0   0.0
 1987 344   160  24.8  23.6  21.9  20.4  19.3  18.3  17.8  17.7   0.0   0.0
 1987 345   161  24.7  23.5  21.8  20.3  19.3  18.3  17.8  17.6   0.0   0.0
 1987 346   162  25.0  23.8  22.0  20.5  19.4  18.4  17.9  17.7   0.0   0.0
 1987 347   163  25.5  24.2  22.3  20.7  19.6  18.5  17.9  17.7   0.0   0.0
 1987 348   164  25.5  24.2  22.4  20.7  19.6  18.5  17.9  17.7   0.0   0.0
 1987 349   165  25.8  24.4  22.6  20.9  19.7  18.6  18.0  17.8   0.0   0.0
 1987 350   166  25.4  24.1  22.3  20.7  19.5  18.5  17.9  17.7   0.0   0.0
 1987 351   167  25.3  24.0  22.3  20.7  19.6  18.5  17.9  17.7   0.0   0.0
 1987 352   168  24.8  23.6  22.0  20.5  19.4  18.4  17.9  17.7   0.0   0.0
 1987 353   169  24.8  23.6  22.0  20.5  19.4  18.4  17.8  17.7   0.0   0.0
 1987 354   170  23.7  22.7  21.2  19.9  19.0  18.1  17.7  17.5   0.0   0.0
 1987 355   171  23.7  22.7  21.2  19.9  19.0  18.1  17.7  17.5   0.0   0.0
 1987 356   172  23.7  22.7  21.2  19.9  19.0  18.1  17.7  17.5   0.0   0.0
 1987 357   173  23.9  22.8  21.4  20.0  19.1  18.2  17.7  17.5   0.0   0.0
 1987 358   174  24.3  23.2  21.6  20.2  19.2  18.3  17.8  17.6   0.0   0.0
 1987 359   175  24.1  23.0  21.5  20.2  19.2  18.2  17.7  17.6   0.0   0.0
 1987 360   176  24.4  23.3  21.8  20.3  19.3  18.3  17.8  17.6   0.0   0.0
 1987 361   177  25.5  24.2  22.5  20.9  19.7  18.6  18.0  17.7   0.0   0.0
 1987 362   178  26.2  24.8  23.0  21.3  20.0  18.8  18.1  17.8   0.0   0.0
 1987 363   179  25.5  24.3  22.5  20.9  19.8  18.6  18.0  17.7   0.0   0.0
 1987 364   180  25.9  24.7  22.9  21.2  19.9  18.8  18.1  17.8   0.0   0.0
 1987 365   181  26.3  24.9  23.1  21.4  20.1  18.8  18.1  17.8   0.0   0.0
 1988 001   182  26.4  25.1  23.2  21.4  20.1  18.9  18.1  17.9   0.0   0.0
 1988 002   183  26.3  25.0  23.1  21.4  20.1  18.9  18.1  17.8   0.0   0.0
 1988 003   184  27.8  26.2  24.1  22.1  20.7  19.2  18.4  18.0   0.0   0.0
 1988 004   185  29.3  27.6  25.2  22.9  21.3  19.6  18.6  18.2   0.0   0.0
 1988 005   186  29.3  27.6  25.2  22.9  21.3  19.6  18.6  18.2   0.0   0.0
 1988 006   187  27.8  26.3  24.2  22.2  20.7  19.3  18.4  18.0   0.0   0.0
 1988 007   188  27.6  26.1  24.1  22.1  20.7  19.2  18.3  18.0   0.0   0.0
 1988 008   189  27.1  25.7  23.7  21.9  20.5  19.1  18.3  17.9   0.0   0.0
 1988 009   190  26.5  25.2  23.3  21.5  20.2  18.9  18.2  17.9   0.0   0.0
 1988 010   191  27.5  26.0  24.0  22.1  20.6  19.2  18.3  18.0   0.0   0.0
 1988 011   192  29.6  27.9  25.4  23.1  21.4  19.7  18.7  18.2   0.0   0.0

*DSSAT Cropping System Model Ver. 4.0.2.000               Aug 03, 2016; 14:28:43

*RUN   2        : UYMZ                    
 MODEL          : MZCER040 - Maize           
 EXPERIMENT     : UYMZ0116 MZ    late to create DSS                             
 TREATMENT  1   : UYMZ                    

@YEAR DOY   DAS  TS1D  TS2D  TS3D  TS4D  TS5D  TS6D  TS7D  TS8D  TS9D  TS10
 1988 184     0  23.8  23.1  22.2  21.3  20.6  19.8  19.1  18.7   0.0   0.0
 1988 185     1  21.7  21.2  20.7  20.2  19.8  19.3  18.8  18.5   0.0   0.0
 1988 186     2  18.7  18.7  18.7  18.7  18.6  18.5  18.3  18.1   0.0   0.0
 1988 187     3  15.9  16.3  16.7  17.2  17.5  17.8  17.9  17.8   0.0   0.0
 1988 188     4  12.5  13.3  14.4  15.4  16.2  16.9  17.3  17.4   0.0   0.0
 1988 189     5  10.0  11.1  12.6  14.1  15.2  16.3  16.9  17.1   0.0   0.0
 1988 190     6   9.5  10.7  12.3  13.9  15.0  16.2  16.8  17.1   0.0   0.0
 1988 191     7   9.4  10.5  12.2  13.8  14.9  16.1  16.8  17.0   0.0   0.0
 1988 192     8   8.7  10.0  11.7  13.4  14.7  15.9  16.7  17.0   0.0   0.0
 1988 193     9   8.6   9.9  11.6  13.3  14.6  15.9  16.6  17.0   0.0   0.0
 1988 194    10   8.3   9.6  11.4  13.2  14.5  15.8  16.6  16.9   0.0   0.0
 1988 195    11   7.8   9.1  11.1  12.9  14.3  15.7  16.5  16.9   0.0   0.0
 1988 196    12   8.7   9.9  11.7  13.4  14.6  15.9  16.7  17.0   0.0   0.0
 1988 197    13  10.4  11.4  12.8  14.2  15.2  16.3  16.9  17.1   0.0   0.0
 1988 198    14  12.4  13.1  14.2  15.2  16.0  16.8  17.2  17.4   0.0   0.0
 1988 199    15  14.6  15.0  15.7  16.3  16.8  17.3  17.6  17.6   0.0   0.0
 1988 200    16  16.9  17.0  17.3  17.5  17.7  17.9  17.9  17.9   0.0   0.0
 1988 201    17  18.1  18.0  18.0  18.1  18.2  18.2  18.1  18.0   0.0   0.0
 1988 202    18  17.9  17.8  17.9  18.0  18.1  18.1  18.1  18.0   0.0   0.0
 1988 203    19  17.3  17.4  17.5  17.7  17.9  18.0  18.0  17.9   0.0   0.0
 1988 204    20  15.6  15.8  16.3  16.8  17.2  17.5  17.7  17.7   0.0   0.0
 1988 205    21  12.9  13.5  14.4  15.4  16.1  16.8  17.3  17.4   0.0   0.0
 1988 206    22  10.8  11.6  13.0  14.2  15.2  16.3  16.9  17.1   0.0   0.0
 1988 207    23  10.2  11.2  12.6  14.0  15.0  16.1  16.8  17.1   0.0   0.0
 1988 208    24  11.7  12.4  13.6  14.7  15.6  16.5  17.0  17.2   0.0   0.0
 1988 209    25  12.7  13.3  14.2  15.2  15.9  16.7  17.2  17.4   0.0   0.0
 1988 210    26  14.1  14.5  15.2  15.9  16.5  17.1  17.4  17.5   0.0   0.0
 1988 211    27  16.9  16.9  17.1  17.3  17.5  17.8  17.8  17.8   0.0   0.0
 1988 212    28  19.6  19.2  18.9  18.7  18.6  18.4  18.3  18.1   0.0   0.0
 1988 213    29  19.0  18.8  18.5  18.4  18.3  18.3  18.2  18.1   0.0   0.0
 1988 214    30  18.5  18.3  18.2  18.1  18.1  18.1  18.1  18.0   0.0   0.0
 1988 215    31  17.8  17.7  17.7  17.7  17.8  17.9  18.0  17.9   0.0   0.0
 1988 216    32  15.1  15.4  15.8  16.3  16.8  17.2  17.5  17.6   0.0   0.0
 1988 217    33  12.7  13.3  14.1  15.0  15.8  16.6  17.1  17.3   0.0   0.0
 1988 218    34  12.0  12.6  13.6  14.6  15.5  16.4  17.0  17.2   0.0   0.0
 1988 219    35  12.8  13.4  14.2  15.1  15.8  16.6  17.1  17.3   0.0   0.0
 1988 220    36  13.9  14.3  14.9  15.6  16.2  16.9  17.3  17.4   0.0   0.0
 1988 221    37  15.0  15.2  15.7  16.2  16.6  17.1  17.4  17.5   0.0   0.0
 1988 222    38  14.4  14.7  15.2  15.9  16.4  17.0  17.3  17.5   0.0   0.0
 1988 223    39  13.5  13.9  14.6  15.4  16.0  16.7  17.2  17.4   0.0   0.0
 1988 224    40  13.1  13.6  14.3  15.2  15.9  16.6  17.1  17.3   0.0   0.0
 1988 225    41  13.3  13.7  14.5  15.2  15.9  16.6  17.1  17.3   0.0   0.0
 1988 226    42  13.4  13.8  14.5  15.3  15.9  16.6  17.1  17.3   0.0   0.0
 1988 227    43  15.3  15.4  15.8  16.2  16.6  17.1  17.4  17.5   0.0   0.0
 1988 228    44  16.9  16.9  16.9  17.1  17.3  17.5  17.7  17.7   0.0   0.0
 1988 229    45  17.3  17.1  17.1  17.2  17.4  17.6  17.7  17.7   0.0   0.0
 1988 230    46  17.1  17.0  17.0  17.1  17.3  17.5  17.7  17.7   0.0   0.0
 1988 231    47  18.3  18.0  17.8  17.7  17.7  17.8  17.9  17.8   0.0   0.0
 1988 232    48  18.9  18.5  18.2  18.0  17.9  18.0  17.9  17.9   0.0   0.0
 1988 233    49  18.9  18.5  18.2  18.0  17.9  17.9  17.9  17.9   0.0   0.0
 1988 234    50  19.3  18.8  18.4  18.2  18.1  18.0  18.0  17.9   0.0   0.0
 1988 235    51  19.9  19.4  18.9  18.5  18.3  18.2  18.1  18.0   0.0   0.0
 1988 236    52  21.0  20.3  19.6  19.0  18.7  18.4  18.2  18.1   0.0   0.0
 1988 237    53  20.9  20.3  19.5  19.0  18.7  18.4  18.2  18.1   0.0   0.0
 1988 238    54  20.4  19.8  19.2  18.7  18.4  18.2  18.1  18.0   0.0   0.0
 1988 239    55  19.0  18.6  18.2  17.9  17.9  17.9  17.9  17.8   0.0   0.0
 1988 240    56  17.4  17.2  17.1  17.1  17.2  17.5  17.6  17.7   0.0   0.0
 1988 241    57  14.7  14.9  15.2  15.7  16.2  16.8  17.2  17.3   0.0   0.0
 1988 242    58  14.1  14.4  14.8  15.4  15.9  16.6  17.1  17.3   0.0   0.0
 1988 243    59  14.6  14.7  15.1  15.6  16.1  16.7  17.1  17.3   0.0   0.0
 1988 244    60  16.1  16.1  16.1  16.4  16.7  17.1  17.3  17.5   0.0   0.0
 1988 245    61  16.4  16.3  16.3  16.5  16.8  17.1  17.4  17.5   0.0   0.0
 1988 246    62  16.1  16.1  16.1  16.4  16.6  17.0  17.3  17.5   0.0   0.0
 1988 247    63  14.9  15.0  15.3  15.7  16.1  16.7  17.1  17.3   0.0   0.0
 1988 248    64  14.7  14.8  15.1  15.6  16.0  16.6  17.1  17.3   0.0   0.0
 1988 249    65  15.0  15.1  15.3  15.7  16.1  16.7  17.1  17.3   0.0   0.0
 1988 250    66  15.7  15.7  15.8  16.1  16.4  16.9  17.2  17.4   0.0   0.0
 1988 251    67  17.1  16.9  16.7  16.8  16.9  17.2  17.4  17.5   0.0   0.0
 1988 252    68  18.9  18.5  18.0  17.7  17.6  17.6  17.7  17.7   0.0   0.0
 1988 253    69  18.8  18.4  17.9  17.6  17.5  17.6  17.7  17.7   0.0   0.0
 1988 254    70  17.2  17.0  16.8  16.8  16.9  17.2  17.4  17.5   0.0   0.0
 1988 255    71  17.2  16.9  16.7  16.7  16.9  17.1  17.4  17.5   0.0   0.0
 1988 256    72  17.4  17.2  16.9  16.9  17.0  17.2  17.4  17.5   0.0   0.0
 1988 257    73  17.0  16.8  16.6  16.6  16.8  17.1  17.3  17.4   0.0   0.0
 1988 258    74  16.8  16.6  16.5  16.5  16.7  17.0  17.3  17.4   0.0   0.0
 1988 259    75  16.9  16.6  16.5  16.5  16.7  17.0  17.3  17.4   0.0   0.0
 1988 260    76  15.9  15.8  15.8  16.0  16.3  16.7  17.1  17.3   0.0   0.0
 1988 261    77  14.5  14.6  14.8  15.3  15.7  16.4  16.9  17.1   0.0   0.0
 1988 262    78  13.8  14.0  14.4  14.9  15.4  16.2  16.7  17.0   0.0   0.0
 1988 263    79  14.6  14.7  14.9  15.3  15.8  16.4  16.9  17.1   0.0   0.0
 1988 264    80  16.4  16.2  16.1  16.2  16.4  16.8  17.1  17.3   0.0   0.0
 1988 265    81  17.4  17.1  16.8  16.7  16.8  17.0  17.3  17.4   0.0   0.0
 1988 266    82  18.7  18.2  17.7  17.4  17.3  17.3  17.5  17.5   0.0   0.0
 1988 267    83  19.6  19.0  18.3  17.9  17.7  17.6  17.6  17.6   0.0   0.0
 1988 268    84  18.8  18.3  17.7  17.4  17.3  17.3  17.5  17.5   0.0   0.0
 1988 269    85  17.5  17.2  16.9  16.8  16.8  17.0  17.2  17.4   0.0   0.0
 1988 270    86  16.5  16.3  16.1  16.2  16.4  16.7  17.1  17.2   0.0   0.0
 1988 271    87  15.9  15.8  15.7  15.9  16.1  16.6  16.9  17.2   0.0   0.0
 1988 272    88  14.9  14.9  15.1  15.4  15.7  16.3  16.8  17.0   0.0   0.0
 1988 273    89  15.7  15.6  15.6  15.7  16.0  16.5  16.9  17.1   0.0   0.0
 1988 274    90  16.9  16.6  16.4  16.3  16.5  16.8  17.1  17.2   0.0   0.0
 1988 275    91  19.2  18.6  18.0  17.5  17.4  17.3  17.4  17.5   0.0   0.0
 1988 276    92  20.6  19.8  18.9  18.2  17.9  17.7  17.6  17.7   0.0   0.0
 1988 277    93  20.3  19.6  18.7  18.1  17.8  17.6  17.6  17.6   0.0   0.0
 1988 278    94  20.2  19.5  18.6  18.0  17.7  17.6  17.6  17.6   0.0   0.0
 1988 279    95  19.8  19.1  18.3  17.8  17.5  17.4  17.5  17.5   0.0   0.0
 1988 280    96  19.1  18.6  17.9  17.5  17.3  17.3  17.4  17.4   0.0   0.0
 1988 281    97  19.2  18.6  17.9  17.5  17.3  17.3  17.4  17.4   0.0   0.0
 1988 282    98  20.8  20.0  19.0  18.3  17.9  17.7  17.6  17.6   0.0   0.0
 1988 283    99  20.8  20.0  19.0  18.3  17.9  17.7  17.6  17.6   0.0   0.0
 1988 284   100  21.1  20.3  19.2  18.4  18.0  17.7  17.6  17.6   0.0   0.0
 1988 285   101  21.4  20.5  19.4  18.6  18.1  17.8  17.7  17.7   0.0   0.0
 1988 286   102  21.4  20.5  19.4  18.6  18.1  17.8  17.7  17.7   0.0   0.0
 1988 287   103  20.4  19.7  18.7  18.1  17.7  17.5  17.5  17.5   0.0   0.0
 1988 288   104  20.8  20.0  19.0  18.3  17.8  17.6  17.6  17.6   0.0   0.0
 1988 289   105  20.1  19.4  18.5  17.9  17.5  17.4  17.4  17.5   0.0   0.0
 1988 290   106  19.2  18.6  17.9  17.4  17.2  17.2  17.3  17.4   0.0   0.0
 1988 291   107  18.6  18.1  17.5  17.1  17.0  17.0  17.2  17.3   0.0   0.0
 1988 292   108  19.8  19.1  18.3  17.7  17.4  17.3  17.4  17.4   0.0   0.0
 1988 293   109  19.6  19.0  18.2  17.6  17.3  17.2  17.3  17.4   0.0   0.0
 1988 294   110  20.8  20.0  19.0  18.2  17.8  17.5  17.5  17.5   0.0   0.0
 1988 295   111  22.1  21.1  19.9  18.9  18.3  17.8  17.7  17.6   0.0   0.0
 1988 296   112  23.1  22.0  20.5  19.4  18.7  18.1  17.8  17.8   0.0   0.0
 1988 297   113  23.1  22.0  20.5  19.4  18.6  18.1  17.8  17.7   0.0   0.0
 1988 298   114  24.1  22.8  21.2  19.9  19.0  18.3  18.0  17.8   0.0   0.0
 1988 299   115  23.1  22.0  20.5  19.3  18.6  18.0  17.8  17.7   0.0   0.0
 1988 300   116  21.7  20.7  19.5  18.6  18.1  17.7  17.6  17.5   0.0   0.0
 1988 301   117  21.3  20.4  19.3  18.4  17.9  17.6  17.5  17.5   0.0   0.0
 1988 302   118  21.7  20.8  19.6  18.6  18.1  17.7  17.6  17.5   0.0   0.0
 1988 303   119  22.8  21.7  20.3  19.2  18.5  17.9  17.7  17.7   0.0   0.0
 1988 304   120  23.7  22.5  20.9  19.6  18.8  18.1  17.8  17.7   0.0   0.0
 1988 305   121  24.1  22.8  21.2  19.8  19.0  18.2  17.9  17.8   0.0   0.0
 1988 306   122  23.4  22.3  20.8  19.5  18.7  18.1  17.8  17.7   0.0   0.0
 1988 307   123  22.4  21.3  20.0  19.0  18.3  17.8  17.6  17.6   0.0   0.0
 1988 308   124  21.0  20.2  19.1  18.3  17.8  17.5  17.4  17.4   0.0   0.0
 1988 309   125  21.8  20.8  19.6  18.7  18.1  17.6  17.5  17.5   0.0   0.0
 1988 310   126  23.6  22.4  20.9  19.6  18.8  18.1  17.8  17.7   0.0   0.0
 1988 311   127  25.7  24.2  22.3  20.6  19.6  18.6  18.1  17.9   0.0   0.0
 1988 312   128  27.5  25.8  23.5  21.6  20.2  19.0  18.4  18.1   0.0   0.0
 1988 313   129  27.9  26.2  23.8  21.8  20.4  19.1  18.4  18.2   0.0   0.0
 1988 314   130  28.0  26.2  23.8  21.8  20.4  19.1  18.4  18.1   0.0   0.0
 1988 315   131  27.1  25.4  23.2  21.3  20.0  18.9  18.3  18.0   0.0   0.0
 1988 316   132  26.0  24.5  22.5  20.8  19.6  18.6  18.1  17.9   0.0   0.0
 1988 317   133  24.8  23.5  21.7  20.2  19.2  18.3  17.9  17.8   0.0   0.0
 1988 318   134  25.3  23.9  22.1  20.5  19.4  18.5  18.0  17.8   0.0   0.0
 1988 319   135  25.1  23.7  21.9  20.4  19.3  18.4  18.0  17.8   0.0   0.0
 1988 320   136  25.6  24.1  22.2  20.6  19.5  18.5  18.0  17.8   0.0   0.0
 1988 321   137  27.1  25.4  23.3  21.4  20.1  18.9  18.3  18.0   0.0   0.0
 1988 322   138  28.9  27.0  24.5  22.3  20.8  19.3  18.5  18.2   0.0   0.0
 1988 323   139  28.3  26.5  24.1  22.0  20.5  19.2  18.4  18.1   0.0   0.0
 1988 324   140  28.9  27.1  24.5  22.3  20.8  19.3  18.5  18.2   0.0   0.0
 1988 325   141  29.2  27.3  24.7  22.4  20.9  19.4  18.6  18.2   0.0   0.0
 1988 326   142  26.9  25.3  23.2  21.3  20.0  18.8  18.2  18.0   0.0   0.0
 1988 327   143  24.5  23.2  21.5  20.0  19.1  18.2  17.8  17.7   0.0   0.0
 1988 328   144  24.1  22.9  21.3  19.9  19.0  18.2  17.8  17.6   0.0   0.0
 1988 329   145  23.6  22.4  20.9  19.6  18.7  18.0  17.7  17.6   0.0   0.0
 1988 330   146  23.6  22.5  20.9  19.6  18.7  18.0  17.7  17.6   0.0   0.0
 1988 331   147  24.6  23.4  21.6  20.1  19.1  18.3  17.8  17.7   0.0   0.0
 1988 332   148  24.7  23.4  21.7  20.2  19.2  18.3  17.8  17.7   0.0   0.0
 1988 333   149  24.4  23.2  21.5  20.1  19.1  18.2  17.8  17.6   0.0   0.0
 1988 334   150  24.5  23.2  21.6  20.1  19.1  18.2  17.8  17.6   0.0   0.0
 1988 335   151  24.4  23.1  21.5  20.0  19.0  18.2  17.8  17.6   0.0   0.0
 1988 336   152  24.5  23.2  21.6  20.1  19.1  18.2  17.8  17.6   0.0   0.0
 1988 337   153  25.7  24.3  22.4  20.7  19.6  18.5  18.0  17.8   0.0   0.0
 1988 338   154  27.3  25.7  23.5  21.5  20.2  18.9  18.2  17.9   0.0   0.0
 1988 339   155  28.7  26.9  24.4  22.2  20.7  19.2  18.4  18.1   0.0   0.0
 1988 340   156  30.3  28.3  25.6  23.1  21.3  19.7  18.7  18.3   0.0   0.0
 1988 341   157  31.8  29.6  26.5  23.8  21.9  20.0  18.9  18.4   0.0   0.0
 1988 342   158  31.8  29.6  26.5  23.8  21.9  20.0  18.9  18.4   0.0   0.0
 1988 343   159  30.9  28.8  25.9  23.4  21.5  19.8  18.7  18.3   0.0   0.0
 1988 344   160  29.8  27.9  25.2  22.8  21.1  19.5  18.6  18.2   0.0   0.0
 1988 345   161  28.5  26.7  24.3  22.2  20.6  19.2  18.4  18.0   0.0   0.0
 1988 346   162  28.3  26.6  24.2  22.1  20.6  19.1  18.3  18.0   0.0   0.0
 1988 347   163  27.4  25.8  23.6  21.6  20.2  18.9  18.2  17.9   0.0   0.0
 1988 348   164  27.4  25.8  23.6  21.7  20.3  19.0  18.2  17.9   0.0   0.0
 1988 349   165  27.8  26.2  23.9  21.9  20.4  19.1  18.3  18.0   0.0   0.0
 1988 350   166  27.6  26.0  23.8  21.8  20.4  19.0  18.3  18.0   0.0   0.0
 1988 351   167  27.1  25.6  23.5  21.6  20.2  18.9  18.2  17.9   0.0   0.0
 1988 352   168  28.6  26.9  24.5  22.3  20.8  19.3  18.4  18.1   0.0   0.0
 1988 353   169  29.3  27.5  25.0  22.7  21.0  19.4  18.5  18.1   0.0   0.0
 1988 354   170  29.2  27.4  24.9  22.6  21.0  19.4  18.5  18.1   0.0   0.0
 1988 355   171  28.7  27.0  24.6  22.4  20.8  19.3  18.4  18.1   0.0   0.0
 1988 356   172  28.2  26.5  24.2  22.1  20.6  19.2  18.3  18.0   0.0   0.0
 1988 357   173  27.7  26.1  23.9  21.9  20.4  19.0  18.2  17.9   0.0   0.0
 1988 358   174  28.0  26.4  24.1  22.1  20.6  19.1  18.3  18.0   0.0   0.0
 1988 359   175  29.1  27.3  24.9  22.6  21.0  19.4  18.5  18.1   0.0   0.0
 1988 360   176  30.7  28.7  26.0  23.5  21.6  19.8  18.7  18.3   0.0   0.0
 1988 361   177  32.0  29.9  26.9  24.1  22.1  20.1  18.9  18.4   0.0   0.0
 1988 362   178  32.3  30.1  27.1  24.3  22.2  20.2  19.0  18.4   0.0   0.0
 1988 363   179  31.8  29.7  26.7  24.0  22.0  20.1  18.9  18.4   0.0   0.0
 1988 364   180  30.6  28.6  25.9  23.4  21.6  19.8  18.7  18.3   0.0   0.0
 1988 365   181  29.5  27.7  25.2  22.9  21.2  19.5  18.6  18.1   0.0   0.0
 1988 366   182  29.1  27.4  24.9  22.7  21.1  19.5  18.5  18.1   0.0   0.0
 1989 001   183  30.2  28.3  25.7  23.2  21.4  19.7  18.6  18.2   0.0   0.0
 1989 002   184  31.4  29.3  26.5  23.8  21.9  20.0  18.8  18.3   0.0   0.0
 1989 003   185  32.8  30.5  27.4  24.5  22.4  20.3  19.1  18.5   0.0   0.0
 1989 004   186  34.0  31.6  28.3  25.2  22.9  20.6  19.2  18.6   0.0   0.0
 1989 005   187  34.6  32.1  28.6  25.5  23.1  20.8  19.3  18.7   0.0   0.0

*DSSAT Cropping System Model Ver. 4.0.2.000               Aug 03, 2016; 14:28:43

*RUN   3        : UYMZ                    
 MODEL          : MZCER040 - Maize           
 EXPERIMENT     : UYMZ0116 MZ    late to create DSS                             
 TREATMENT  1   : UYMZ                    

@YEAR DOY   DAS  TS1D  TS2D  TS3D  TS4D  TS5D  TS6D  TS7D  TS8D  TS9D  TS10
 1989 184     0   7.6   9.0  11.1  13.0  14.4  15.8  16.6  16.9   0.0   0.0
 1989 185     1   7.5   9.0  11.1  13.0  14.4  15.8  16.6  16.9   0.0   0.0
 1989 186     2   7.6   9.0  11.1  13.0  14.4  15.8  16.6  16.9   0.0   0.0
 1989 187     3   7.5   9.0  11.0  12.9  14.4  15.7  16.6  16.9   0.0   0.0
 1989 188     4   7.3   8.8  10.8  12.8  14.2  15.6  16.5  16.8   0.0   0.0
 1989 189     5   7.9   9.3  11.2  13.1  14.4  15.8  16.6  16.9   0.0   0.0
 1989 190     6   9.0  10.2  12.0  13.6  14.8  16.0  16.7  17.0   0.0   0.0
 1989 191     7  10.1  11.2  12.7  14.2  15.3  16.3  16.9  17.1   0.0   0.0
 1989 192     8  11.3  12.2  13.5  14.8  15.7  16.6  17.1  17.3   0.0   0.0
 1989 193     9  12.5  13.3  14.4  15.4  16.2  16.9  17.3  17.4   0.0   0.0
 1989 194    10  13.4  14.0  14.9  15.8  16.5  17.1  17.4  17.5   0.0   0.0
 1989 195    11  13.8  14.4  15.2  16.0  16.6  17.2  17.5  17.6   0.0   0.0
 1989 196    12  14.0  14.5  15.3  16.1  16.7  17.2  17.5  17.6   0.0   0.0
 1989 197    13  15.2  15.6  16.1  16.7  17.1  17.5  17.7  17.7   0.0   0.0
 1989 198    14  17.2  17.3  17.5  17.7  17.9  18.0  18.0  17.9   0.0   0.0
 1989 199    15  18.8  18.7  18.6  18.5  18.5  18.4  18.3  18.1   0.0   0.0
 1989 200    16  20.3  20.0  19.6  19.3  19.0  18.8  18.5  18.3   0.0   0.0
 1989 201    17  21.5  21.0  20.4  19.9  19.5  19.1  18.7  18.4   0.0   0.0
 1989 202    18  20.7  20.3  19.8  19.4  19.2  18.8  18.5  18.3   0.0   0.0
 1989 203    19  18.6  18.5  18.4  18.4  18.4  18.3  18.2  18.1   0.0   0.0
 1989 204    20  16.1  16.3  16.6  17.0  17.4  17.7  17.8  17.8   0.0   0.0
 1989 205    21  14.4  14.9  15.5  16.2  16.7  17.2  17.5  17.6   0.0   0.0
 1989 206    22  13.0  13.6  14.5  15.4  16.1  16.8  17.3  17.4   0.0   0.0
 1989 207    23  12.4  13.1  14.1  15.1  15.9  16.7  17.2  17.3   0.0   0.0
 1989 208    24  12.6  13.3  14.2  15.2  15.9  16.7  17.2  17.4   0.0   0.0
 1989 209    25  12.9  13.5  14.4  15.3  16.1  16.8  17.2  17.4   0.0   0.0
 1989 210    26  12.5  13.2  14.1  15.1  15.9  16.7  17.2  17.3   0.0   0.0
 1989 211    27  12.8  13.4  14.3  15.2  16.0  16.7  17.2  17.4   0.0   0.0
 1989 212    28  12.9  13.4  14.3  15.2  16.0  16.7  17.2  17.4   0.0   0.0
 1989 213    29  13.6  14.0  14.8  15.6  16.2  16.9  17.3  17.4   0.0   0.0
 1989 214    30  15.3  15.5  15.9  16.4  16.9  17.3  17.6  17.6   0.0   0.0
 1989 215    31  17.4  17.4  17.4  17.5  17.7  17.9  17.9  17.9   0.0   0.0
 1989 216    32  18.1  18.0  17.9  17.9  18.0  18.0  18.0  17.9   0.0   0.0
 1989 217    33  18.8  18.5  18.3  18.2  18.2  18.2  18.1  18.0   0.0   0.0
 1989 218    34  19.2  18.9  18.6  18.4  18.3  18.2  18.1  18.0   0.0   0.0
 1989 219    35  18.8  18.5  18.3  18.2  18.2  18.1  18.1  18.0   0.0   0.0
 1989 220    36  17.2  17.1  17.2  17.3  17.5  17.7  17.8  17.8   0.0   0.0
 1989 221    37  16.7  16.7  16.8  17.1  17.3  17.6  17.7  17.7   0.0   0.0
 1989 222    38  16.7  16.7  16.8  17.0  17.3  17.5  17.7  17.7   0.0   0.0
 1989 223    39  16.5  16.6  16.7  16.9  17.2  17.5  17.7  17.7   0.0   0.0
 1989 224    40  16.2  16.2  16.4  16.7  17.0  17.4  17.6  17.7   0.0   0.0
 1989 225    41  17.3  17.2  17.2  17.3  17.5  17.7  17.8  17.8   0.0   0.0
 1989 226    42  18.6  18.3  18.1  18.0  18.0  18.0  18.0  17.9   0.0   0.0
 1989 227    43  19.7  19.3  18.8  18.5  18.4  18.2  18.1  18.0   0.0   0.0
 1989 228    44  21.1  20.5  19.7  19.2  18.9  18.6  18.3  18.2   0.0   0.0
 1989 229    45  22.2  21.4  20.5  19.7  19.3  18.8  18.5  18.3   0.0   0.0
 1989 230    46  23.3  22.3  21.2  20.3  19.7  19.1  18.7  18.4   0.0   0.0
 1989 231    47  23.0  22.2  21.0  20.2  19.6  19.0  18.6  18.4   0.0   0.0
 1989 232    48  22.0  21.3  20.3  19.6  19.2  18.8  18.4  18.3   0.0   0.0
 1989 233    49  20.5  19.9  19.3  18.8  18.6  18.3  18.2  18.1   0.0   0.0
 1989 234    50  18.3  18.0  17.8  17.7  17.7  17.8  17.8  17.8   0.0   0.0
 1989 235    51  15.9  15.9  16.1  16.4  16.7  17.1  17.4  17.5   0.0   0.0
 1989 236    52  14.7  14.9  15.2  15.7  16.2  16.8  17.2  17.4   0.0   0.0
 1989 237    53  14.2  14.5  14.9  15.5  16.0  16.7  17.1  17.3   0.0   0.0
 1989 238    54  14.0  14.3  14.8  15.4  15.9  16.6  17.1  17.3   0.0   0.0
 1989 239    55  14.3  14.5  15.0  15.5  16.0  16.7  17.1  17.3   0.0   0.0
 1989 240    56  14.7  14.8  15.2  15.7  16.2  16.8  17.2  17.3   0.0   0.0
 1989 241    57  16.2  16.2  16.2  16.5  16.7  17.1  17.4  17.5   0.0   0.0
 1989 242    58  17.4  17.2  17.0  17.1  17.2  17.4  17.6  17.6   0.0   0.0
 1989 243    59  16.9  16.8  16.7  16.8  17.0  17.3  17.5  17.6   0.0   0.0
 1989 244    60  17.2  17.0  16.9  16.9  17.1  17.3  17.5  17.6   0.0   0.0
 1989 245    61  17.1  16.9  16.8  16.8  17.0  17.3  17.5  17.6   0.0   0.0
 1989 246    62  16.6  16.5  16.5  16.6  16.8  17.1  17.4  17.5   0.0   0.0
 1989 247    63  17.2  17.0  16.8  16.9  17.0  17.3  17.5  17.6   0.0   0.0
 1989 248    64  17.6  17.4  17.1  17.1  17.2  17.4  17.5  17.6   0.0   0.0
 1989 249    65  17.6  17.4  17.1  17.1  17.2  17.4  17.5  17.6   0.0   0.0
 1989 250    66  17.8  17.5  17.2  17.1  17.2  17.4  17.5  17.6   0.0   0.0
 1989 251    67  16.9  16.7  16.6  16.7  16.9  17.1  17.4  17.5   0.0   0.0
 1989 252    68  15.7  15.7  15.8  16.0  16.4  16.8  17.2  17.3   0.0   0.0
 1989 253    69  15.9  15.9  15.9  16.1  16.4  16.9  17.2  17.4   0.0   0.0
 1989 254    70  16.5  16.4  16.3  16.4  16.6  17.0  17.3  17.4   0.0   0.0
 1989 255    71  16.8  16.6  16.5  16.5  16.7  17.0  17.3  17.4   0.0   0.0
 1989 256    72  16.7  16.5  16.4  16.5  16.7  17.0  17.3  17.4   0.0   0.0
 1989 257    73  16.3  16.1  16.1  16.2  16.5  16.9  17.2  17.4   0.0   0.0
 1989 258    74  15.7  15.6  15.7  15.9  16.3  16.7  17.1  17.3   0.0   0.0
 1989 259    75  15.4  15.4  15.5  15.8  16.1  16.6  17.0  17.2   0.0   0.0
 1989 260    76  15.6  15.5  15.6  15.9  16.2  16.7  17.1  17.2   0.0   0.0
 1989 261    77  16.5  16.3  16.2  16.3  16.5  16.9  17.2  17.3   0.0   0.0
 1989 262    78  18.0  17.6  17.3  17.1  17.1  17.2  17.4  17.5   0.0   0.0
 1989 263    79  19.8  19.2  18.5  18.0  17.8  17.7  17.7  17.7   0.0   0.0
 1989 264    80  21.5  20.6  19.6  18.8  18.4  18.1  18.0  17.9   0.0   0.0
 1989 265    81  21.5  20.7  19.6  18.8  18.4  18.1  17.9  17.9   0.0   0.0
 1989 266    82  20.6  19.9  19.0  18.4  18.1  17.8  17.8  17.8   0.0   0.0
 1989 267    83  18.3  17.9  17.4  17.2  17.1  17.2  17.4  17.5   0.0   0.0
 1989 268    84  15.9  15.8  15.8  15.9  16.2  16.6  17.0  17.2   0.0   0.0
 1989 269    85  13.7  13.9  14.3  14.8  15.3  16.0  16.6  16.9   0.0   0.0
 1989 270    86  12.7  13.0  13.6  14.2  14.9  15.8  16.5  16.8   0.0   0.0
 1989 271    87  12.6  12.9  13.4  14.2  14.8  15.7  16.4  16.8   0.0   0.0
 1989 272    88  13.7  13.9  14.2  14.8  15.3  16.0  16.6  16.9   0.0   0.0
 1989 273    89  15.5  15.4  15.4  15.6  15.9  16.4  16.9  17.1   0.0   0.0
 1989 274    90  17.5  17.1  16.8  16.7  16.7  16.9  17.2  17.3   0.0   0.0
 1989 275    91  19.4  18.8  18.1  17.7  17.5  17.4  17.5  17.5   0.0   0.0
 1989 276    92  20.6  19.9  18.9  18.3  17.9  17.7  17.7  17.7   0.0   0.0
 1989 277    93  21.3  20.5  19.4  18.6  18.2  17.9  17.8  17.7   0.0   0.0
 1989 278    94  21.9  21.0  19.8  18.9  18.4  18.0  17.8  17.8   0.0   0.0
 1989 279    95  21.8  20.9  19.7  18.8  18.3  17.9  17.8  17.8   0.0   0.0
 1989 280    96  21.5  20.6  19.5  18.6  18.2  17.9  17.7  17.7   0.0   0.0
 1989 281    97  21.1  20.3  19.3  18.5  18.0  17.8  17.7  17.7   0.0   0.0
 1989 282    98  20.9  20.1  19.1  18.3  17.9  17.7  17.6  17.6   0.0   0.0
 1989 283    99  20.3  19.6  18.7  18.0  17.7  17.5  17.5  17.6   0.0   0.0
 1989 284   100  19.6  19.0  18.2  17.7  17.4  17.3  17.4  17.5   0.0   0.0
 1989 285   101  17.9  17.5  17.0  16.8  16.7  16.9  17.1  17.3   0.0   0.0
 1989 286   102  17.1  16.8  16.5  16.4  16.4  16.7  17.0  17.2   0.0   0.0
 1989 287   103  17.1  16.8  16.4  16.3  16.4  16.7  17.0  17.1   0.0   0.0
 1989 288   104  17.4  17.0  16.6  16.5  16.5  16.7  17.0  17.2   0.0   0.0
 1989 289   105  17.7  17.3  16.9  16.7  16.6  16.8  17.0  17.2   0.0   0.0
 1989 290   106  18.9  18.3  17.7  17.3  17.1  17.1  17.2  17.3   0.0   0.0
 1989 291   107  20.0  19.3  18.4  17.8  17.5  17.3  17.4  17.4   0.0   0.0
 1989 292   108  20.9  20.0  19.0  18.3  17.8  17.6  17.5  17.5   0.0   0.0
 1989 293   109  21.8  20.8  19.6  18.7  18.2  17.8  17.6  17.6   0.0   0.0
 1989 294   110  22.5  21.4  20.1  19.1  18.4  17.9  17.8  17.7   0.0   0.0
 1989 295   111  23.9  22.7  21.1  19.8  18.9  18.3  18.0  17.8   0.0   0.0
 1989 296   112  25.3  23.9  22.1  20.5  19.5  18.6  18.2  18.0   0.0   0.0
 1989 297   113  24.9  23.5  21.7  20.3  19.3  18.5  18.1  17.9   0.0   0.0
 1989 298   114  23.6  22.4  20.9  19.6  18.8  18.2  17.9  17.8   0.0   0.0
 1989 299   115  22.4  21.4  20.1  19.0  18.4  17.9  17.7  17.6   0.0   0.0
 1989 300   116  21.3  20.4  19.3  18.5  18.0  17.6  17.5  17.5   0.0   0.0
 1989 301   117  20.1  19.4  18.5  17.8  17.5  17.3  17.3  17.4   0.0   0.0
 1989 302   118  21.3  20.4  19.3  18.4  17.9  17.6  17.5  17.5   0.0   0.0
 1989 303   119  21.4  20.5  19.4  18.5  18.0  17.6  17.5  17.5   0.0   0.0
 1989 304   120  21.8  20.8  19.6  18.7  18.1  17.7  17.5  17.5   0.0   0.0
 1989 305   121  21.8  20.9  19.7  18.7  18.1  17.7  17.5  17.5   0.0   0.0
 1989 306   122  21.1  20.3  19.2  18.3  17.8  17.5  17.4  17.4   0.0   0.0
 1989 307   123  19.5  18.9  18.1  17.5  17.2  17.1  17.2  17.2   0.0   0.0
 1989 308   124  19.8  19.2  18.3  17.7  17.3  17.2  17.2  17.3   0.0   0.0
 1989 309   125  20.1  19.4  18.5  17.8  17.4  17.2  17.2  17.3   0.0   0.0
 1989 310   126  20.9  20.1  19.0  18.2  17.7  17.4  17.4  17.4   0.0   0.0
 1989 311   127  21.8  20.8  19.6  18.7  18.1  17.6  17.5  17.5   0.0   0.0
 1989 312   128  23.1  22.0  20.6  19.4  18.6  18.0  17.7  17.6   0.0   0.0
 1989 313   129  24.1  22.8  21.2  19.8  18.9  18.2  17.8  17.7   0.0   0.0
 1989 314   130  25.4  24.0  22.1  20.5  19.5  18.5  18.0  17.9   0.0   0.0
 1989 315   131  25.1  23.7  21.9  20.3  19.3  18.4  18.0  17.8   0.0   0.0
 1989 316   132  24.1  22.9  21.3  19.9  19.0  18.2  17.8  17.7   0.0   0.0
 1989 317   133  22.5  21.5  20.2  19.1  18.4  17.8  17.6  17.5   0.0   0.0
 1989 318   134  21.7  20.8  19.6  18.6  18.0  17.6  17.4  17.4   0.0   0.0
 1989 319   135  21.4  20.6  19.4  18.5  17.9  17.5  17.4  17.4   0.0   0.0
 1989 320   136  21.5  20.7  19.5  18.6  18.0  17.5  17.4  17.4   0.0   0.0
 1989 321   137  22.8  21.7  20.3  19.2  18.4  17.8  17.6  17.5   0.0   0.0
 1989 322   138  24.9  23.6  21.8  20.3  19.3  18.4  17.9  17.8   0.0   0.0
 1989 323   139  26.2  24.7  22.7  20.9  19.8  18.7  18.1  17.9   0.0   0.0
 1989 324   140  26.2  24.7  22.7  20.9  19.7  18.7  18.1  17.9   0.0   0.0
 1989 325   141  27.2  25.6  23.4  21.5  20.1  18.9  18.3  18.0   0.0   0.0
 1989 326   142  28.6  26.8  24.3  22.2  20.7  19.3  18.5  18.2   0.0   0.0
 1989 327   143  28.8  26.9  24.5  22.3  20.7  19.3  18.5  18.2   0.0   0.0
 1989 328   144  27.7  26.0  23.7  21.7  20.3  19.0  18.3  18.0   0.0   0.0
 1989 329   145  27.2  25.6  23.4  21.5  20.1  18.9  18.2  18.0   0.0   0.0
 1989 330   146  26.6  25.0  23.0  21.1  19.9  18.8  18.1  17.9   0.0   0.0
 1989 331   147  25.1  23.7  21.9  20.4  19.3  18.4  17.9  17.7   0.0   0.0
 1989 332   148  24.2  23.0  21.3  19.9  19.0  18.1  17.8  17.6   0.0   0.0
 1989 333   149  24.5  23.2  21.6  20.1  19.1  18.2  17.8  17.7   0.0   0.0
 1989 334   150  25.3  24.0  22.1  20.5  19.4  18.4  17.9  17.7   0.0   0.0
 1989 335   151  26.3  24.8  22.8  21.0  19.8  18.7  18.1  17.8   0.0   0.0
 1989 336   152  27.4  25.7  23.5  21.5  20.2  18.9  18.2  18.0   0.0   0.0
 1989 337   153  27.4  25.8  23.5  21.6  20.2  18.9  18.2  18.0   0.0   0.0
 1989 338   154  27.4  25.8  23.6  21.6  20.2  18.9  18.2  18.0   0.0   0.0
 1989 339   155  27.6  26.0  23.7  21.7  20.3  19.0  18.3  18.0   0.0   0.0
 1989 340   156  27.2  25.6  23.5  21.5  20.2  18.9  18.2  17.9   0.0   0.0
 1989 341   157  27.2  25.6  23.4  21.5  20.1  18.9  18.2  17.9   0.0   0.0
 1989 342   158  28.0  26.3  24.0  21.9  20.5  19.1  18.3  18.0   0.0   0.0
 1989 343   159  28.7  26.9  24.5  22.3  20.7  19.3  18.4  18.1   0.0   0.0
 1989 344   160  29.1  27.2  24.7  22.5  20.9  19.3  18.5  18.1   0.0   0.0
 1989 345   161  29.9  28.0  25.3  22.9  21.2  19.5  18.6  18.2   0.0   0.0
 1989 346   162  30.7  28.7  25.9  23.3  21.5  19.7  18.7  18.3   0.0   0.0
 1989 347   163  31.1  29.0  26.1  23.5  21.7  19.9  18.8  18.3   0.0   0.0
 1989 348   164  31.3  29.2  26.3  23.6  21.8  19.9  18.8  18.4   0.0   0.0
 1989 349   165  31.2  29.1  26.2  23.6  21.7  19.9  18.8  18.3   0.0   0.0
 1989 350   166  31.2  29.1  26.2  23.6  21.7  19.9  18.8  18.3   0.0   0.0
 1989 351   167  29.4  27.5  25.0  22.7  21.0  19.4  18.5  18.1   0.0   0.0
 1989 352   168  28.0  26.4  24.1  22.1  20.6  19.2  18.3  18.0   0.0   0.0
 1989 353   169  27.3  25.8  23.7  21.7  20.3  19.0  18.2  17.9   0.0   0.0
 1989 354   170  26.4  25.0  23.0  21.2  20.0  18.8  18.1  17.8   0.0   0.0
 1989 355   171  25.1  23.9  22.1  20.6  19.5  18.4  17.9  17.7   0.0   0.0
 1989 356   172  26.0  24.6  22.8  21.0  19.8  18.6  18.0  17.8   0.0   0.0
 1989 357   173  26.8  25.4  23.3  21.5  20.1  18.9  18.1  17.9   0.0   0.0
 1989 358   174  27.6  26.0  23.9  21.9  20.4  19.0  18.3  17.9   0.0   0.0
 1989 359   175  27.8  26.2  24.0  22.0  20.5  19.1  18.3  18.0   0.0   0.0
 1989 360   176  28.5  26.8  24.5  22.3  20.8  19.3  18.4  18.0   0.0   0.0
 1989 361   177  28.5  26.8  24.5  22.3  20.8  19.3  18.4  18.0   0.0   0.0
 1989 362   178  28.6  26.9  24.6  22.4  20.8  19.3  18.4  18.0   0.0   0.0
 1989 363   179  28.0  26.5  24.2  22.2  20.7  19.2  18.3  18.0   0.0   0.0
 1989 364   180  28.0  26.4  24.2  22.1  20.7  19.2  18.3  18.0   0.0   0.0
 1989 365   181  27.9  26.3  24.1  22.1  20.6  19.2  18.3  18.0   0.0   0.0
 1990 001   182  28.0  26.4  24.2  22.1  20.6  19.2  18.3  18.0   0.0   0.0
 1990 002   183  27.9  26.3  24.1  22.1  20.6  19.1  18.3  18.0   0.0   0.0
 1990 003   184  28.2  26.6  24.4  22.3  20.7  19.2  18.4  18.0   0.0   0.0
 1990 004   185  29.3  27.6  25.1  22.8  21.1  19.5  18.5  18.1   0.0   0.0

*DSSAT Cropping System Model Ver. 4.0.2.000               Aug 03, 2016; 14:28:43

*RUN   4        : UYMZ                    
 MODEL          : MZCER040 - Maize           
 EXPERIMENT     : UYMZ0116 MZ    late to create DSS                             
 TREATMENT  1   : UYMZ                    

@YEAR DOY   DAS  TS1D  TS2D  TS3D  TS4D  TS5D  TS6D  TS7D  TS8D  TS9D  TS10
 1990 184     0  13.8  14.4  15.3  16.2  16.8  17.3  17.5  17.6   0.0   0.0
 1990 185     1  13.8  14.4  15.3  16.2  16.8  17.3  17.5  17.6   0.0   0.0
 1990 186     2  14.2  14.8  15.6  16.4  16.9  17.4  17.6  17.6   0.0   0.0
 1990 187     3  14.9  15.3  16.0  16.7  17.2  17.6  17.7  17.7   0.0   0.0
 1990 188     4  15.0  15.4  16.1  16.7  17.2  17.6  17.7  17.7   0.0   0.0
 1990 189     5  15.9  16.2  16.7  17.2  17.5  17.8  17.8  17.8   0.0   0.0
 1990 190     6  16.1  16.4  16.8  17.3  17.6  17.8  17.9  17.8   0.0   0.0
 1990 191     7  15.4  15.8  16.4  16.9  17.3  17.6  17.8  17.7   0.0   0.0
 1990 192     8  15.0  15.4  16.1  16.7  17.1  17.5  17.7  17.7   0.0   0.0
 1990 193     9  15.1  15.5  16.1  16.7  17.2  17.6  17.7  17.7   0.0   0.0
 1990 194    10  15.0  15.4  16.1  16.7  17.1  17.5  17.7  17.7   0.0   0.0
 1990 195    11  15.2  15.6  16.2  16.7  17.2  17.6  17.7  17.7   0.0   0.0
 1990 196    12  16.1  16.4  16.8  17.2  17.5  17.8  17.8  17.8   0.0   0.0
 1990 197    13  15.9  16.2  16.6  17.1  17.4  17.7  17.8  17.8   0.0   0.0
 1990 198    14  15.8  16.1  16.5  17.0  17.3  17.7  17.8  17.8   0.0   0.0
 1990 199    15  14.4  14.9  15.6  16.3  16.8  17.3  17.5  17.6   0.0   0.0
 1990 200    16  12.6  13.3  14.3  15.3  16.1  16.8  17.3  17.4   0.0   0.0
 1990 201    17  10.5  11.5  12.9  14.2  15.3  16.3  16.9  17.2   0.0   0.0
 1990 202    18   9.0  10.1  11.8  13.4  14.7  15.9  16.7  17.0   0.0   0.0
 1990 203    19   7.4   8.7  10.7  12.6  14.0  15.5  16.4  16.8   0.0   0.0
 1990 204    20   7.5   8.9  10.8  12.7  14.1  15.5  16.4  16.8   0.0   0.0
 1990 205    21   8.5   9.7  11.5  13.2  14.4  15.8  16.6  16.9   0.0   0.0
 1990 206    22   8.5   9.7  11.4  13.1  14.4  15.7  16.6  16.9   0.0   0.0
 1990 207    23   9.1  10.3  11.9  13.4  14.6  15.9  16.7  17.0   0.0   0.0
 1990 208    24  10.5  11.4  12.8  14.1  15.1  16.2  16.9  17.1   0.0   0.0
 1990 209    25  10.2  11.2  12.6  14.0  15.0  16.1  16.8  17.1   0.0   0.0
 1990 210    26   9.8  10.8  12.3  13.7  14.9  16.0  16.7  17.0   0.0   0.0
 1990 211    27  10.6  11.5  12.8  14.1  15.1  16.2  16.9  17.1   0.0   0.0
 1990 212    28  10.9  11.8  13.0  14.3  15.2  16.3  16.9  17.1   0.0   0.0
 1990 213    29  11.2  12.0  13.2  14.4  15.3  16.3  16.9  17.2   0.0   0.0
 1990 214    30  12.7  13.3  14.2  15.1  15.9  16.7  17.2  17.3   0.0   0.0
 1990 215    31  14.3  14.6  15.3  15.9  16.5  17.1  17.4  17.5   0.0   0.0
 1990 216    32  16.0  16.1  16.4  16.8  17.1  17.5  17.7  17.7   0.0   0.0
 1990 217    33  18.1  18.0  17.9  17.9  17.9  18.0  18.0  17.9   0.0   0.0
 1990 218    34  19.5  19.2  18.8  18.6  18.5  18.3  18.2  18.1   0.0   0.0
 1990 219    35  20.9  20.3  19.7  19.2  18.9  18.7  18.4  18.2   0.0   0.0
 1990 220    36  21.7  21.0  20.2  19.6  19.2  18.8  18.5  18.3   0.0   0.0
 1990 221    37  21.7  21.0  20.2  19.6  19.2  18.8  18.5  18.3   0.0   0.0
 1990 222    38  21.2  20.6  19.9  19.3  19.0  18.7  18.4  18.2   0.0   0.0
 1990 223    39  21.7  21.0  20.2  19.6  19.2  18.8  18.5  18.3   0.0   0.0
 1990 224    40  22.1  21.3  20.5  19.8  19.3  18.9  18.5  18.3   0.0   0.0
 1990 225    41  22.6  21.8  20.8  20.0  19.5  19.0  18.6  18.4   0.0   0.0
 1990 226    42  23.2  22.3  21.2  20.3  19.7  19.1  18.7  18.4   0.0   0.0
 1990 227    43  22.3  21.5  20.6  19.8  19.4  18.9  18.5  18.3   0.0   0.0
 1990 228    44  20.8  20.2  19.6  19.1  18.8  18.5  18.3  18.2   0.0   0.0
 1990 229    45  19.6  19.2  18.7  18.4  18.3  18.2  18.1  18.0   0.0   0.0
 1990 230    46  18.3  18.0  17.8  17.7  17.7  17.8  17.9  17.8   0.0   0.0
 1990 231    47  17.5  17.4  17.3  17.3  17.4  17.6  17.7  17.8   0.0   0.0
 1990 232    48  18.4  18.1  17.8  17.7  17.7  17.8  17.9  17.8   0.0   0.0
 1990 233    49  18.7  18.3  18.0  17.9  17.8  17.9  17.9  17.9   0.0   0.0
 1990 234    50  18.2  17.9  17.7  17.6  17.6  17.7  17.8  17.8   0.0   0.0
 1990 235    51  17.4  17.2  17.1  17.2  17.3  17.5  17.7  17.7   0.0   0.0
 1990 236    52  16.6  16.5  16.6  16.8  17.0  17.3  17.5  17.6   0.0   0.0
 1990 237    53  16.9  16.8  16.8  16.9  17.1  17.4  17.6  17.6   0.0   0.0
 1990 238    54  17.8  17.6  17.4  17.3  17.4  17.6  17.7  17.7   0.0   0.0
 1990 239    55  17.5  17.3  17.1  17.2  17.3  17.5  17.6  17.7   0.0   0.0
 1990 240    56  16.6  16.5  16.5  16.7  16.9  17.2  17.5  17.6   0.0   0.0
 1990 241    57  16.0  16.0  16.1  16.4  16.7  17.1  17.4  17.5   0.0   0.0
 1990 242    58  15.5  15.6  15.7  16.1  16.5  16.9  17.3  17.4   0.0   0.0
 1990 243    59  13.1  13.5  14.1  14.8  15.5  16.3  16.9  17.1   0.0   0.0
 1990 244    60  11.9  12.4  13.2  14.2  15.0  16.0  16.7  17.0   0.0   0.0
 1990 245    61  11.9  12.4  13.2  14.2  15.0  16.0  16.6  17.0   0.0   0.0
 1990 246    62  12.4  12.8  13.6  14.4  15.2  16.1  16.7  17.0   0.0   0.0
 1990 247    63  11.5  12.0  12.9  13.9  14.8  15.8  16.6  16.9   0.0   0.0
 1990 248    64  12.6  13.0  13.7  14.5  15.2  16.1  16.7  17.0   0.0   0.0
 1990 249    65  13.9  14.1  14.6  15.2  15.7  16.4  16.9  17.2   0.0   0.0
 1990 250    66  15.0  15.0  15.3  15.7  16.1  16.7  17.1  17.3   0.0   0.0
 1990 251    67  14.7  14.8  15.1  15.5  16.0  16.6  17.0  17.2   0.0   0.0
 1990 252    68  16.1  16.0  16.0  16.2  16.5  16.9  17.2  17.4   0.0   0.0
 1990 253    69  17.6  17.3  17.0  17.0  17.1  17.3  17.5  17.5   0.0   0.0
 1990 254    70  18.6  18.2  17.7  17.5  17.5  17.5  17.6  17.7   0.0   0.0
 1990 255    71  18.3  17.9  17.5  17.3  17.3  17.4  17.5  17.6   0.0   0.0
 1990 256    72  17.8  17.5  17.2  17.1  17.1  17.3  17.5  17.5   0.0   0.0
 1990 257    73  16.2  16.1  16.1  16.2  16.5  16.9  17.2  17.3   0.0   0.0
 1990 258    74  14.7  14.8  15.0  15.4  15.9  16.5  16.9  17.2   0.0   0.0
 1990 259    75  14.5  14.6  14.9  15.3  15.8  16.4  16.9  17.1   0.0   0.0
 1990 260    76  15.1  15.1  15.3  15.6  16.0  16.5  17.0  17.2   0.0   0.0
 1990 261    77  16.1  16.0  16.0  16.1  16.4  16.8  17.1  17.3   0.0   0.0
 1990 262    78  16.8  16.6  16.5  16.5  16.6  16.9  17.2  17.4   0.0   0.0
 1990 263    79  16.9  16.6  16.5  16.5  16.6  16.9  17.2  17.4   0.0   0.0
 1990 264    80  16.8  16.5  16.4  16.4  16.6  16.9  17.2  17.3   0.0   0.0
 1990 265    81  17.0  16.7  16.5  16.5  16.6  16.9  17.2  17.4   0.0   0.0
 1990 266    82  16.4  16.2  16.1  16.2  16.4  16.8  17.1  17.3   0.0   0.0
 1990 267    83  15.9  15.8  15.8  15.9  16.2  16.6  17.0  17.2   0.0   0.0
 1990 268    84  15.6  15.5  15.6  15.8  16.1  16.5  17.0  17.2   0.0   0.0
 1990 269    85  15.6  15.5  15.5  15.7  16.0  16.5  16.9  17.2   0.0   0.0
 1990 270    86  16.4  16.2  16.1  16.2  16.4  16.7  17.1  17.2   0.0   0.0
 1990 271    87  17.7  17.3  16.9  16.8  16.8  17.0  17.2  17.4   0.0   0.0
 1990 272    88  18.9  18.4  17.8  17.4  17.3  17.3  17.4  17.5   0.0   0.0
 1990 273    89  20.5  19.7  18.8  18.2  17.9  17.7  17.7  17.7   0.0   0.0
 1990 274    90  21.9  20.9  19.8  18.9  18.4  18.0  17.9  17.8   0.0   0.0
 1990 275    91  22.1  21.1  20.0  19.0  18.5  18.1  17.9  17.8   0.0   0.0
 1990 276    92  23.2  22.1  20.7  19.6  18.9  18.4  18.1  18.0   0.0   0.0
 1990 277    93  24.7  23.3  21.7  20.3  19.4  18.7  18.3  18.1   0.0   0.0
 1990 278    94  24.0  22.8  21.2  20.0  19.2  18.5  18.2  18.0   0.0   0.0
 1990 279    95  23.0  21.9  20.5  19.5  18.8  18.3  18.0  17.9   0.0   0.0
 1990 280    96  22.5  21.5  20.2  19.2  18.6  18.1  17.9  17.8   0.0   0.0
 1990 281    97  21.4  20.5  19.4  18.6  18.1  17.8  17.7  17.7   0.0   0.0
 1990 282    98  20.0  19.3  18.5  17.9  17.6  17.5  17.5  17.5   0.0   0.0
 1990 283    99  20.3  19.6  18.7  18.1  17.7  17.5  17.5  17.6   0.0   0.0
 1990 284   100  20.2  19.4  18.6  18.0  17.6  17.5  17.5  17.5   0.0   0.0
 1990 285   101  19.9  19.2  18.4  17.8  17.5  17.4  17.4  17.5   0.0   0.0
 1990 286   102  20.1  19.4  18.6  17.9  17.6  17.4  17.5  17.5   0.0   0.0
 1990 287   103  20.3  19.5  18.6  18.0  17.6  17.5  17.5  17.5   0.0   0.0
 1990 288   104  20.0  19.3  18.4  17.8  17.5  17.4  17.4  17.5   0.0   0.0
 1990 289   105  19.8  19.2  18.3  17.8  17.5  17.3  17.4  17.4   0.0   0.0
 1990 290   106  19.9  19.2  18.4  17.8  17.5  17.3  17.4  17.4   0.0   0.0
 1990 291   107  20.4  19.7  18.7  18.0  17.7  17.5  17.5  17.5   0.0   0.0
 1990 292   108  20.6  19.8  18.9  18.1  17.7  17.5  17.5  17.5   0.0   0.0
 1990 293   109  21.2  20.3  19.2  18.4  17.9  17.6  17.6  17.6   0.0   0.0
 1990 294   110  21.8  20.9  19.7  18.7  18.2  17.8  17.6  17.6   0.0   0.0
 1990 295   111  22.7  21.7  20.3  19.2  18.5  18.0  17.8  17.7   0.0   0.0
 1990 296   112  22.9  21.8  20.4  19.3  18.6  18.0  17.8  17.7   0.0   0.0
 1990 297   113  22.7  21.6  20.3  19.2  18.5  18.0  17.8  17.7   0.0   0.0
 1990 298   114  22.7  21.6  20.2  19.1  18.5  18.0  17.7  17.7   0.0   0.0
 1990 299   115  23.2  22.1  20.6  19.4  18.7  18.1  17.8  17.7   0.0   0.0
 1990 300   116  23.8  22.6  21.0  19.7  18.9  18.2  17.9  17.8   0.0   0.0
 1990 301   117  23.5  22.3  20.8  19.5  18.8  18.1  17.8  17.8   0.0   0.0
 1990 302   118  24.3  23.0  21.3  20.0  19.1  18.3  18.0  17.8   0.0   0.0
 1990 303   119  25.4  23.9  22.1  20.5  19.5  18.6  18.1  17.9   0.0   0.0
 1990 304   120  24.8  23.5  21.7  20.2  19.3  18.4  18.0  17.9   0.0   0.0
 1990 305   121  24.2  22.9  21.3  19.9  19.0  18.3  17.9  17.8   0.0   0.0
 1990 306   122  24.7  23.3  21.6  20.1  19.2  18.4  18.0  17.8   0.0   0.0
 1990 307   123  24.8  23.5  21.7  20.2  19.2  18.4  18.0  17.8   0.0   0.0
 1990 308   124  23.6  22.4  20.8  19.6  18.8  18.1  17.8  17.7   0.0   0.0
 1990 309   125  22.7  21.7  20.3  19.2  18.4  17.9  17.7  17.6   0.0   0.0
 1990 310   126  22.0  21.0  19.8  18.8  18.1  17.7  17.5  17.5   0.0   0.0
 1990 311   127  21.4  20.5  19.4  18.5  17.9  17.5  17.4  17.4   0.0   0.0
 1990 312   128  19.6  19.0  18.2  17.6  17.2  17.1  17.1  17.2   0.0   0.0
 1990 313   129  19.5  18.9  18.1  17.5  17.2  17.0  17.1  17.2   0.0   0.0
 1990 314   130  20.4  19.6  18.7  17.9  17.5  17.3  17.2  17.3   0.0   0.0
 1990 315   131  21.6  20.7  19.5  18.6  18.0  17.6  17.4  17.4   0.0   0.0
 1990 316   132  21.7  20.8  19.6  18.6  18.0  17.6  17.4  17.4   0.0   0.0
 1990 317   133  24.7  23.4  21.6  20.1  19.2  18.3  17.9  17.8   0.0   0.0
 1990 318   134  26.7  25.1  23.0  21.2  19.9  18.8  18.2  18.0   0.0   0.0
 1990 319   135  26.5  25.0  22.9  21.1  19.9  18.8  18.2  18.0   0.0   0.0
 1990 320   136  25.6  24.2  22.2  20.6  19.5  18.5  18.0  17.8   0.0   0.0
 1990 321   137  26.0  24.6  22.6  20.9  19.7  18.7  18.1  17.9   0.0   0.0
 1990 322   138  25.2  23.9  22.0  20.5  19.4  18.5  18.0  17.8   0.0   0.0
 1990 323   139  25.5  24.1  22.2  20.6  19.5  18.5  18.0  17.8   0.0   0.0
 1990 324   140  26.3  24.8  22.8  21.0  19.8  18.7  18.1  17.9   0.0   0.0
 1990 325   141  27.7  26.0  23.8  21.7  20.4  19.1  18.4  18.1   0.0   0.0
 1990 326   142  28.2  26.5  24.1  22.0  20.5  19.2  18.4  18.1   0.0   0.0
 1990 327   143  28.0  26.3  23.9  21.9  20.5  19.1  18.4  18.1   0.0   0.0
 1990 328   144  27.2  25.5  23.4  21.4  20.1  18.9  18.2  18.0   0.0   0.0
 1990 329   145  27.3  25.7  23.5  21.5  20.2  18.9  18.3  18.0   0.0   0.0
 1990 330   146  26.6  25.0  23.0  21.1  19.9  18.7  18.1  17.9   0.0   0.0
 1990 331   147  25.4  24.0  22.2  20.5  19.4  18.5  17.9  17.8   0.0   0.0
 1990 332   148  24.7  23.4  21.7  20.2  19.2  18.3  17.8  17.7   0.0   0.0
 1990 333   149  24.4  23.2  21.5  20.0  19.1  18.2  17.8  17.6   0.0   0.0
 1990 334   150  23.8  22.7  21.1  19.8  18.8  18.1  17.7  17.6   0.0   0.0
 1990 335   151  24.0  22.8  21.2  19.9  18.9  18.1  17.7  17.6   0.0   0.0
 1990 336   152  24.1  22.9  21.3  19.9  18.9  18.1  17.7  17.6   0.0   0.0
 1990 337   153  23.8  22.7  21.1  19.8  18.8  18.0  17.7  17.6   0.0   0.0
 1990 338   154  23.9  22.7  21.2  19.8  18.9  18.1  17.7  17.6   0.0   0.0
 1990 339   155  24.9  23.6  21.8  20.3  19.2  18.3  17.8  17.7   0.0   0.0
 1990 340   156  24.8  23.5  21.8  20.3  19.2  18.3  17.8  17.7   0.0   0.0
 1990 341   157  25.4  24.1  22.2  20.6  19.5  18.5  17.9  17.7   0.0   0.0
 1990 342   158  25.8  24.4  22.6  20.9  19.7  18.6  18.0  17.8   0.0   0.0
 1990 343   159  24.3  23.1  21.5  20.1  19.1  18.2  17.8  17.6   0.0   0.0
 1990 344   160  22.1  21.2  20.0  19.0  18.3  17.7  17.4  17.4   0.0   0.0
 1990 345   161  21.9  21.1  19.9  18.9  18.2  17.6  17.4  17.3   0.0   0.0
 1990 346   162  21.1  20.3  19.3  18.5  17.9  17.4  17.2  17.2   0.0   0.0
 1990 347   163  20.7  20.0  19.1  18.3  17.7  17.3  17.2  17.2   0.0   0.0
 1990 348   164  21.2  20.4  19.4  18.5  17.9  17.4  17.3  17.2   0.0   0.0
 1990 349   165  22.7  21.8  20.5  19.3  18.5  17.8  17.5  17.4   0.0   0.0
 1990 350   166  23.7  22.7  21.2  19.9  18.9  18.1  17.7  17.5   0.0   0.0
 1990 351   167  25.2  24.0  22.2  20.6  19.5  18.5  17.9  17.7   0.0   0.0
 1990 352   168  25.8  24.4  22.6  20.9  19.7  18.6  18.0  17.8   0.0   0.0
 1990 353   169  26.5  25.1  23.1  21.4  20.1  18.8  18.1  17.9   0.0   0.0
 1990 354   170  26.5  25.1  23.2  21.4  20.1  18.8  18.1  17.9   0.0   0.0
 1990 355   171  26.4  25.0  23.1  21.3  20.0  18.8  18.1  17.8   0.0   0.0
 1990 356   172  25.8  24.5  22.6  21.0  19.8  18.6  18.0  17.8   0.0   0.0
 1990 357   173  26.0  24.7  22.9  21.2  19.9  18.7  18.1  17.8   0.0   0.0
 1990 358   174  25.6  24.3  22.6  20.9  19.8  18.6  18.0  17.8   0.0   0.0
 1990 359   175  25.3  24.1  22.4  20.8  19.7  18.6  17.9  17.7   0.0   0.0
 1990 360   176  25.6  24.4  22.6  21.0  19.8  18.6  18.0  17.8   0.0   0.0
 1990 361   177  26.9  25.5  23.5  21.6  20.3  19.0  18.2  17.9   0.0   0.0
 1990 362   178  25.9  24.6  22.8  21.1  19.9  18.7  18.0  17.8   0.0   0.0
 1990 363   179  25.8  24.6  22.8  21.1  19.9  18.7  18.0  17.8   0.0   0.0
 1990 364   180  26.1  24.8  23.0  21.3  20.0  18.8  18.1  17.8   0.0   0.0
 1990 365   181  25.8  24.6  22.8  21.1  19.9  18.7  18.0  17.8   0.0   0.0
 1991 001   182  25.7  24.4  22.6  21.0  19.8  18.6  18.0  17.7   0.0   0.0
 1991 002   183  27.0  25.5  23.5  21.7  20.3  19.0  18.2  17.9   0.0   0.0
 1991 003   184  28.1  26.5  24.3  22.2  20.7  19.2  18.4  18.0   0.0   0.0
 1991 004   185  28.4  26.8  24.5  22.4  20.9  19.3  18.4  18.1   0.0   0.0
 1991 005   186  28.2  26.6  24.4  22.3  20.8  19.3  18.4  18.0   0.0   0.0
