*SIMULATION OVERVIEW FILE

*DSSAT Cropping System Model Ver. 4.0.2.000               Aug 12, 2016; 12:55:24
                                                                                
*RUN   1        : UYMZ                                                          
 MODEL          : MZCER040 - MAIZE                                              
 EXPERIMENT     : UYMZ0198 SN late to create DSS                                
 TREATMENT  1   : UYMZ                                                          
                                                                                
 CROP           : MAIZE          CULTIVAR : CLARGO UY        ECOTYPE :IB0001    
 STARTING DATE  : DEC  6 2000                                                   
 PLANTING DATE  : DEC  9 2000    PLANTS/m2 :  7.0     ROW SPACING :  15.cm      
 WEATHER        : UYTA   2000                                                   
 SOIL           : UYSS0P2304     TEXTURE : CL    -  P23-04    SNIA CLAY LOAM    
 SOIL INITIAL C : DEPTH:137cm EXTR. H2O:180.9mm  NO3: 63.2kg/ha  NH4: 28.7kg/ha 
 WATER BALANCE  : AUTOMATIC IRRIGATION - REFILL PROFILE                         
 IRRIGATION     : AUTOMATIC - PLANTING -> MATURITY [ SOIL DEPTH:30.00m 50.%]    
 NITROGEN BAL.  : SOIL-N & N-UPTAKE SIMULATION; NO N-FIXATION                   
 N-FERTILIZER   :      101 kg/ha IN     3 APPLICATIONS                          
 RESIDUE/MANURE : INITIAL :     0 kg/ha ;       0 kg/ha IN     0 APPLICATIONS   
 ENVIRONM. OPT. : DAYL=    0.00  SRAD=    0.00  TMAX=    0.00  TMIN=    0.00    
                  RAIN=    0.00  CO2 = R330.00  DEW =    0.00  WIND=    0.00    
 SIMULATION OPT : WATER   :Y  NITROGEN:Y  N-FIX:N  PHOSPH :N  PESTS  :N         
                  PHOTO   :C  ET      :R  INFIL:S  HYDROL :R  SOM    :G         
 MANAGEMENT OPT : PLANTING:R  IRRIG   :A  FERT :D  RESIDUE:N  HARVEST:M  WTH:M  
                                                                                
*SUMMARY OF SOIL AND GENETIC INPUT PARAMETERS                                   
                                                                                
   SOIL LOWER UPPER   SAT  EXTR  INIT   ROOT   BULK     pH    NO3    NH4    ORG 
  DEPTH LIMIT LIMIT    SW    SW    SW   DIST   DENS                          C  
   cm   cm3/cm3    cm3/cm3    cm3/cm3         g/cm3         ugN/g  ugN/g     %  
------------------------------------------------------------------------------- 
  0-  5 0.267 0.401 0.475 0.134 0.360   1.00   1.30   5.50  15.00   1.50   1.92 
  5- 15 0.267 0.401 0.475 0.134 0.360   1.00   1.30   5.50  15.00   1.50   1.92 
 15- 30 0.274 0.408 0.480 0.133 0.367   0.84   1.32   5.61  11.77   1.50   1.62 
 30- 45 0.295 0.427 0.495 0.132 0.387   0.40   1.39   5.90   2.90   1.50   0.79 
 45- 60 0.280 0.413 0.484 0.133 0.383   0.37   1.41   6.38   2.13   1.50   0.65 
 60- 90 0.238 0.373 0.454 0.135 0.373   0.30   1.46   7.70   0.00   1.50   0.28 
 90-120 0.133 0.252 0.399 0.120 0.252   0.20   1.48   7.89   0.00   1.50   0.11 
120-137 0.191 0.336 0.441 0.145 0.336   0.13   1.27   7.83   0.00   1.50   2.07 
                                                                                
TOT-137  31.1  49.2  62.1  18.1  46.9  <--cm   -  kg/ha-->   63.2   28.7 161462 
SOIL ALBEDO    : 0.12      EVAPORATION LIMIT : 6.00         MIN. FACTOR  : 1.00 
RUNOFF CURVE # :10.00      DRAINAGE RATE     : 0.50         FERT. FACTOR : 1.00 
                                                                                
 MAIZE      CULTIVAR :UY0372-CLARGO UY          ECOTYPE :IB0001                 
 P1     : 310.00  P2     : 0.0000  P5     : 750.00                              
 G2     : 800.00  G3     :  7.500  PHINT  : 38.900                              
                                                                                
                                                                                
                                                                                
*SIMULATED CROP AND SOIL STATUS AT MAIN DEVELOPMENT STAGES

 RUN NO.     1     UYMZ                    

        CROP GROWTH   BIOMASS         LEAF   CROP N     STRESS  
   DATE  AGE STAGE      kg/ha    LAI   NUM  kg/ha  %   H2O    N 
 ------  --- ---------- -----  -----  ----  ---  ---  ----  ----
  6 DEC    0 Start Sim      0   0.00   0.0    0  0.0  0.00  0.00
  9 DEC    0 Sowing         0   0.00   0.0    0  0.0  0.00  0.00
 10 DEC    1 Germinate      0   0.00   0.0    0  0.0  0.00  0.00
 14 DEC    5 Emergence     28   0.00   2.2    1  4.4  0.00  0.00
  4 JAN   26 End Juveni   531   0.90  10.8   18  3.4  0.00  0.00
  8 JAN   30 Floral Ini   997   1.49  12.6   37  3.7  0.00  0.01
 18 FEB   71 75% Silkin  9913   4.15  26.2  158  1.6  0.00  0.09
  1 MAR   82 Beg Gr Fil 12249   3.98  26.2  170  1.4  0.00  0.03
  8 APR  120 End Gr Fil 19771   2.45  26.2  196  1.0  0.00  0.04
 12 APR  124 Maturity   19771   2.45  26.2  196  1.0  0.00  0.14
 12 APR  124 Harvest    19771   2.45  26.2  196  1.0  0.00  0.00


*MAIN GROWTH AND DEVELOPMENT VARIABLES

@     VARIABLE                          SIMULATED     MEASURED
      --------                          ---------     --------
      Anthesis day (dap)                       71          -99
      Physiological maturity day (dap)        124          -99
      Yield at harvest maturity (kg [dm]/    7832          -99
      Number at maturity (no/m2)             3119          -99
      Unit wt at maturity (g [dm]/unit)    0.2511          -99
      Number at maturity (no/unit)          445.5          -99
      Tops weight at maturity (kg [dm]/ha   19771          -99
      By-product produced (stalk) at matu   12043          -99
      Leaf area index, maximum               4.71          -99
      Harvest index at maturity             0.396          -99
      Grain N at maturity (kg/ha)             126          -99
      Tops N at maturity (kg/ha)              196          -99
      Stem N at maturity (kg/ha)               70          -99
      Grain N at maturity (%)                 1.6          -99
      Tops weight at anthesis (kg [dm]/ha    9669          -99
      Tops N at anthesis (kg/ha)              143          -99
      Leaf number per stem at maturity      26.16          -99


*ENVIRONMENTAL AND STRESS FACTORS

 |-----Development Phase------|-------------Environment--------------|---------Stress----------|
                              |--------Average-------|---Cumulative--|  (0=Min, 1=Max Stress)  |
                         Time  Temp  Temp Solar Photop         Evapo |----Water---|--Nitrogen--|
                         Span   Max   Min   Rad  [day]   Rain  Trans  Photo         Photo
                         days    øC    øC MJ/m2     hr     mm     mm  synth Growth  synth Growth
------------------------------------------------------------------------------------------------
 Emergence-End Juvenile    21  27.7  15.4  25.1  14.06  140.4   67.4  0.000  0.000  0.003  0.001
 End Juvenil-Floral Init    4  32.9  19.8  27.4  14.00   15.7   22.2  0.000  0.000  0.003  0.001
 Floral Init-End Lf Grow   41  28.4  17.5  22.7  13.59  187.3  215.3  0.000  0.000  0.210  0.084
 End Lf Grth-Beg Grn Fil   11  29.9  19.6  18.9  12.91   72.5   48.9  0.000  0.000  0.094  0.038
 Grain Filling Phase       38  26.8  17.6  15.6  12.12  347.2  131.0  0.000  0.000  0.096  0.038

                     Maize YIELD :     7832 kg/ha    [Dry weight] 

************************************************************************************************

*DSSAT Cropping System Model Ver. 4.0.2.000               Aug 12, 2016; 12:55:24
                                                                                
*RUN   2        : UYMZ                                                          
 MODEL          : MZCER040 - MAIZE                                              
 EXPERIMENT     : UYMZ0198 SN late to create DSS                                
 TREATMENT  1   : UYMZ                                                          
                                                                                
 CROP           : MAIZE          CULTIVAR : CLARGO UY        ECOTYPE :IB0001    
 STARTING DATE  : DEC  6 2000                                                   
 PLANTING DATE  : DEC  9 2000    PLANTS/m2 :  7.0     ROW SPACING :  15.cm      
 WEATHER        : UYTA   2000                                                   
 SOIL           : UYSS0P2304     TEXTURE : CL    -  P23-04    SNIA CLAY LOAM    
 SOIL INITIAL C : DEPTH:137cm EXTR. H2O:180.9mm  NO3: 63.2kg/ha  NH4: 28.7kg/ha 
 WATER BALANCE  : AUTOMATIC IRRIGATION - REFILL PROFILE                         
 IRRIGATION     : AUTOMATIC - PLANTING -> MATURITY [ SOIL DEPTH:30.00m 50.%]    
 NITROGEN BAL.  : SOIL-N & N-UPTAKE SIMULATION; NO N-FIXATION                   
 N-FERTILIZER   :      101 kg/ha IN     3 APPLICATIONS                          
 RESIDUE/MANURE : INITIAL :     0 kg/ha ;       0 kg/ha IN     0 APPLICATIONS   
 ENVIRONM. OPT. : DAYL=    0.00  SRAD=    0.00  TMAX=    0.00  TMIN=    0.00    
                  RAIN=    0.00  CO2 = R330.00  DEW =    0.00  WIND=    0.00    
 SIMULATION OPT : WATER   :Y  NITROGEN:Y  N-FIX:N  PHOSPH :N  PESTS  :N         
                  PHOTO   :C  ET      :R  INFIL:S  HYDROL :R  SOM    :G         
 MANAGEMENT OPT : PLANTING:R  IRRIG   :A  FERT :D  RESIDUE:N  HARVEST:M  WTH:M  
                                                                                
*SUMMARY OF SOIL AND GENETIC INPUT PARAMETERS                                   
                                                                                
   SOIL LOWER UPPER   SAT  EXTR  INIT   ROOT   BULK     pH    NO3    NH4    ORG 
  DEPTH LIMIT LIMIT    SW    SW    SW   DIST   DENS                          C  
   cm   cm3/cm3    cm3/cm3    cm3/cm3         g/cm3         ugN/g  ugN/g     %  
------------------------------------------------------------------------------- 
  0-  5 0.267 0.401 0.475 0.134 0.360   1.00   1.30   5.50  15.00   1.50   1.92 
  5- 15 0.267 0.401 0.475 0.134 0.360   1.00   1.30   5.50  15.00   1.50   1.92 
 15- 30 0.274 0.408 0.480 0.133 0.367   0.84   1.32   5.61  11.77   1.50   1.62 
 30- 45 0.295 0.427 0.495 0.132 0.387   0.40   1.39   5.90   2.90   1.50   0.79 
 45- 60 0.280 0.413 0.484 0.133 0.383   0.37   1.41   6.38   2.13   1.50   0.65 
 60- 90 0.238 0.373 0.454 0.135 0.373   0.30   1.46   7.70   0.00   1.50   0.28 
 90-120 0.133 0.252 0.399 0.120 0.252   0.20   1.48   7.89   0.00   1.50   0.11 
120-137 0.191 0.336 0.441 0.145 0.336   0.13   1.27   7.83   0.00   1.50   2.07 
                                                                                
TOT-137  31.1  49.2  62.1  18.1  46.9  <--cm   -  kg/ha-->   63.2   28.7 161462 
SOIL ALBEDO    : 0.12      EVAPORATION LIMIT : 6.00         MIN. FACTOR  : 1.00 
RUNOFF CURVE # :10.00      DRAINAGE RATE     : 0.50         FERT. FACTOR : 1.00 
                                                                                
 MAIZE      CULTIVAR :UY0372-CLARGO UY          ECOTYPE :IB0001                 
 P1     : 310.00  P2     : 0.0000  P5     : 750.00                              
 G2     : 800.00  G3     :  7.500  PHINT  : 38.900                              
                                                                                
                                                                                
                                                                                
*SIMULATED CROP AND SOIL STATUS AT MAIN DEVELOPMENT STAGES

 RUN NO.     2     UYMZ                    

        CROP GROWTH   BIOMASS         LEAF   CROP N     STRESS  
   DATE  AGE STAGE      kg/ha    LAI   NUM  kg/ha  %   H2O    N 
 ------  --- ---------- -----  -----  ----  ---  ---  ----  ----
  7 DEC    0 Start Sim      0   0.00   0.0    0  0.0  0.00  0.00
 10 DEC    0 Sowing         0   0.00   0.0    0  0.0  0.00  0.00
 11 DEC    1 Germinate      0   0.00   0.0    0  0.0  0.00  0.00
 15 DEC    5 Emergence     28   0.00   2.0    1  4.4  0.00  0.00
  4 JAN   25 End Juveni   497   0.86  10.7   18  3.6  0.00  0.00
  8 JAN   29 Floral Ini   785   1.23  11.9   29  3.7  0.00  0.01
 18 FEB   70 75% Silkin  9248   4.03  24.6  139  1.5  0.00  0.08
  2 MAR   82 Beg Gr Fil 11747   3.85  24.6  164  1.4  0.00  0.03
  9 APR  120 End Gr Fil 20144   2.32  24.6  190  0.9  0.00  0.09
 12 APR  123 Maturity   20144   2.32  24.6  190  0.9  0.00  0.27
 12 APR  123 Harvest    20144   2.32  24.6  190  0.9  0.00  0.00


*MAIN GROWTH AND DEVELOPMENT VARIABLES

@     VARIABLE                          SIMULATED     MEASURED
      --------                          ---------     --------
      Anthesis day (dap)                       70          -99
      Physiological maturity day (dap)        123          -99
      Yield at harvest maturity (kg [dm]/    9177          -99
      Number at maturity (no/m2)             3675          -99
      Unit wt at maturity (g [dm]/unit)    0.2497          -99
      Number at maturity (no/unit)          525.1          -99
      Tops weight at maturity (kg [dm]/ha   20144          -99
      By-product produced (stalk) at matu   11061          -99
      Leaf area index, maximum               4.55          -99
      Harvest index at maturity             0.456          -99
      Grain N at maturity (kg/ha)             136          -99
      Tops N at maturity (kg/ha)              190          -99
      Stem N at maturity (kg/ha)               54          -99
      Grain N at maturity (%)                 1.5          -99
      Tops weight at anthesis (kg [dm]/ha    9151          -99
      Tops N at anthesis (kg/ha)              104          -99
      Leaf number per stem at maturity      24.60          -99


*ENVIRONMENTAL AND STRESS FACTORS

 |-----Development Phase------|-------------Environment--------------|---------Stress----------|
                              |--------Average-------|---Cumulative--|  (0=Min, 1=Max Stress)  |
                         Time  Temp  Temp Solar Photop         Evapo |----Water---|--Nitrogen--|
                         Span   Max   Min   Rad  [day]   Rain  Trans  Photo         Photo
                         days    øC    øC MJ/m2     hr     mm     mm  synth Growth  synth Growth
------------------------------------------------------------------------------------------------
 Emergence-End Juvenile    20  28.2  15.9  26.0  14.06   50.3   47.4  0.000  0.000  0.004  0.001
 End Juvenil-Floral Init    4  25.5  17.4  20.9  14.00   26.0   17.3  0.000  0.000  0.001  0.000
 Floral Init-End Lf Grow   41  27.9  16.3  24.4  13.59  196.0  221.3  0.000  0.000  0.194  0.077
 End Lf Grth-Beg Grn Fil   12  28.3  16.0  22.9  12.90   63.0   61.0  0.000  0.000  0.114  0.045
 Grain Filling Phase       38  27.1  17.4  15.5  12.09  319.4  131.2  0.000  0.000  0.202  0.083

                     Maize YIELD :     9177 kg/ha    [Dry weight] 

************************************************************************************************

*DSSAT Cropping System Model Ver. 4.0.2.000               Aug 12, 2016; 12:55:24
                                                                                
*RUN   3        : UYMZ                                                          
 MODEL          : MZCER040 - MAIZE                                              
 EXPERIMENT     : UYMZ0198 SN late to create DSS                                
 TREATMENT  1   : UYMZ                                                          
                                                                                
 CROP           : MAIZE          CULTIVAR : CLARGO UY        ECOTYPE :IB0001    
 STARTING DATE  : DEC  6 2000                                                   
 PLANTING DATE  : DEC  9 2000    PLANTS/m2 :  7.0     ROW SPACING :  15.cm      
 WEATHER        : UYTA   2000                                                   
 SOIL           : UYSS0P2304     TEXTURE : CL    -  P23-04    SNIA CLAY LOAM    
 SOIL INITIAL C : DEPTH:137cm EXTR. H2O:180.9mm  NO3: 63.2kg/ha  NH4: 28.7kg/ha 
 WATER BALANCE  : AUTOMATIC IRRIGATION - REFILL PROFILE                         
 IRRIGATION     : AUTOMATIC - PLANTING -> MATURITY [ SOIL DEPTH:30.00m 50.%]    
 NITROGEN BAL.  : SOIL-N & N-UPTAKE SIMULATION; NO N-FIXATION                   
 N-FERTILIZER   :      101 kg/ha IN     3 APPLICATIONS                          
 RESIDUE/MANURE : INITIAL :     0 kg/ha ;       0 kg/ha IN     0 APPLICATIONS   
 ENVIRONM. OPT. : DAYL=    0.00  SRAD=    0.00  TMAX=    0.00  TMIN=    0.00    
                  RAIN=    0.00  CO2 = R330.00  DEW =    0.00  WIND=    0.00    
 SIMULATION OPT : WATER   :Y  NITROGEN:Y  N-FIX:N  PHOSPH :N  PESTS  :N         
                  PHOTO   :C  ET      :R  INFIL:S  HYDROL :R  SOM    :G         
 MANAGEMENT OPT : PLANTING:R  IRRIG   :A  FERT :D  RESIDUE:N  HARVEST:M  WTH:M  
                                                                                
*SUMMARY OF SOIL AND GENETIC INPUT PARAMETERS                                   
                                                                                
   SOIL LOWER UPPER   SAT  EXTR  INIT   ROOT   BULK     pH    NO3    NH4    ORG 
  DEPTH LIMIT LIMIT    SW    SW    SW   DIST   DENS                          C  
   cm   cm3/cm3    cm3/cm3    cm3/cm3         g/cm3         ugN/g  ugN/g     %  
------------------------------------------------------------------------------- 
  0-  5 0.267 0.401 0.475 0.134 0.360   1.00   1.30   5.50  15.00   1.50   1.92 
  5- 15 0.267 0.401 0.475 0.134 0.360   1.00   1.30   5.50  15.00   1.50   1.92 
 15- 30 0.274 0.408 0.480 0.133 0.367   0.84   1.32   5.61  11.77   1.50   1.62 
 30- 45 0.295 0.427 0.495 0.132 0.387   0.40   1.39   5.90   2.90   1.50   0.79 
 45- 60 0.280 0.413 0.484 0.133 0.383   0.37   1.41   6.38   2.13   1.50   0.65 
 60- 90 0.238 0.373 0.454 0.135 0.373   0.30   1.46   7.70   0.00   1.50   0.28 
 90-120 0.133 0.252 0.399 0.120 0.252   0.20   1.48   7.89   0.00   1.50   0.11 
120-137 0.191 0.336 0.441 0.145 0.336   0.13   1.27   7.83   0.00   1.50   2.07 
                                                                                
TOT-137  31.1  49.2  62.1  18.1  46.9  <--cm   -  kg/ha-->   63.2   28.7 161462 
SOIL ALBEDO    : 0.12      EVAPORATION LIMIT : 6.00         MIN. FACTOR  : 1.00 
RUNOFF CURVE # :10.00      DRAINAGE RATE     : 0.50         FERT. FACTOR : 1.00 
                                                                                
 MAIZE      CULTIVAR :UY0372-CLARGO UY          ECOTYPE :IB0001                 
 P1     : 310.00  P2     : 0.0000  P5     : 750.00                              
 G2     : 800.00  G3     :  7.500  PHINT  : 38.900                              
                                                                                
                                                                                
                                                                                
*SIMULATED CROP AND SOIL STATUS AT MAIN DEVELOPMENT STAGES

 RUN NO.     3     UYMZ                    

        CROP GROWTH   BIOMASS         LEAF   CROP N     STRESS  
   DATE  AGE STAGE      kg/ha    LAI   NUM  kg/ha  %   H2O    N 
 ------  --- ---------- -----  -----  ----  ---  ---  ----  ----
  7 DEC    0 Start Sim      0   0.00   0.0    0  0.0  0.00  0.00
 10 DEC    0 Sowing         0   0.00   0.0    0  0.0  0.00  0.00
 11 DEC    1 Germinate      0   0.00   0.0    0  0.0  0.00  0.00
 15 DEC    5 Emergence     28   0.00   2.2    1  4.4  0.00  0.00
  5 JAN   26 End Juveni   514   0.88  10.7   18  3.5  0.00  0.00
  9 JAN   30 Floral Ini   908   1.38  12.3   33  3.7  0.00  0.01
 15 FEB   67 75% Silkin  9499   4.28  25.4  107  1.1  0.00  0.08
 28 FEB   80 Beg Gr Fil 11540   3.92  25.4  166  1.4  0.00  0.05
 19 APR  130 End Gr Fil 19726   2.36  25.4  195  1.0  0.00  0.07
 23 APR  134 Maturity   19726   2.36  25.4  195  1.0  0.00  0.15
 23 APR  134 Harvest    19726   2.36  25.4  195  1.0  0.00  0.00


*MAIN GROWTH AND DEVELOPMENT VARIABLES

@     VARIABLE                          SIMULATED     MEASURED
      --------                          ---------     --------
      Anthesis day (dap)                       67          -99
      Physiological maturity day (dap)        134          -99
      Yield at harvest maturity (kg [dm]/    8450          -99
      Number at maturity (no/m2)             3348          -99
      Unit wt at maturity (g [dm]/unit)    0.2524          -99
      Number at maturity (no/unit)          478.3          -99
      Tops weight at maturity (kg [dm]/ha   19726          -99
      By-product produced (stalk) at matu   11374          -99
      Leaf area index, maximum               4.81          -99
      Harvest index at maturity             0.428          -99
      Grain N at maturity (kg/ha)             130          -99
      Tops N at maturity (kg/ha)              195          -99
      Stem N at maturity (kg/ha)               65          -99
      Grain N at maturity (%)                 1.5          -99
      Tops weight at anthesis (kg [dm]/ha    9350          -99
      Tops N at anthesis (kg/ha)              106          -99
      Leaf number per stem at maturity      25.36          -99


*ENVIRONMENTAL AND STRESS FACTORS

 |-----Development Phase------|-------------Environment--------------|---------Stress----------|
                              |--------Average-------|---Cumulative--|  (0=Min, 1=Max Stress)  |
                         Time  Temp  Temp Solar Photop         Evapo |----Water---|--Nitrogen--|
                         Span   Max   Min   Rad  [day]   Rain  Trans  Photo         Photo
                         days    øC    øC MJ/m2     hr     mm     mm  synth Growth  synth Growth
------------------------------------------------------------------------------------------------
 Emergence-End Juvenile    21  26.8  16.9  20.6  14.06   95.2   45.8  0.000  0.000  0.003  0.001
 End Juvenil-Floral Init    4  29.5  16.5  30.3  13.99    0.0   25.1  0.000  0.000  0.001  0.000
 Floral Init-End Lf Grow   37  30.4  18.3  23.8  13.62  207.1  206.6  0.000  0.000  0.192  0.077
 End Lf Grth-Beg Grn Fil   13  26.4  14.4  21.5  12.98  170.2   60.1  0.000  0.000  0.169  0.068
 Grain Filling Phase       50  24.3  13.7  16.5  11.96  238.4  169.8  0.000  0.000  0.162  0.065

                     Maize YIELD :     8450 kg/ha    [Dry weight] 

************************************************************************************************

*DSSAT Cropping System Model Ver. 4.0.2.000               Aug 12, 2016; 12:55:24
                                                                                
*RUN   4        : UYMZ                                                          
 MODEL          : MZCER040 - MAIZE                                              
 EXPERIMENT     : UYMZ0198 SN late to create DSS                                
 TREATMENT  1   : UYMZ                                                          
                                                                                
 CROP           : MAIZE          CULTIVAR : CLARGO UY        ECOTYPE :IB0001    
 STARTING DATE  : DEC  6 2000                                                   
 PLANTING DATE  : DEC  9 2000    PLANTS/m2 :  7.0     ROW SPACING :  15.cm      
 WEATHER        : UYTA   2000                                                   
 SOIL           : UYSS0P2304     TEXTURE : CL    -  P23-04    SNIA CLAY LOAM    
 SOIL INITIAL C : DEPTH:137cm EXTR. H2O:180.9mm  NO3: 63.2kg/ha  NH4: 28.7kg/ha 
 WATER BALANCE  : AUTOMATIC IRRIGATION - REFILL PROFILE                         
 IRRIGATION     : AUTOMATIC - PLANTING -> MATURITY [ SOIL DEPTH:30.00m 50.%]    
 NITROGEN BAL.  : SOIL-N & N-UPTAKE SIMULATION; NO N-FIXATION                   
 N-FERTILIZER   :      101 kg/ha IN     3 APPLICATIONS                          
 RESIDUE/MANURE : INITIAL :     0 kg/ha ;       0 kg/ha IN     0 APPLICATIONS   
 ENVIRONM. OPT. : DAYL=    0.00  SRAD=    0.00  TMAX=    0.00  TMIN=    0.00    
                  RAIN=    0.00  CO2 = R330.00  DEW =    0.00  WIND=    0.00    
 SIMULATION OPT : WATER   :Y  NITROGEN:Y  N-FIX:N  PHOSPH :N  PESTS  :N         
                  PHOTO   :C  ET      :R  INFIL:S  HYDROL :R  SOM    :G         
 MANAGEMENT OPT : PLANTING:R  IRRIG   :A  FERT :D  RESIDUE:N  HARVEST:M  WTH:M  
                                                                                
*SUMMARY OF SOIL AND GENETIC INPUT PARAMETERS                                   
                                                                                
   SOIL LOWER UPPER   SAT  EXTR  INIT   ROOT   BULK     pH    NO3    NH4    ORG 
  DEPTH LIMIT LIMIT    SW    SW    SW   DIST   DENS                          C  
   cm   cm3/cm3    cm3/cm3    cm3/cm3         g/cm3         ugN/g  ugN/g     %  
------------------------------------------------------------------------------- 
  0-  5 0.267 0.401 0.475 0.134 0.360   1.00   1.30   5.50  15.00   1.50   1.92 
  5- 15 0.267 0.401 0.475 0.134 0.360   1.00   1.30   5.50  15.00   1.50   1.92 
 15- 30 0.274 0.408 0.480 0.133 0.367   0.84   1.32   5.61  11.77   1.50   1.62 
 30- 45 0.295 0.427 0.495 0.132 0.387   0.40   1.39   5.90   2.90   1.50   0.79 
 45- 60 0.280 0.413 0.484 0.133 0.383   0.37   1.41   6.38   2.13   1.50   0.65 
 60- 90 0.238 0.373 0.454 0.135 0.373   0.30   1.46   7.70   0.00   1.50   0.28 
 90-120 0.133 0.252 0.399 0.120 0.252   0.20   1.48   7.89   0.00   1.50   0.11 
120-137 0.191 0.336 0.441 0.145 0.336   0.13   1.27   7.83   0.00   1.50   2.07 
                                                                                
TOT-137  31.1  49.2  62.1  18.1  46.9  <--cm   -  kg/ha-->   63.2   28.7 161462 
SOIL ALBEDO    : 0.12      EVAPORATION LIMIT : 6.00         MIN. FACTOR  : 1.00 
RUNOFF CURVE # :10.00      DRAINAGE RATE     : 0.50         FERT. FACTOR : 1.00 
                                                                                
 MAIZE      CULTIVAR :UY0372-CLARGO UY          ECOTYPE :IB0001                 
 P1     : 310.00  P2     : 0.0000  P5     : 750.00                              
 G2     : 800.00  G3     :  7.500  PHINT  : 38.900                              
                                                                                
                                                                                
                                                                                
*SIMULATED CROP AND SOIL STATUS AT MAIN DEVELOPMENT STAGES

 RUN NO.     4     UYMZ                    

        CROP GROWTH   BIOMASS         LEAF   CROP N     STRESS  
   DATE  AGE STAGE      kg/ha    LAI   NUM  kg/ha  %   H2O    N 
 ------  --- ---------- -----  -----  ----  ---  ---  ----  ----
  7 DEC    0 Start Sim      0   0.00   0.0    0  0.0  0.00  0.00
 10 DEC    0 Sowing         0   0.00   0.0    0  0.0  0.00  0.00
 11 DEC    1 Germinate      0   0.00   0.0    0  0.0  0.00  0.00
 17 DEC    7 Emergence     28   0.00   1.9    1  4.4  0.00  0.00
  7 JAN   28 End Juveni   472   0.82  10.5   16  3.4  0.00  0.00
 11 JAN   32 Floral Ini   919   1.40  12.3   34  3.7  0.00  0.01
 22 FEB   74 75% Silkin 10086   4.26  25.6  170  1.7  0.00  0.08
  6 MAR   87 Beg Gr Fil 12626   4.06  25.6  175  1.4  0.00  0.03
 12 APR  124 End Gr Fil 21457   2.54  25.6  190  0.9  0.00  0.12
 14 APR  126 Maturity   21457   2.54  25.6  190  0.9  0.00  0.33
 14 APR  126 Harvest    21457   2.54  25.6  190  0.9  0.00  0.00


*MAIN GROWTH AND DEVELOPMENT VARIABLES

@     VARIABLE                          SIMULATED     MEASURED
      --------                          ---------     --------
      Anthesis day (dap)                       74          -99
      Physiological maturity day (dap)        126          -99
      Yield at harvest maturity (kg [dm]/    9825          -99
      Number at maturity (no/m2)             3822          -99
      Unit wt at maturity (g [dm]/unit)    0.2571          -99
      Number at maturity (no/unit)          546.0          -99
      Tops weight at maturity (kg [dm]/ha   21457          -99
      By-product produced (stalk) at matu   11732          -99
      Leaf area index, maximum               4.69          -99
      Harvest index at maturity             0.458          -99
      Grain N at maturity (kg/ha)             135          -99
      Tops N at maturity (kg/ha)              190          -99
      Stem N at maturity (kg/ha)               55          -99
      Grain N at maturity (%)                 1.4          -99
      Tops weight at anthesis (kg [dm]/ha    9956          -99
      Tops N at anthesis (kg/ha)              169          -99
      Leaf number per stem at maturity      25.63          -99


*ENVIRONMENTAL AND STRESS FACTORS

 |-----Development Phase------|-------------Environment--------------|---------Stress----------|
                              |--------Average-------|---Cumulative--|  (0=Min, 1=Max Stress)  |
                         Time  Temp  Temp Solar Photop         Evapo |----Water---|--Nitrogen--|
                         Span   Max   Min   Rad  [day]   Rain  Trans  Photo         Photo
                         days    øC    øC MJ/m2     hr     mm     mm  synth Growth  synth Growth
------------------------------------------------------------------------------------------------
 Emergence-End Juvenile    21  26.7  13.9  25.5  14.05   89.0   50.1  0.000  0.000  0.003  0.001
 End Juvenil-Floral Init    4  32.1  19.4  25.9  13.97    6.8   22.4  0.000  0.000  0.002  0.001
 Floral Init-End Lf Grow   42  28.6  17.0  23.5  13.51   88.9  223.6  0.000  0.000  0.194  0.077
 End Lf Grth-Beg Grn Fil   13  27.7  13.6  23.4  12.76   20.0   66.7  0.000  0.000  0.083  0.033
 Grain Filling Phase       37  29.0  15.9  17.8  11.94   10.0  147.7  0.000  0.000  0.246  0.106

                     Maize YIELD :     9825 kg/ha    [Dry weight] 

************************************************************************************************

*DSSAT Cropping System Model Ver. 4.0.2.000               Aug 12, 2016; 12:55:24
                                                                                
*RUN   5        : UYMZ                                                          
 MODEL          : MZCER040 - MAIZE                                              
 EXPERIMENT     : UYMZ0198 SN late to create DSS                                
 TREATMENT  1   : UYMZ                                                          
                                                                                
 CROP           : MAIZE          CULTIVAR : CLARGO UY        ECOTYPE :IB0001    
 STARTING DATE  : DEC  6 2000                                                   
 PLANTING DATE  : DEC  9 2000    PLANTS/m2 :  7.0     ROW SPACING :  15.cm      
 WEATHER        : UYTA   2000                                                   
 SOIL           : UYSS0P2304     TEXTURE : CL    -  P23-04    SNIA CLAY LOAM    
 SOIL INITIAL C : DEPTH:137cm EXTR. H2O:180.9mm  NO3: 63.2kg/ha  NH4: 28.7kg/ha 
 WATER BALANCE  : AUTOMATIC IRRIGATION - REFILL PROFILE                         
 IRRIGATION     : AUTOMATIC - PLANTING -> MATURITY [ SOIL DEPTH:30.00m 50.%]    
 NITROGEN BAL.  : SOIL-N & N-UPTAKE SIMULATION; NO N-FIXATION                   
 N-FERTILIZER   :      101 kg/ha IN     3 APPLICATIONS                          
 RESIDUE/MANURE : INITIAL :     0 kg/ha ;       0 kg/ha IN     0 APPLICATIONS   
 ENVIRONM. OPT. : DAYL=    0.00  SRAD=    0.00  TMAX=    0.00  TMIN=    0.00    
                  RAIN=    0.00  CO2 = R330.00  DEW =    0.00  WIND=    0.00    
 SIMULATION OPT : WATER   :Y  NITROGEN:Y  N-FIX:N  PHOSPH :N  PESTS  :N         
                  PHOTO   :C  ET      :R  INFIL:S  HYDROL :R  SOM    :G         
 MANAGEMENT OPT : PLANTING:R  IRRIG   :A  FERT :D  RESIDUE:N  HARVEST:M  WTH:M  
                                                                                
*SUMMARY OF SOIL AND GENETIC INPUT PARAMETERS                                   
                                                                                
   SOIL LOWER UPPER   SAT  EXTR  INIT   ROOT   BULK     pH    NO3    NH4    ORG 
  DEPTH LIMIT LIMIT    SW    SW    SW   DIST   DENS                          C  
   cm   cm3/cm3    cm3/cm3    cm3/cm3         g/cm3         ugN/g  ugN/g     %  
------------------------------------------------------------------------------- 
  0-  5 0.267 0.401 0.475 0.134 0.360   1.00   1.30   5.50  15.00   1.50   1.92 
  5- 15 0.267 0.401 0.475 0.134 0.360   1.00   1.30   5.50  15.00   1.50   1.92 
 15- 30 0.274 0.408 0.480 0.133 0.367   0.84   1.32   5.61  11.77   1.50   1.62 
 30- 45 0.295 0.427 0.495 0.132 0.387   0.40   1.39   5.90   2.90   1.50   0.79 
 45- 60 0.280 0.413 0.484 0.133 0.383   0.37   1.41   6.38   2.13   1.50   0.65 
 60- 90 0.238 0.373 0.454 0.135 0.373   0.30   1.46   7.70   0.00   1.50   0.28 
 90-120 0.133 0.252 0.399 0.120 0.252   0.20   1.48   7.89   0.00   1.50   0.11 
120-137 0.191 0.336 0.441 0.145 0.336   0.13   1.27   7.83   0.00   1.50   2.07 
                                                                                
TOT-137  31.1  49.2  62.1  18.1  46.9  <--cm   -  kg/ha-->   63.2   28.7 161462 
SOIL ALBEDO    : 0.12      EVAPORATION LIMIT : 6.00         MIN. FACTOR  : 1.00 
RUNOFF CURVE # :10.00      DRAINAGE RATE     : 0.50         FERT. FACTOR : 1.00 
                                                                                
 MAIZE      CULTIVAR :UY0372-CLARGO UY          ECOTYPE :IB0001                 
 P1     : 310.00  P2     : 0.0000  P5     : 750.00                              
 G2     : 800.00  G3     :  7.500  PHINT  : 38.900                              
                                                                                
                                                                                
                                                                                
*SIMULATED CROP AND SOIL STATUS AT MAIN DEVELOPMENT STAGES

 RUN NO.     5     UYMZ                    

        CROP GROWTH   BIOMASS         LEAF   CROP N     STRESS  
   DATE  AGE STAGE      kg/ha    LAI   NUM  kg/ha  %   H2O    N 
 ------  --- ---------- -----  -----  ----  ---  ---  ----  ----
  6 DEC    0 Start Sim      0   0.00   0.0    0  0.0  0.00  0.00
  9 DEC    0 Sowing         0   0.00   0.0    0  0.0  0.00  0.00
 13 DEC    4 Germinate      0   0.00   0.0    0  0.0  0.00  0.00
 17 DEC    8 Emergence     28   0.00   1.9    1  4.4  0.00  0.00
  6 JAN   28 End Juveni   527   0.90  10.8   18  3.4  0.00  0.00
 10 JAN   32 Floral Ini  1028   1.53  12.7   38  3.7  0.00  0.01
 20 FEB   73 75% Silkin  9937   4.33  26.2  166  1.7  0.00  0.08
  5 MAR   86 Beg Gr Fil 12255   4.13  26.2  171  1.4  0.00  0.03
 20 APR  132 End Gr Fil 20392   2.44  26.2  192  0.9  0.00  0.07
 27 APR  139 Maturity   20392   2.44  26.2  192  0.9  0.00  0.18
 27 APR  139 Harvest    20392   2.44  26.2  192  0.9  0.00  0.00


*MAIN GROWTH AND DEVELOPMENT VARIABLES

@     VARIABLE                          SIMULATED     MEASURED
      --------                          ---------     --------
      Anthesis day (dap)                       73          -99
      Physiological maturity day (dap)        139          -99
      Yield at harvest maturity (kg [dm]/    8421          -99
      Number at maturity (no/m2)             3336          -99
      Unit wt at maturity (g [dm]/unit)    0.2524          -99
      Number at maturity (no/unit)          476.6          -99
      Tops weight at maturity (kg [dm]/ha   20392          -99
      By-product produced (stalk) at matu   12075          -99
      Leaf area index, maximum               4.70          -99
      Harvest index at maturity             0.413          -99
      Grain N at maturity (kg/ha)             127          -99
      Tops N at maturity (kg/ha)              192          -99
      Stem N at maturity (kg/ha)               65          -99
      Grain N at maturity (%)                 1.5          -99
      Tops weight at anthesis (kg [dm]/ha    9756          -99
      Tops N at anthesis (kg/ha)              163          -99
      Leaf number per stem at maturity      26.20          -99


*ENVIRONMENTAL AND STRESS FACTORS

 |-----Development Phase------|-------------Environment--------------|---------Stress----------|
                              |--------Average-------|---Cumulative--|  (0=Min, 1=Max Stress)  |
                         Time  Temp  Temp Solar Photop         Evapo |----Water---|--Nitrogen--|
                         Span   Max   Min   Rad  [day]   Rain  Trans  Photo         Photo
                         days    øC    øC MJ/m2     hr     mm     mm  synth Growth  synth Growth
------------------------------------------------------------------------------------------------
 Emergence-End Juvenile    20  28.1  15.1  26.9  14.05   75.4   51.3  0.000  0.000  0.004  0.001
 End Juvenil-Floral Init    4  35.0  20.1  28.5  13.98   12.0   18.3  0.000  0.000  0.002  0.001
 Floral Init-End Lf Grow   41  29.8  16.2  24.3  13.55   65.4  232.9  0.000  0.000  0.195  0.078
 End Lf Grth-Beg Grn Fil   13  29.1  15.4  19.9  12.82    8.1   57.8  0.000  0.000  0.080  0.032
 Grain Filling Phase       46  25.4  14.2  15.0  11.86  352.0  147.6  0.000  0.000  0.176  0.071

                     Maize YIELD :     8421 kg/ha    [Dry weight] 

************************************************************************************************

*DSSAT Cropping System Model Ver. 4.0.2.000               Aug 12, 2016; 12:55:24
                                                                                
*RUN   6        : UYMZ                                                          
 MODEL          : MZCER040 - MAIZE                                              
 EXPERIMENT     : UYMZ0198 SN late to create DSS                                
 TREATMENT  1   : UYMZ                                                          
                                                                                
 CROP           : MAIZE          CULTIVAR : CLARGO UY        ECOTYPE :IB0001    
 STARTING DATE  : DEC  6 2000                                                   
 PLANTING DATE  : DEC  9 2000    PLANTS/m2 :  7.0     ROW SPACING :  15.cm      
 WEATHER        : UYTA   2000                                                   
 SOIL           : UYSS0P2304     TEXTURE : CL    -  P23-04    SNIA CLAY LOAM    
 SOIL INITIAL C : DEPTH:137cm EXTR. H2O:180.9mm  NO3: 63.2kg/ha  NH4: 28.7kg/ha 
 WATER BALANCE  : AUTOMATIC IRRIGATION - REFILL PROFILE                         
 IRRIGATION     : AUTOMATIC - PLANTING -> MATURITY [ SOIL DEPTH:30.00m 50.%]    
 NITROGEN BAL.  : SOIL-N & N-UPTAKE SIMULATION; NO N-FIXATION                   
 N-FERTILIZER   :      101 kg/ha IN     3 APPLICATIONS                          
 RESIDUE/MANURE : INITIAL :     0 kg/ha ;       0 kg/ha IN     0 APPLICATIONS   
 ENVIRONM. OPT. : DAYL=    0.00  SRAD=    0.00  TMAX=    0.00  TMIN=    0.00    
                  RAIN=    0.00  CO2 = R330.00  DEW =    0.00  WIND=    0.00    
 SIMULATION OPT : WATER   :Y  NITROGEN:Y  N-FIX:N  PHOSPH :N  PESTS  :N         
                  PHOTO   :C  ET      :R  INFIL:S  HYDROL :R  SOM    :G         
 MANAGEMENT OPT : PLANTING:R  IRRIG   :A  FERT :D  RESIDUE:N  HARVEST:M  WTH:M  
                                                                                
*SUMMARY OF SOIL AND GENETIC INPUT PARAMETERS                                   
                                                                                
   SOIL LOWER UPPER   SAT  EXTR  INIT   ROOT   BULK     pH    NO3    NH4    ORG 
  DEPTH LIMIT LIMIT    SW    SW    SW   DIST   DENS                          C  
   cm   cm3/cm3    cm3/cm3    cm3/cm3         g/cm3         ugN/g  ugN/g     %  
------------------------------------------------------------------------------- 
  0-  5 0.267 0.401 0.475 0.134 0.360   1.00   1.30   5.50  15.00   1.50   1.92 
  5- 15 0.267 0.401 0.475 0.134 0.360   1.00   1.30   5.50  15.00   1.50   1.92 
 15- 30 0.274 0.408 0.480 0.133 0.367   0.84   1.32   5.61  11.77   1.50   1.62 
 30- 45 0.295 0.427 0.495 0.132 0.387   0.40   1.39   5.90   2.90   1.50   0.79 
 45- 60 0.280 0.413 0.484 0.133 0.383   0.37   1.41   6.38   2.13   1.50   0.65 
 60- 90 0.238 0.373 0.454 0.135 0.373   0.30   1.46   7.70   0.00   1.50   0.28 
 90-120 0.133 0.252 0.399 0.120 0.252   0.20   1.48   7.89   0.00   1.50   0.11 
120-137 0.191 0.336 0.441 0.145 0.336   0.13   1.27   7.83   0.00   1.50   2.07 
                                                                                
TOT-137  31.1  49.2  62.1  18.1  46.9  <--cm   -  kg/ha-->   63.2   28.7 161462 
SOIL ALBEDO    : 0.12      EVAPORATION LIMIT : 6.00         MIN. FACTOR  : 1.00 
RUNOFF CURVE # :10.00      DRAINAGE RATE     : 0.50         FERT. FACTOR : 1.00 
                                                                                
 MAIZE      CULTIVAR :UY0372-CLARGO UY          ECOTYPE :IB0001                 
 P1     : 310.00  P2     : 0.0000  P5     : 750.00                              
 G2     : 800.00  G3     :  7.500  PHINT  : 38.900                              
                                                                                
                                                                                
                                                                                
*SIMULATED CROP AND SOIL STATUS AT MAIN DEVELOPMENT STAGES

 RUN NO.     6     UYMZ                    

        CROP GROWTH   BIOMASS         LEAF   CROP N     STRESS  
   DATE  AGE STAGE      kg/ha    LAI   NUM  kg/ha  %   H2O    N 
 ------  --- ---------- -----  -----  ----  ---  ---  ----  ----
  7 DEC    0 Start Sim      0   0.00   0.0    0  0.0  0.00  0.00
 10 DEC    0 Sowing         0   0.00   0.0    0  0.0  0.00  0.00
 11 DEC    1 Germinate      0   0.00   0.0    0  0.0  0.00  0.00
 16 DEC    6 Emergence     28   0.00   2.1    1  4.4  0.00  0.00
  4 JAN   25 End Juveni   498   0.86  10.6   18  3.6  0.00  0.00
  8 JAN   29 Floral Ini   990   1.48  12.6   37  3.7  0.00  0.01
 17 FEB   69 75% Silkin 10274   4.13  26.1  115  1.1  0.00  0.09
 28 FEB   80 Beg Gr Fil 12567   3.88  26.1  176  1.4  0.00  0.04
  8 APR  119 End Gr Fil 20969   2.44  26.1  193  0.9  0.00  0.08
 11 APR  122 Maturity   20969   2.44  26.1  193  0.9  0.00  0.24
 11 APR  122 Harvest    20969   2.44  26.1  193  0.9  0.00  0.00


*MAIN GROWTH AND DEVELOPMENT VARIABLES

@     VARIABLE                          SIMULATED     MEASURED
      --------                          ---------     --------
      Anthesis day (dap)                       69          -99
      Physiological maturity day (dap)        122          -99
      Yield at harvest maturity (kg [dm]/    8912          -99
      Number at maturity (no/m2)             3504          -99
      Unit wt at maturity (g [dm]/unit)    0.2544          -99
      Number at maturity (no/unit)          500.5          -99
      Tops weight at maturity (kg [dm]/ha   20969          -99
      By-product produced (stalk) at matu   12159          -99
      Leaf area index, maximum               4.79          -99
      Harvest index at maturity             0.425          -99
      Grain N at maturity (kg/ha)             131          -99
      Tops N at maturity (kg/ha)              193          -99
      Stem N at maturity (kg/ha)               63          -99
      Grain N at maturity (%)                 1.5          -99
      Tops weight at anthesis (kg [dm]/ha   10117          -99
      Tops N at anthesis (kg/ha)              114          -99
      Leaf number per stem at maturity      26.09          -99


*ENVIRONMENTAL AND STRESS FACTORS

 |-----Development Phase------|-------------Environment--------------|---------Stress----------|
                              |--------Average-------|---Cumulative--|  (0=Min, 1=Max Stress)  |
                         Time  Temp  Temp Solar Photop         Evapo |----Water---|--Nitrogen--|
                         Span   Max   Min   Rad  [day]   Rain  Trans  Photo         Photo
                         days    øC    øC MJ/m2     hr     mm     mm  synth Growth  synth Growth
------------------------------------------------------------------------------------------------
 Emergence-End Juvenile    19  29.6  15.5  26.1  14.06   20.4   42.2  0.000  0.000  0.003  0.001
 End Juvenil-Floral Init    4  31.1  16.0  25.6  14.00    0.0   21.6  0.000  0.000  0.003  0.001
 Floral Init-End Lf Grow   40  30.1  17.3  24.0  13.60   93.5  221.3  0.000  0.000  0.214  0.086
 End Lf Grth-Beg Grn Fil   11  30.7  17.7  21.0  12.95   11.2   57.0  0.000  0.000  0.152  0.061
 Grain Filling Phase       39  28.5  15.5  18.5  12.14   46.2  159.6  0.000  0.000  0.194  0.079

                     Maize YIELD :     8912 kg/ha    [Dry weight] 

************************************************************************************************

*DSSAT Cropping System Model Ver. 4.0.2.000               Aug 12, 2016; 12:55:24
                                                                                
*RUN   7        : UYMZ                                                          
 MODEL          : MZCER040 - MAIZE                                              
 EXPERIMENT     : UYMZ0198 SN late to create DSS                                
 TREATMENT  1   : UYMZ                                                          
                                                                                
 CROP           : MAIZE          CULTIVAR : CLARGO UY        ECOTYPE :IB0001    
 STARTING DATE  : DEC  6 2000                                                   
 PLANTING DATE  : DEC  9 2000    PLANTS/m2 :  7.0     ROW SPACING :  15.cm      
 WEATHER        : UYTA   2000                                                   
 SOIL           : UYSS0P2304     TEXTURE : CL    -  P23-04    SNIA CLAY LOAM    
 SOIL INITIAL C : DEPTH:137cm EXTR. H2O:180.9mm  NO3: 63.2kg/ha  NH4: 28.7kg/ha 
 WATER BALANCE  : AUTOMATIC IRRIGATION - REFILL PROFILE                         
 IRRIGATION     : AUTOMATIC - PLANTING -> MATURITY [ SOIL DEPTH:30.00m 50.%]    
 NITROGEN BAL.  : SOIL-N & N-UPTAKE SIMULATION; NO N-FIXATION                   
 N-FERTILIZER   :      101 kg/ha IN     3 APPLICATIONS                          
 RESIDUE/MANURE : INITIAL :     0 kg/ha ;       0 kg/ha IN     0 APPLICATIONS   
 ENVIRONM. OPT. : DAYL=    0.00  SRAD=    0.00  TMAX=    0.00  TMIN=    0.00    
                  RAIN=    0.00  CO2 = R330.00  DEW =    0.00  WIND=    0.00    
 SIMULATION OPT : WATER   :Y  NITROGEN:Y  N-FIX:N  PHOSPH :N  PESTS  :N         
                  PHOTO   :C  ET      :R  INFIL:S  HYDROL :R  SOM    :G         
 MANAGEMENT OPT : PLANTING:R  IRRIG   :A  FERT :D  RESIDUE:N  HARVEST:M  WTH:M  
                                                                                
*SUMMARY OF SOIL AND GENETIC INPUT PARAMETERS                                   
                                                                                
   SOIL LOWER UPPER   SAT  EXTR  INIT   ROOT   BULK     pH    NO3    NH4    ORG 
  DEPTH LIMIT LIMIT    SW    SW    SW   DIST   DENS                          C  
   cm   cm3/cm3    cm3/cm3    cm3/cm3         g/cm3         ugN/g  ugN/g     %  
------------------------------------------------------------------------------- 
  0-  5 0.267 0.401 0.475 0.134 0.360   1.00   1.30   5.50  15.00   1.50   1.92 
  5- 15 0.267 0.401 0.475 0.134 0.360   1.00   1.30   5.50  15.00   1.50   1.92 
 15- 30 0.274 0.408 0.480 0.133 0.367   0.84   1.32   5.61  11.77   1.50   1.62 
 30- 45 0.295 0.427 0.495 0.132 0.387   0.40   1.39   5.90   2.90   1.50   0.79 
 45- 60 0.280 0.413 0.484 0.133 0.383   0.37   1.41   6.38   2.13   1.50   0.65 
 60- 90 0.238 0.373 0.454 0.135 0.373   0.30   1.46   7.70   0.00   1.50   0.28 
 90-120 0.133 0.252 0.399 0.120 0.252   0.20   1.48   7.89   0.00   1.50   0.11 
120-137 0.191 0.336 0.441 0.145 0.336   0.13   1.27   7.83   0.00   1.50   2.07 
                                                                                
TOT-137  31.1  49.2  62.1  18.1  46.9  <--cm   -  kg/ha-->   63.2   28.7 161462 
SOIL ALBEDO    : 0.12      EVAPORATION LIMIT : 6.00         MIN. FACTOR  : 1.00 
RUNOFF CURVE # :10.00      DRAINAGE RATE     : 0.50         FERT. FACTOR : 1.00 
                                                                                
 MAIZE      CULTIVAR :UY0372-CLARGO UY          ECOTYPE :IB0001                 
 P1     : 310.00  P2     : 0.0000  P5     : 750.00                              
 G2     : 800.00  G3     :  7.500  PHINT  : 38.900                              
                                                                                
                                                                                
                                                                                
*SIMULATED CROP AND SOIL STATUS AT MAIN DEVELOPMENT STAGES

 RUN NO.     7     UYMZ                    

        CROP GROWTH   BIOMASS         LEAF   CROP N     STRESS  
   DATE  AGE STAGE      kg/ha    LAI   NUM  kg/ha  %   H2O    N 
 ------  --- ---------- -----  -----  ----  ---  ---  ----  ----
  7 DEC    0 Start Sim      0   0.00   0.0    0  0.0  0.00  0.00
 10 DEC    0 Sowing         0   0.00   0.0    0  0.0  0.00  0.00
 11 DEC    1 Germinate      0   0.00   0.0    0  0.0  0.00  0.00
 15 DEC    5 Emergence     28   0.00   2.1    1  4.4  0.00  0.00
  2 JAN   23 End Juveni   522   0.89  10.8   17  3.3  0.00  0.00
  6 JAN   27 Floral Ini   985   1.47  12.6   36  3.7  0.00  0.01
 16 FEB   68 75% Silkin  9586   3.87  25.9  103  1.1  0.00  0.10
 28 FEB   80 Beg Gr Fil 11581   3.55  25.9  163  1.4  0.00  0.06
  9 APR  120 End Gr Fil 19578   2.34  25.9  185  0.9  0.00  0.08
 13 APR  124 Maturity   19578   2.34  25.9  185  0.9  0.00  0.20
 13 APR  124 Harvest    19578   2.34  25.9  185  0.9  0.00  0.00


*MAIN GROWTH AND DEVELOPMENT VARIABLES

@     VARIABLE                          SIMULATED     MEASURED
      --------                          ---------     --------
      Anthesis day (dap)                       68          -99
      Physiological maturity day (dap)        124          -99
      Yield at harvest maturity (kg [dm]/    8806          -99
      Number at maturity (no/m2)             3245          -99
      Unit wt at maturity (g [dm]/unit)    0.2713          -99
      Number at maturity (no/unit)          463.6          -99
      Tops weight at maturity (kg [dm]/ha   19578          -99
      By-product produced (stalk) at matu   10870          -99
      Leaf area index, maximum               4.57          -99
      Harvest index at maturity             0.450          -99
      Grain N at maturity (kg/ha)             129          -99
      Tops N at maturity (kg/ha)              185          -99
      Stem N at maturity (kg/ha)               56          -99
      Grain N at maturity (%)                 1.5          -99
      Tops weight at anthesis (kg [dm]/ha    9437          -99
      Tops N at anthesis (kg/ha)              103          -99
      Leaf number per stem at maturity      25.94          -99


*ENVIRONMENTAL AND STRESS FACTORS

 |-----Development Phase------|-------------Environment--------------|---------Stress----------|
                              |--------Average-------|---Cumulative--|  (0=Min, 1=Max Stress)  |
                         Time  Temp  Temp Solar Photop         Evapo |----Water---|--Nitrogen--|
                         Span   Max   Min   Rad  [day]   Rain  Trans  Photo         Photo
                         days    øC    øC MJ/m2     hr     mm     mm  synth Growth  synth Growth
------------------------------------------------------------------------------------------------
 Emergence-End Juvenile    18  29.4  17.7  23.1  14.06  167.4   56.1  0.000  0.000  0.003  0.001
 End Juvenil-Floral Init    4  33.7  22.5  27.5  14.02    0.0   22.6  0.000  0.000  0.002  0.001
 Floral Init-End Lf Grow   41  28.8  16.8  25.2  13.63  190.8  232.2  0.000  0.000  0.228  0.091
 End Lf Grth-Beg Grn Fil   12  27.5  16.7  20.7  12.96  136.7   55.8  0.000  0.000  0.183  0.073
 Grain Filling Phase       40  26.1  17.8  14.4  12.12  424.3  127.2  0.000  0.000  0.185  0.074

                     Maize YIELD :     8806 kg/ha    [Dry weight] 

************************************************************************************************

*DSSAT Cropping System Model Ver. 4.0.2.000               Aug 12, 2016; 12:55:24
                                                                                
*RUN   8        : UYMZ                                                          
 MODEL          : MZCER040 - MAIZE                                              
 EXPERIMENT     : UYMZ0198 SN late to create DSS                                
 TREATMENT  1   : UYMZ                                                          
                                                                                
 CROP           : MAIZE          CULTIVAR : CLARGO UY        ECOTYPE :IB0001    
 STARTING DATE  : DEC  6 2000                                                   
 PLANTING DATE  : DEC  9 2000    PLANTS/m2 :  7.0     ROW SPACING :  15.cm      
 WEATHER        : UYTA   2000                                                   
 SOIL           : UYSS0P2304     TEXTURE : CL    -  P23-04    SNIA CLAY LOAM    
 SOIL INITIAL C : DEPTH:137cm EXTR. H2O:180.9mm  NO3: 63.2kg/ha  NH4: 28.7kg/ha 
 WATER BALANCE  : AUTOMATIC IRRIGATION - REFILL PROFILE                         
 IRRIGATION     : AUTOMATIC - PLANTING -> MATURITY [ SOIL DEPTH:30.00m 50.%]    
 NITROGEN BAL.  : SOIL-N & N-UPTAKE SIMULATION; NO N-FIXATION                   
 N-FERTILIZER   :      101 kg/ha IN     3 APPLICATIONS                          
 RESIDUE/MANURE : INITIAL :     0 kg/ha ;       0 kg/ha IN     0 APPLICATIONS   
 ENVIRONM. OPT. : DAYL=    0.00  SRAD=    0.00  TMAX=    0.00  TMIN=    0.00    
                  RAIN=    0.00  CO2 = R330.00  DEW =    0.00  WIND=    0.00    
 SIMULATION OPT : WATER   :Y  NITROGEN:Y  N-FIX:N  PHOSPH :N  PESTS  :N         
                  PHOTO   :C  ET      :R  INFIL:S  HYDROL :R  SOM    :G         
 MANAGEMENT OPT : PLANTING:R  IRRIG   :A  FERT :D  RESIDUE:N  HARVEST:M  WTH:M  
                                                                                
*SUMMARY OF SOIL AND GENETIC INPUT PARAMETERS                                   
                                                                                
   SOIL LOWER UPPER   SAT  EXTR  INIT   ROOT   BULK     pH    NO3    NH4    ORG 
  DEPTH LIMIT LIMIT    SW    SW    SW   DIST   DENS                          C  
   cm   cm3/cm3    cm3/cm3    cm3/cm3         g/cm3         ugN/g  ugN/g     %  
------------------------------------------------------------------------------- 
  0-  5 0.267 0.401 0.475 0.134 0.360   1.00   1.30   5.50  15.00   1.50   1.92 
  5- 15 0.267 0.401 0.475 0.134 0.360   1.00   1.30   5.50  15.00   1.50   1.92 
 15- 30 0.274 0.408 0.480 0.133 0.367   0.84   1.32   5.61  11.77   1.50   1.62 
 30- 45 0.295 0.427 0.495 0.132 0.387   0.40   1.39   5.90   2.90   1.50   0.79 
 45- 60 0.280 0.413 0.484 0.133 0.383   0.37   1.41   6.38   2.13   1.50   0.65 
 60- 90 0.238 0.373 0.454 0.135 0.373   0.30   1.46   7.70   0.00   1.50   0.28 
 90-120 0.133 0.252 0.399 0.120 0.252   0.20   1.48   7.89   0.00   1.50   0.11 
120-137 0.191 0.336 0.441 0.145 0.336   0.13   1.27   7.83   0.00   1.50   2.07 
                                                                                
TOT-137  31.1  49.2  62.1  18.1  46.9  <--cm   -  kg/ha-->   63.2   28.7 161462 
SOIL ALBEDO    : 0.12      EVAPORATION LIMIT : 6.00         MIN. FACTOR  : 1.00 
RUNOFF CURVE # :10.00      DRAINAGE RATE     : 0.50         FERT. FACTOR : 1.00 
                                                                                
 MAIZE      CULTIVAR :UY0372-CLARGO UY          ECOTYPE :IB0001                 
 P1     : 310.00  P2     : 0.0000  P5     : 750.00                              
 G2     : 800.00  G3     :  7.500  PHINT  : 38.900                              
                                                                                
                                                                                
                                                                                
*SIMULATED CROP AND SOIL STATUS AT MAIN DEVELOPMENT STAGES

 RUN NO.     8     UYMZ                    

        CROP GROWTH   BIOMASS         LEAF   CROP N     STRESS  
   DATE  AGE STAGE      kg/ha    LAI   NUM  kg/ha  %   H2O    N 
 ------  --- ---------- -----  -----  ----  ---  ---  ----  ----
  7 DEC    0 Start Sim      0   0.00   0.0    0  0.0  0.00  0.00
 10 DEC    0 Sowing         0   0.00   0.0    0  0.0  0.00  0.00
 11 DEC    1 Germinate      0   0.00   0.0    0  0.0  0.00  0.00
 15 DEC    5 Emergence     28   0.00   2.1    1  4.4  0.00  0.00
  2 JAN   23 End Juveni   551   0.93  10.9   19  3.4  0.00  0.00
  6 JAN   27 Floral Ini   972   1.46  12.5   36  3.7  0.00  0.01
 15 FEB   67 75% Silkin  9554   4.13  25.9  110  1.2  0.00  0.08
 26 FEB   78 Beg Gr Fil 12001   3.82  25.9  168  1.4  0.00  0.06
  7 APR  119 End Gr Fil 21650   2.32  25.9  195  0.9  0.00  0.12
 10 APR  122 Maturity   21650   2.32  25.9  195  0.9  0.00  0.36
 10 APR  122 Harvest    21650   2.32  25.9  195  0.9  0.00  0.00


*MAIN GROWTH AND DEVELOPMENT VARIABLES

@     VARIABLE                          SIMULATED     MEASURED
      --------                          ---------     --------
      Anthesis day (dap)                       67          -99
      Physiological maturity day (dap)        122          -99
      Yield at harvest maturity (kg [dm]/    9934          -99
      Number at maturity (no/m2)             3720          -99
      Unit wt at maturity (g [dm]/unit)    0.2670          -99
      Number at maturity (no/unit)          531.4          -99
      Tops weight at maturity (kg [dm]/ha   21650          -99
      By-product produced (stalk) at matu   11813          -99
      Leaf area index, maximum               4.52          -99
      Harvest index at maturity             0.459          -99
      Grain N at maturity (kg/ha)             140          -99
      Tops N at maturity (kg/ha)              195          -99
      Stem N at maturity (kg/ha)               56          -99
      Grain N at maturity (%)                 1.4          -99
      Tops weight at anthesis (kg [dm]/ha    9401          -99
      Tops N at anthesis (kg/ha)              110          -99
      Leaf number per stem at maturity      25.92          -99


*ENVIRONMENTAL AND STRESS FACTORS

 |-----Development Phase------|-------------Environment--------------|---------Stress----------|
                              |--------Average-------|---Cumulative--|  (0=Min, 1=Max Stress)  |
                         Time  Temp  Temp Solar Photop         Evapo |----Water---|--Nitrogen--|
                         Span   Max   Min   Rad  [day]   Rain  Trans  Photo         Photo
                         days    øC    øC MJ/m2     hr     mm     mm  synth Growth  synth Growth
------------------------------------------------------------------------------------------------
 Emergence-End Juvenile    18  30.1  17.6  24.9  14.06   42.5   44.0  0.000  0.000  0.004  0.002
 End Juvenil-Floral Init    4  31.8  20.4  26.8  14.02    0.0   21.0  0.000  0.000  0.002  0.001
 Floral Init-End Lf Grow   40  29.1  17.0  22.9  13.65  104.9  213.1  0.000  0.000  0.187  0.075
 End Lf Grth-Beg Grn Fil   11  31.0  17.1  23.8  13.01    0.0   61.0  0.000  0.000  0.181  0.072
 Grain Filling Phase       41  27.2  15.5  18.7  12.17  154.2  169.0  0.000  0.000  0.240  0.107

                     Maize YIELD :     9934 kg/ha    [Dry weight] 

************************************************************************************************

*DSSAT Cropping System Model Ver. 4.0.2.000               Aug 12, 2016; 12:55:24
                                                                                
*RUN   9        : UYMZ                                                          
 MODEL          : MZCER040 - MAIZE                                              
 EXPERIMENT     : UYMZ0198 SN late to create DSS                                
 TREATMENT  1   : UYMZ                                                          
                                                                                
 CROP           : MAIZE          CULTIVAR : CLARGO UY        ECOTYPE :IB0001    
 STARTING DATE  : DEC  6 2000                                                   
 PLANTING DATE  : DEC  9 2000    PLANTS/m2 :  7.0     ROW SPACING :  15.cm      
 WEATHER        : UYTA   2000                                                   
 SOIL           : UYSS0P2304     TEXTURE : CL    -  P23-04    SNIA CLAY LOAM    
 SOIL INITIAL C : DEPTH:137cm EXTR. H2O:180.9mm  NO3: 63.2kg/ha  NH4: 28.7kg/ha 
 WATER BALANCE  : AUTOMATIC IRRIGATION - REFILL PROFILE                         
 IRRIGATION     : AUTOMATIC - PLANTING -> MATURITY [ SOIL DEPTH:30.00m 50.%]    
 NITROGEN BAL.  : SOIL-N & N-UPTAKE SIMULATION; NO N-FIXATION                   
 N-FERTILIZER   :      101 kg/ha IN     3 APPLICATIONS                          
 RESIDUE/MANURE : INITIAL :     0 kg/ha ;       0 kg/ha IN     0 APPLICATIONS   
 ENVIRONM. OPT. : DAYL=    0.00  SRAD=    0.00  TMAX=    0.00  TMIN=    0.00    
                  RAIN=    0.00  CO2 = R330.00  DEW =    0.00  WIND=    0.00    
 SIMULATION OPT : WATER   :Y  NITROGEN:Y  N-FIX:N  PHOSPH :N  PESTS  :N         
                  PHOTO   :C  ET      :R  INFIL:S  HYDROL :R  SOM    :G         
 MANAGEMENT OPT : PLANTING:R  IRRIG   :A  FERT :D  RESIDUE:N  HARVEST:M  WTH:M  
                                                                                
*SUMMARY OF SOIL AND GENETIC INPUT PARAMETERS                                   
                                                                                
   SOIL LOWER UPPER   SAT  EXTR  INIT   ROOT   BULK     pH    NO3    NH4    ORG 
  DEPTH LIMIT LIMIT    SW    SW    SW   DIST   DENS                          C  
   cm   cm3/cm3    cm3/cm3    cm3/cm3         g/cm3         ugN/g  ugN/g     %  
------------------------------------------------------------------------------- 
  0-  5 0.267 0.401 0.475 0.134 0.360   1.00   1.30   5.50  15.00   1.50   1.92 
  5- 15 0.267 0.401 0.475 0.134 0.360   1.00   1.30   5.50  15.00   1.50   1.92 
 15- 30 0.274 0.408 0.480 0.133 0.367   0.84   1.32   5.61  11.77   1.50   1.62 
 30- 45 0.295 0.427 0.495 0.132 0.387   0.40   1.39   5.90   2.90   1.50   0.79 
 45- 60 0.280 0.413 0.484 0.133 0.383   0.37   1.41   6.38   2.13   1.50   0.65 
 60- 90 0.238 0.373 0.454 0.135 0.373   0.30   1.46   7.70   0.00   1.50   0.28 
 90-120 0.133 0.252 0.399 0.120 0.252   0.20   1.48   7.89   0.00   1.50   0.11 
120-137 0.191 0.336 0.441 0.145 0.336   0.13   1.27   7.83   0.00   1.50   2.07 
                                                                                
TOT-137  31.1  49.2  62.1  18.1  46.9  <--cm   -  kg/ha-->   63.2   28.7 161462 
SOIL ALBEDO    : 0.12      EVAPORATION LIMIT : 6.00         MIN. FACTOR  : 1.00 
RUNOFF CURVE # :10.00      DRAINAGE RATE     : 0.50         FERT. FACTOR : 1.00 
                                                                                
 MAIZE      CULTIVAR :UY0372-CLARGO UY          ECOTYPE :IB0001                 
 P1     : 310.00  P2     : 0.0000  P5     : 750.00                              
 G2     : 800.00  G3     :  7.500  PHINT  : 38.900                              
                                                                                
                                                                                
                                                                                
*SIMULATED CROP AND SOIL STATUS AT MAIN DEVELOPMENT STAGES

 RUN NO.     9     UYMZ                    

        CROP GROWTH   BIOMASS         LEAF   CROP N     STRESS  
   DATE  AGE STAGE      kg/ha    LAI   NUM  kg/ha  %   H2O    N 
 ------  --- ---------- -----  -----  ----  ---  ---  ----  ----
  6 DEC    0 Start Sim      0   0.00   0.0    0  0.0  0.00  0.00
  9 DEC    0 Sowing         0   0.00   0.0    0  0.0  0.00  0.00
 12 DEC    3 Germinate      0   0.00   0.0    0  0.0  0.00  0.00
 16 DEC    7 Emergence     28   0.00   2.1    1  4.4  0.00  0.00
  3 JAN   25 End Juveni   506   0.87  10.7   18  3.6  0.00  0.00
  7 JAN   29 Floral Ini   934   1.42  12.4   34  3.7  0.00  0.01
 15 FEB   68 75% Silkin  9534   4.13  25.5  110  1.2  0.00  0.08
 28 FEB   81 Beg Gr Fil 11997   3.83  25.5  165  1.4  0.00  0.05
 22 APR  134 End Gr Fil 21771   1.17  25.5  189  0.9  0.00  0.17
 27 APR  139 Maturity   21771   1.17  25.5  189  0.9  0.00  0.44
 27 APR  139 Harvest    21771   1.17  25.5  189  0.9  0.00  0.00


*MAIN GROWTH AND DEVELOPMENT VARIABLES

@     VARIABLE                          SIMULATED     MEASURED
      --------                          ---------     --------
      Anthesis day (dap)                       68          -99
      Physiological maturity day (dap)        139          -99
      Yield at harvest maturity (kg [dm]/   10332          -99
      Number at maturity (no/m2)             4078          -99
      Unit wt at maturity (g [dm]/unit)    0.2534          -99
      Number at maturity (no/unit)          582.5          -99
      Tops weight at maturity (kg [dm]/ha   21771          -99
      By-product produced (stalk) at matu   11538          -99
      Leaf area index, maximum               4.74          -99
      Harvest index at maturity             0.475          -99
      Grain N at maturity (kg/ha)             137          -99
      Tops N at maturity (kg/ha)              189          -99
      Stem N at maturity (kg/ha)               52          -99
      Grain N at maturity (%)                 1.3          -99
      Tops weight at anthesis (kg [dm]/ha    9429          -99
      Tops N at anthesis (kg/ha)              110          -99
      Leaf number per stem at maturity      25.46          -99


*ENVIRONMENTAL AND STRESS FACTORS

 |-----Development Phase------|-------------Environment--------------|---------Stress----------|
                              |--------Average-------|---Cumulative--|  (0=Min, 1=Max Stress)  |
                         Time  Temp  Temp Solar Photop         Evapo |----Water---|--Nitrogen--|
                         Span   Max   Min   Rad  [day]   Rain  Trans  Photo         Photo
                         days    øC    øC MJ/m2     hr     mm     mm  synth Growth  synth Growth
------------------------------------------------------------------------------------------------
 Emergence-End Juvenile    18  30.5  17.0  26.4  14.06   13.0   41.7  0.000  0.000  0.004  0.002
 End Juvenil-Floral Init    4  28.6  14.7  26.5  14.01    0.0   24.8  0.000  0.000  0.001  0.000
 Floral Init-End Lf Grow   39  30.4  16.7  24.5  13.64   39.3  218.4  0.000  0.000  0.195  0.078
 End Lf Grth-Beg Grn Fil   13  28.1  15.7  25.4  12.98    5.0   75.1  0.000  0.000  0.151  0.060
 Grain Filling Phase       53  25.7  10.6  16.5  11.91  116.6  179.7  0.000  0.000  0.330  0.161

                     Maize YIELD :    10332 kg/ha    [Dry weight] 

************************************************************************************************

*DSSAT Cropping System Model Ver. 4.0.2.000               Aug 12, 2016; 12:55:24
                                                                                
*RUN  10        : UYMZ                                                          
 MODEL          : MZCER040 - MAIZE                                              
 EXPERIMENT     : UYMZ0198 SN late to create DSS                                
 TREATMENT  1   : UYMZ                                                          
                                                                                
 CROP           : MAIZE          CULTIVAR : CLARGO UY        ECOTYPE :IB0001    
 STARTING DATE  : DEC  6 2000                                                   
 PLANTING DATE  : DEC  9 2000    PLANTS/m2 :  7.0     ROW SPACING :  15.cm      
 WEATHER        : UYTA   2000                                                   
 SOIL           : UYSS0P2304     TEXTURE : CL    -  P23-04    SNIA CLAY LOAM    
 SOIL INITIAL C : DEPTH:137cm EXTR. H2O:180.9mm  NO3: 63.2kg/ha  NH4: 28.7kg/ha 
 WATER BALANCE  : AUTOMATIC IRRIGATION - REFILL PROFILE                         
 IRRIGATION     : AUTOMATIC - PLANTING -> MATURITY [ SOIL DEPTH:30.00m 50.%]    
 NITROGEN BAL.  : SOIL-N & N-UPTAKE SIMULATION; NO N-FIXATION                   
 N-FERTILIZER   :      101 kg/ha IN     3 APPLICATIONS                          
 RESIDUE/MANURE : INITIAL :     0 kg/ha ;       0 kg/ha IN     0 APPLICATIONS   
 ENVIRONM. OPT. : DAYL=    0.00  SRAD=    0.00  TMAX=    0.00  TMIN=    0.00    
                  RAIN=    0.00  CO2 = R330.00  DEW =    0.00  WIND=    0.00    
 SIMULATION OPT : WATER   :Y  NITROGEN:Y  N-FIX:N  PHOSPH :N  PESTS  :N         
                  PHOTO   :C  ET      :R  INFIL:S  HYDROL :R  SOM    :G         
 MANAGEMENT OPT : PLANTING:R  IRRIG   :A  FERT :D  RESIDUE:N  HARVEST:M  WTH:M  
                                                                                
*SUMMARY OF SOIL AND GENETIC INPUT PARAMETERS                                   
                                                                                
   SOIL LOWER UPPER   SAT  EXTR  INIT   ROOT   BULK     pH    NO3    NH4    ORG 
  DEPTH LIMIT LIMIT    SW    SW    SW   DIST   DENS                          C  
   cm   cm3/cm3    cm3/cm3    cm3/cm3         g/cm3         ugN/g  ugN/g     %  
------------------------------------------------------------------------------- 
  0-  5 0.267 0.401 0.475 0.134 0.360   1.00   1.30   5.50  15.00   1.50   1.92 
  5- 15 0.267 0.401 0.475 0.134 0.360   1.00   1.30   5.50  15.00   1.50   1.92 
 15- 30 0.274 0.408 0.480 0.133 0.367   0.84   1.32   5.61  11.77   1.50   1.62 
 30- 45 0.295 0.427 0.495 0.132 0.387   0.40   1.39   5.90   2.90   1.50   0.79 
 45- 60 0.280 0.413 0.484 0.133 0.383   0.37   1.41   6.38   2.13   1.50   0.65 
 60- 90 0.238 0.373 0.454 0.135 0.373   0.30   1.46   7.70   0.00   1.50   0.28 
 90-120 0.133 0.252 0.399 0.120 0.252   0.20   1.48   7.89   0.00   1.50   0.11 
120-137 0.191 0.336 0.441 0.145 0.336   0.13   1.27   7.83   0.00   1.50   2.07 
                                                                                
TOT-137  31.1  49.2  62.1  18.1  46.9  <--cm   -  kg/ha-->   63.2   28.7 161462 
SOIL ALBEDO    : 0.12      EVAPORATION LIMIT : 6.00         MIN. FACTOR  : 1.00 
RUNOFF CURVE # :10.00      DRAINAGE RATE     : 0.50         FERT. FACTOR : 1.00 
                                                                                
 MAIZE      CULTIVAR :UY0372-CLARGO UY          ECOTYPE :IB0001                 
 P1     : 310.00  P2     : 0.0000  P5     : 750.00                              
 G2     : 800.00  G3     :  7.500  PHINT  : 38.900                              
                                                                                
                                                                                
                                                                                
*SIMULATED CROP AND SOIL STATUS AT MAIN DEVELOPMENT STAGES

 RUN NO.    10     UYMZ                    

        CROP GROWTH   BIOMASS         LEAF   CROP N     STRESS  
   DATE  AGE STAGE      kg/ha    LAI   NUM  kg/ha  %   H2O    N 
 ------  --- ---------- -----  -----  ----  ---  ---  ----  ----
  7 DEC    0 Start Sim      0   0.00   0.0    0  0.0  0.00  0.00
 10 DEC    0 Sowing         0   0.00   0.0    0  0.0  0.00  0.00
 11 DEC    1 Germinate      0   0.00   0.0    0  0.0  0.00  0.00
 17 DEC    7 Emergence     28   0.00   2.0    1  4.4  0.00  0.00
  5 JAN   26 End Juveni   465   0.81  10.4   16  3.5  0.00  0.00
  9 JAN   30 Floral Ini   771   1.21  11.8   28  3.7  0.00  0.01
 15 FEB   67 75% Silkin  8729   4.07  24.7  101  1.2  0.00  0.07
 28 FEB   80 Beg Gr Fil 10670   3.75  24.7  154  1.4  0.00  0.05
 14 APR  125 End Gr Fil 18404   2.10  24.7  182  1.0  0.00  0.05
 18 APR  129 Maturity   18404   2.10  24.7  182  1.0  0.00  0.16
 18 APR  129 Harvest    18404   2.10  24.7  182  1.0  0.00  0.00


*MAIN GROWTH AND DEVELOPMENT VARIABLES

@     VARIABLE                          SIMULATED     MEASURED
      --------                          ---------     --------
      Anthesis day (dap)                       67          -99
      Physiological maturity day (dap)        129          -99
      Yield at harvest maturity (kg [dm]/    7956          -99
      Number at maturity (no/m2)             3014          -99
      Unit wt at maturity (g [dm]/unit)    0.2639          -99
      Number at maturity (no/unit)          430.6          -99
      Tops weight at maturity (kg [dm]/ha   18404          -99
      By-product produced (stalk) at matu   10538          -99
      Leaf area index, maximum               4.29          -99
      Harvest index at maturity             0.432          -99
      Grain N at maturity (kg/ha)             125          -99
      Tops N at maturity (kg/ha)              182          -99
      Stem N at maturity (kg/ha)               58          -99
      Grain N at maturity (%)                 1.6          -99
      Tops weight at anthesis (kg [dm]/ha    8600          -99
      Tops N at anthesis (kg/ha)              100          -99
      Leaf number per stem at maturity      24.67          -99


*ENVIRONMENTAL AND STRESS FACTORS

 |-----Development Phase------|-------------Environment--------------|---------Stress----------|
                              |--------Average-------|---Cumulative--|  (0=Min, 1=Max Stress)  |
                         Time  Temp  Temp Solar Photop         Evapo |----Water---|--Nitrogen--|
                         Span   Max   Min   Rad  [day]   Rain  Trans  Photo         Photo
                         days    øC    øC MJ/m2     hr     mm     mm  synth Growth  synth Growth
------------------------------------------------------------------------------------------------
 Emergence-End Juvenile    19  27.2  17.9  21.0  14.06   72.2   48.7  0.000  0.000  0.003  0.001
 End Juvenil-Floral Init    4  26.6  17.5  20.5  13.99   50.0   19.9  0.000  0.000  0.001  0.000
 Floral Init-End Lf Grow   37  29.3  18.3  23.7  13.62  308.6  202.8  0.000  0.000  0.170  0.068
 End Lf Grth-Beg Grn Fil   13  26.1  17.6  18.1  12.98  260.5   52.8  0.000  0.000  0.158  0.063
 Grain Filling Phase       45  26.2  14.1  18.7  12.04   55.0  181.7  0.000  0.000  0.128  0.051

                     Maize YIELD :     7956 kg/ha    [Dry weight] 

************************************************************************************************

*DSSAT Cropping System Model Ver. 4.0.2.000               Aug 12, 2016; 12:55:24
                                                                                
*RUN  11        : UYMZ                                                          
 MODEL          : MZCER040 - MAIZE                                              
 EXPERIMENT     : UYMZ0198 SN late to create DSS                                
 TREATMENT  1   : UYMZ                                                          
                                                                                
 CROP           : MAIZE          CULTIVAR : CLARGO UY        ECOTYPE :IB0001    
 STARTING DATE  : DEC  6 2000                                                   
 PLANTING DATE  : DEC  9 2000    PLANTS/m2 :  7.0     ROW SPACING :  15.cm      
 WEATHER        : UYTA   2000                                                   
 SOIL           : UYSS0P2304     TEXTURE : CL    -  P23-04    SNIA CLAY LOAM    
 SOIL INITIAL C : DEPTH:137cm EXTR. H2O:180.9mm  NO3: 63.2kg/ha  NH4: 28.7kg/ha 
 WATER BALANCE  : AUTOMATIC IRRIGATION - REFILL PROFILE                         
 IRRIGATION     : AUTOMATIC - PLANTING -> MATURITY [ SOIL DEPTH:30.00m 50.%]    
 NITROGEN BAL.  : SOIL-N & N-UPTAKE SIMULATION; NO N-FIXATION                   
 N-FERTILIZER   :      101 kg/ha IN     3 APPLICATIONS                          
 RESIDUE/MANURE : INITIAL :     0 kg/ha ;       0 kg/ha IN     0 APPLICATIONS   
 ENVIRONM. OPT. : DAYL=    0.00  SRAD=    0.00  TMAX=    0.00  TMIN=    0.00    
                  RAIN=    0.00  CO2 = R330.00  DEW =    0.00  WIND=    0.00    
 SIMULATION OPT : WATER   :Y  NITROGEN:Y  N-FIX:N  PHOSPH :N  PESTS  :N         
                  PHOTO   :C  ET      :R  INFIL:S  HYDROL :R  SOM    :G         
 MANAGEMENT OPT : PLANTING:R  IRRIG   :A  FERT :D  RESIDUE:N  HARVEST:M  WTH:M  
                                                                                
*SUMMARY OF SOIL AND GENETIC INPUT PARAMETERS                                   
                                                                                
   SOIL LOWER UPPER   SAT  EXTR  INIT   ROOT   BULK     pH    NO3    NH4    ORG 
  DEPTH LIMIT LIMIT    SW    SW    SW   DIST   DENS                          C  
   cm   cm3/cm3    cm3/cm3    cm3/cm3         g/cm3         ugN/g  ugN/g     %  
------------------------------------------------------------------------------- 
  0-  5 0.267 0.401 0.475 0.134 0.360   1.00   1.30   5.50  15.00   1.50   1.92 
  5- 15 0.267 0.401 0.475 0.134 0.360   1.00   1.30   5.50  15.00   1.50   1.92 
 15- 30 0.274 0.408 0.480 0.133 0.367   0.84   1.32   5.61  11.77   1.50   1.62 
 30- 45 0.295 0.427 0.495 0.132 0.387   0.40   1.39   5.90   2.90   1.50   0.79 
 45- 60 0.280 0.413 0.484 0.133 0.383   0.37   1.41   6.38   2.13   1.50   0.65 
 60- 90 0.238 0.373 0.454 0.135 0.373   0.30   1.46   7.70   0.00   1.50   0.28 
 90-120 0.133 0.252 0.399 0.120 0.252   0.20   1.48   7.89   0.00   1.50   0.11 
120-137 0.191 0.336 0.441 0.145 0.336   0.13   1.27   7.83   0.00   1.50   2.07 
                                                                                
TOT-137  31.1  49.2  62.1  18.1  46.9  <--cm   -  kg/ha-->   63.2   28.7 161462 
SOIL ALBEDO    : 0.12      EVAPORATION LIMIT : 6.00         MIN. FACTOR  : 1.00 
RUNOFF CURVE # :10.00      DRAINAGE RATE     : 0.50         FERT. FACTOR : 1.00 
                                                                                
 MAIZE      CULTIVAR :UY0372-CLARGO UY          ECOTYPE :IB0001                 
 P1     : 310.00  P2     : 0.0000  P5     : 750.00                              
 G2     : 800.00  G3     :  7.500  PHINT  : 38.900                              
                                                                                
                                                                                
                                                                                
*SIMULATED CROP AND SOIL STATUS AT MAIN DEVELOPMENT STAGES

 RUN NO.    11     UYMZ                    

        CROP GROWTH   BIOMASS         LEAF   CROP N     STRESS  
   DATE  AGE STAGE      kg/ha    LAI   NUM  kg/ha  %   H2O    N 
 ------  --- ---------- -----  -----  ----  ---  ---  ----  ----
  7 DEC    0 Start Sim      0   0.00   0.0    0  0.0  0.00  0.00
 10 DEC    0 Sowing         0   0.00   0.0    0  0.0  0.00  0.00
 11 DEC    1 Germinate      0   0.00   0.0    0  0.0  0.00  0.00
 16 DEC    6 Emergence     28   0.00   2.2    1  4.4  0.00  0.00
  3 JAN   24 End Juveni   515   0.88  10.7   19  3.7  0.00  0.00
  7 JAN   28 Floral Ini   991   1.49  12.6   37  3.7  0.00  0.01
 13 FEB   65 75% Silkin  9808   4.30  25.9  114  1.2  0.00  0.08
 24 FEB   76 Beg Gr Fil 11634   3.91  25.9  172  1.5  0.00  0.07
  9 APR  120 End Gr Fil 20659   2.30  25.9  199  1.0  0.00  0.08
 12 APR  123 Maturity   20659   2.30  25.9  199  1.0  0.00  0.24
 12 APR  123 Harvest    20659   2.30  25.9  199  1.0  0.00  0.00


*MAIN GROWTH AND DEVELOPMENT VARIABLES

@     VARIABLE                          SIMULATED     MEASURED
      --------                          ---------     --------
      Anthesis day (dap)                       65          -99
      Physiological maturity day (dap)        123          -99
      Yield at harvest maturity (kg [dm]/    9264          -99
      Number at maturity (no/m2)             3477          -99
      Unit wt at maturity (g [dm]/unit)    0.2665          -99
      Number at maturity (no/unit)          496.7          -99
      Tops weight at maturity (kg [dm]/ha   20659          -99
      By-product produced (stalk) at matu   11492          -99
      Leaf area index, maximum               4.68          -99
      Harvest index at maturity             0.448          -99
      Grain N at maturity (kg/ha)             139          -99
      Tops N at maturity (kg/ha)              199          -99
      Stem N at maturity (kg/ha)               60          -99
      Grain N at maturity (%)                 1.5          -99
      Tops weight at anthesis (kg [dm]/ha    9690          -99
      Tops N at anthesis (kg/ha)              114          -99
      Leaf number per stem at maturity      25.86          -99


*ENVIRONMENTAL AND STRESS FACTORS

 |-----Development Phase------|-------------Environment--------------|---------Stress----------|
                              |--------Average-------|---Cumulative--|  (0=Min, 1=Max Stress)  |
                         Time  Temp  Temp Solar Photop         Evapo |----Water---|--Nitrogen--|
                         Span   Max   Min   Rad  [day]   Rain  Trans  Photo         Photo
                         days    øC    øC MJ/m2     hr     mm     mm  synth Growth  synth Growth
------------------------------------------------------------------------------------------------
 Emergence-End Juvenile    18  30.7  17.2  26.0  14.06  105.0   54.1  0.000  0.000  0.004  0.001
 End Juvenil-Floral Init    4  27.9  18.6  14.1  14.01    2.2   16.2  0.000  0.000  0.001  0.001
 Floral Init-End Lf Grow   37  31.0  18.9  22.2  13.66  179.2  191.5  0.000  0.000  0.185  0.074
 End Lf Grth-Beg Grn Fil   11  28.1  16.9  23.3  13.07    8.0   55.7  0.000  0.000  0.211  0.084
 Grain Filling Phase       44  27.2  14.0  19.5  12.19  112.0  189.7  0.000  0.000  0.173  0.070

                     Maize YIELD :     9264 kg/ha    [Dry weight] 

************************************************************************************************
