*PLANT N OUTPUT FILE

*DSSAT Cropping System Model Ver. 4.0.2.000               Aug 12, 2016; 12:55:24

*RUN   1        : UYMZ                    
 MODEL          : MZCER040 - Maize           
 EXPERIMENT     : UYMZ0198 MZ    late to create DSS                             
 TREATMENT  1   : UYMZ                    

@YEAR DOY   DAS   DAP   CNAD   GNAD   VNAD   GN%D   VN%D   NUPC   LNAD   SNAD   LN%D   SN%D   RN%D   SNN0C   SNN1C
 2000 344     3     0    0.0    0.0    0.0   0.00   0.00    0.0    0.0    0.0    0.0   0.00   0.00    0.00    0.00
 2000 345     4     1    0.0    0.0    0.0   0.00   0.00    0.0    0.0    0.0    0.0   0.00   0.00    0.00    0.00
 2000 346     5     2    0.0    0.0    0.0   0.00   0.00    0.0    0.0    0.0    0.0   0.00   0.00    0.00    0.00
 2000 347     6     3    0.0    0.0    0.0   0.00   0.00    0.0    0.0    0.0    0.0   0.00   0.00    0.00    0.00
 2000 348     7     4    0.0    0.0    0.0   0.00   0.00    0.0    0.0    0.0    0.0   0.00   0.00    0.00    0.00
 2000 349     8     5    1.2    0.0    1.2   0.00   4.40    0.0    0.6    0.6    4.4   4.40   0.00    0.00    0.00
 2000 350     9     6    1.3    0.0    1.3   0.00   4.50    0.2    0.6    0.6    4.5   4.50   1.13    0.00    0.00
 2000 351    10     7    1.3    0.0    1.3   0.00   4.48    0.2    0.6    0.6    4.5   4.48   1.22    0.00    0.00
 2000 352    11     8    1.2    0.0    1.2   0.00   4.45    0.3    0.6    0.6    4.5   4.45   1.23    0.00    0.00
 2000 353    12     9    1.2    0.0    1.2   0.00   4.42    0.3    0.6    0.6    4.4   4.42   1.25    0.00    0.00
 2000 354    13    10    1.2    0.0    1.2   0.00   4.39    0.4    0.6    0.6    4.4   4.39   1.24    0.00    0.00
 2000 355    14    11    1.2    0.0    1.2   0.00   4.00    0.5    0.7    0.6    4.0   4.00   1.29    0.00    0.01
 2000 356    15    12    1.3    0.0    1.3   0.00   3.63    0.5    0.8    0.5    3.6   3.63   1.11    0.00    0.01
 2000 357    16    13    1.6    0.0    1.6   0.00   3.25    1.0    1.1    0.5    3.2   3.25   1.31    0.00    0.01
 2000 358    17    14    2.1    0.0    2.1   0.00   3.66    1.5    1.5    0.5    3.7   3.66   1.19    0.00    0.01
 2000 359    18    15    2.4    0.0    2.4   0.00   3.51    2.2    1.9    0.5    3.5   3.51   1.36    0.00    0.02
 2000 360    19    16    2.9    0.0    2.9   0.00   3.21    3.0    2.4    0.4    3.2   3.21   1.30    0.00    0.02
 2000 361    20    17    3.7    0.0    3.7   0.00   3.08    4.2    3.3    0.4    3.1   3.08   1.32    0.00    0.03
 2000 362    21    18    5.0    0.0    5.0   0.00   3.42    5.2    4.5    0.5    3.4   3.42   1.10    0.00    0.04
 2000 363    22    19    6.0    0.0    6.0   0.00   3.48    6.7    5.5    0.5    3.5   3.48   1.22    0.00    0.05
 2000 364    23    20    7.0    0.0    7.0   0.00   3.53    8.0    6.5    0.5    3.5   3.53   1.22    0.00    0.06
 2000 365    24    21    8.0    0.0    8.0   0.00   3.46   10.2    7.5    0.5    3.5   3.46   1.35    0.00    0.07
 2000 366    25    22    9.3    0.0    9.3   0.00   3.35   12.3    8.8    0.5    3.4   3.35   1.31    0.00    0.08
 2001 001    26    23   11.0    0.0   11.0   0.00   3.33   15.0   10.5    0.5    3.3   3.33   1.29    0.00    0.11
 2001 002    27    24   13.0    0.0   13.0   0.00   3.33   18.1   12.5    0.5    3.3   3.33   1.26    0.00    0.13
 2001 003    28    25   15.2    0.0   15.2   0.00   3.27   21.4   14.8    0.5    3.3   3.27   1.24    0.00    0.16
 2001 004    29    26   17.9    0.0   17.9   0.00   3.38   24.4   17.5    0.5    3.4   3.38   1.17    0.00    0.20
 2001 005    30    27   20.7    0.0   20.7   0.00   3.21   28.8   20.2    0.4    3.2   3.21   1.22    0.00    0.24
 2001 006    31    28   24.6    0.0   24.6   0.00   3.20   33.9   24.1    0.4    3.2   3.20   1.20    0.00    0.29
 2001 007    32    29   33.2    0.0   33.2   0.00   3.78   41.7   32.6    0.5    3.8   3.78   1.09    0.00    0.34
 2001 008    33    30   36.7    0.0   36.7   0.00   3.68   46.8   36.2    0.5    3.7   3.68   1.16    0.00    0.39
 2001 009    34    31   40.0    0.0   40.0   0.00   3.56   52.0   39.5    0.6    3.6   3.56   1.19    0.00    0.44
 2001 010    35    32   43.0    0.0   43.0   0.00   3.53   54.0   42.4    0.6    3.5   3.53   1.09    0.00    0.51
 2001 011    36    33   45.6    0.0   45.6   0.00   3.50   60.9   44.9    0.7    3.5   3.50   1.24    0.00    0.57
 2001 012    37    34   48.0    0.0   48.0   0.00   3.48   65.6   47.2    0.8    3.5   3.48   1.22    0.00    0.65
 2001 013    38    35   51.5    0.0   51.5   0.00   3.44   69.6   50.4    1.1    3.4   3.44   1.16    0.00    0.75
 2001 014    39    36   56.4    0.0   56.4   0.00   3.40   74.3   54.9    1.5    3.4   3.40   1.10    0.00    0.84
 2001 015    40    37   61.3    0.0   61.3   0.00   3.35   81.4   59.1    2.2    3.4   3.35   1.15    0.00    0.94
 2001 016    41    38   66.4    0.0   66.4   0.00   3.31   87.4   63.3    3.1    3.3   3.31   1.13    0.00    1.04
 2001 017    42    39   71.3    0.0   71.3   0.00   3.27   92.0   67.1    4.1    3.3   3.27   1.09    0.00    1.15
 2001 018    43    40   76.3    0.0   76.3   0.00   3.23   96.9   70.9    5.4    3.2   3.23   1.08    0.00    1.26
 2001 019    44    41   80.1    0.0   80.1   0.00   3.15  101.2   73.3    6.7    3.1   3.15   1.08    0.00    1.37
 2001 020    45    42   81.9    0.0   81.9   0.00   3.03  104.4   74.1    7.8    3.0   3.03   1.05    0.00    1.48
 2001 021    46    43   83.7    0.0   83.7   0.00   2.93  107.3   74.7    9.0    2.9   2.93   1.01    0.00    1.60
 2001 022    47    44   85.7    0.0   85.7   0.00   2.81  109.7   75.2   10.5    2.8   2.81   1.01    0.00    1.72
 2001 023    48    45   87.3    0.0   87.3   0.00   2.64  111.8   75.0   12.3    2.6   2.64   0.97    0.00    1.85
 2001 024    49    46   88.6    0.0   88.6   0.00   2.48  113.5   74.4   14.2    2.5   2.48   0.93    0.00    1.98
 2001 025    50    47   89.9    0.0   89.9   0.00   2.31  115.1   73.4   16.5    2.3   2.31   0.91    0.00    2.11
 2001 026    51    48   91.1    0.0   91.1   0.00   2.15  116.5   72.2   18.9    2.2   2.15   0.91    0.00    2.24
 2001 027    52    49   92.0    0.0   92.0   0.00   2.09  117.5   71.9   20.1    2.1   2.09   0.91    0.00    2.37
 2001 028    53    50   92.9    0.0   92.9   0.00   2.04  118.5   71.7   21.3    2.0   2.04   0.92    0.00    2.50
 2001 029    54    51   93.7    0.0   93.7   0.00   1.96  119.4   70.8   22.8    2.0   1.96   0.88    0.00    2.64
 2001 030    55    52   94.4    0.0   94.4   0.00   1.87  120.3   69.8   24.6    1.9   1.87   0.85    0.00    2.77
 2001 031    56    53   95.2    0.0   95.2   0.00   1.76  121.2   68.3   26.8    1.8   1.76   0.84    0.00    2.90
 2001 032    57    54   96.0    0.0   96.0   0.00   1.68  122.1   67.2   28.8    1.7   1.68   0.84    0.00    3.04
 2001 033    58    55   96.8    0.0   96.8   0.00   1.58  123.0   65.5   31.3    1.6   1.58   0.83    0.00    3.17
 2001 034    59    56   97.7    0.0   97.7   0.00   1.52  124.1   64.6   33.1    1.5   1.52   0.82    0.00    3.31
 2001 035    60    57   98.7    0.0   98.7   0.00   1.44  125.2   65.1   33.6    1.4   1.44   0.81    0.00    3.45
 2001 036    61    58   99.7    0.0   99.7   0.00   1.39  126.3   65.0   34.7    1.4   1.39   0.80    0.00    3.58
 2001 037    62    59  100.6    0.0  100.6   0.00   1.35  127.3   64.7   35.9    1.3   1.35   0.78    0.00    3.72
 2001 038    63    60  101.5    0.0  101.5   0.00   1.30  128.3   64.1   37.3    1.3   1.30   0.77    0.00    3.86
 2001 039    64    61  102.3    0.0  102.3   0.00   1.28  129.2   63.9   38.4    1.3   1.28   0.77    0.00    4.00
 2001 040    65    62  102.9    0.0  102.9   0.00   1.25  130.0   63.3   39.6    1.3   1.25   0.76    0.00    4.13
 2001 041    66    63  103.6    0.0  103.6   0.00   1.23  130.7   63.1   40.5    1.2   1.23   0.77    0.00    4.27
 2001 042    67    64  104.2    0.0  104.2   0.00   1.21  131.4   62.5   41.8    1.2   1.21   0.76    0.00    4.41
 2001 043    68    65  104.9    0.0  104.9   0.00   1.19  132.2   62.3   42.6    1.2   1.19   0.75    0.00    4.55
 2001 044    69    66  105.6    0.0  105.6   0.00   1.18  133.0   62.1   43.5    1.2   1.18   0.73    0.00    4.69
 2001 045    70    67  106.4    0.0  106.4   0.00   1.16  133.9   61.9   44.5    1.2   1.16   0.71    0.00    4.83
 2001 046    71    68  107.0    0.0  107.0   0.00   1.15  134.6   61.6   45.4    1.1   1.15   0.70    0.00    4.98
 2001 047    72    69  107.6    0.0  107.6   0.00   1.13  135.3   61.3   46.3    1.1   1.13   0.68    0.00    5.12
 2001 048    73    70  142.6    0.0  142.6   0.00   1.47  176.2   80.5   62.1    1.5   1.47   0.80    0.00    5.26
 2001 049    74    71  158.1    0.0  158.1   0.00   1.76  194.1   94.9   63.1    1.8   1.76   0.85    0.00    5.43
 2001 050    75    72  164.4    0.0  164.4   0.00   1.82  202.0   97.4   67.1    1.8   1.82   0.88    0.00    5.61
 2001 051    76    73  167.3    0.0  167.3   0.00   1.84  205.6   97.6   69.7    1.8   1.84   0.88    0.00    5.81
 2001 052    77    74  168.8    0.0  168.8   0.00   1.86  207.6   97.1   71.7    1.9   1.86   0.89    0.00    6.00
 2001 053    78    75  169.6    0.0  169.6   0.00   1.86  208.8   95.8   73.8    1.9   1.86   0.89    0.00    6.20
 2001 054    79    76  170.5    0.0  170.5   0.00   1.86  210.0   94.7   75.8    1.9   1.86   0.89    0.00    6.40
 2001 055    80    77  171.3    0.0  171.3   0.00   1.88  211.4   94.0   77.3    1.9   1.88   0.91    0.00    6.60
 2001 056    81    78  171.9    0.0  171.9   0.00   1.89  212.6   93.2   78.7    1.9   1.89   0.92    0.00    6.80
 2001 057    82    79  172.3    0.0  172.3   0.00   1.90  213.7   92.1   80.2    1.9   1.90   0.94    0.00    7.01
 2001 058    83    80  172.4    0.0  172.4   0.00   1.90  214.9   90.5   81.9    1.9   1.90   0.97    0.00    7.22
 2001 059    84    81  171.4    0.0  171.4   0.00   1.89  216.1   88.1   83.3    1.9   1.89   1.01    0.00    7.43
 2001 060    85    82  170.4    4.1  166.3   1.75   1.83  217.2   85.5   80.8    1.8   1.83   1.05    0.00    7.66
 2001 061    86    83  170.7    8.1  162.7   1.73   1.80  218.0   83.7   79.0    1.8   1.80   1.06    0.00    7.89
 2001 062    87    84  171.5   12.1  159.3   1.73   1.76  219.0   81.9   77.4    1.8   1.76   1.06    0.00    8.13
 2001 063    88    85  172.2   16.2  155.9   1.73   1.72  220.0   80.1   75.8    1.7   1.72   1.06    0.00    8.37
 2001 064    89    86  172.9   20.3  152.6   1.74   1.68  221.2   78.4   74.2    1.7   1.68   1.06    0.00    8.61
 2001 065    90    87  173.6   24.3  149.3   1.73   1.65  222.2   76.8   72.6    1.6   1.65   1.06    0.00    8.86
 2001 066    91    88  174.4   28.3  146.1   1.73   1.61  223.2   75.1   71.0    1.6   1.61   1.06    0.00    9.10
 2001 067    92    89  175.3   31.8  143.4   1.72   1.58  224.4   73.7   69.7    1.6   1.58   1.06    0.00    9.35
 2001 068    93    90  176.1   35.8  140.3   1.72   1.55  225.4   72.1   68.2    1.5   1.55   1.07    0.00    9.59
 2001 069    94    91  177.0   39.8  137.1   1.72   1.51  226.3   70.5   66.6    1.5   1.51   1.06    0.00    9.84
 2001 070    95    92  177.8   43.8  134.0   1.72   1.48  227.2   68.9   65.1    1.5   1.48   1.07    0.00   10.09
 2001 071    96    93  178.6   47.8  130.8   1.72   1.44  228.1   67.2   63.6    1.4   1.44   1.06    0.00   10.34
 2001 072    97    94  179.4   51.8  127.6   1.72   1.41  229.0   65.6   62.0    1.4   1.41   1.06    0.00   10.59
 2001 073    98    95  180.2   55.7  124.4   1.71   1.37  229.8   64.0   60.5    1.4   1.37   1.06    0.00   10.83
 2001 074    99    96  180.9   59.8  121.2   1.72   1.34  230.6   62.3   58.9    1.3   1.34   1.06    0.00   11.08
 2001 075   100    97  181.7   63.7  117.9   1.71   1.30  231.4   60.6   57.3    1.3   1.30   1.06    0.00   11.33
 2001 076   101    98  182.4   67.7  114.7   1.71   1.26  232.2   58.9   55.7    1.3   1.26   1.06    0.00   11.58
 2001 077   102    99  183.1   71.6  111.5   1.71   1.23  232.9   57.3   54.2    1.2   1.23   1.06    0.00   11.83
 2001 078   103   100  183.9   75.1  108.8   1.71   1.21  233.8   56.4   52.4    1.2   1.21   1.07    0.00   12.08
 2001 079   104   101  184.7   78.3  106.4   1.70   1.19  234.5   55.5   50.8    1.2   1.19   1.07    0.00   12.33
 2001 080   105   102  185.5   81.9  103.5   1.70   1.17  235.3   54.6   48.9    1.2   1.17   1.08    0.00   12.58
 2001 081   106   103  186.2   85.2  101.0   1.70   1.15  236.0   53.7   47.3    1.2   1.15   1.08    0.00   12.83
 2001 082   107   104  186.9   89.0   97.9   1.69   1.13  236.6   52.6   45.3    1.1   1.13   1.08    0.00   13.08
 2001 083   108   105  187.5   92.7   94.8   1.69   1.09  237.1   50.7   44.1    1.1   1.09   1.08    0.00   13.32
 2001 084   109   106  188.1   95.5   92.6   1.69   1.07  237.7   49.8   42.8    1.1   1.07   1.09    0.00   13.57
 2001 085   110   107  188.6   98.2   90.4   1.68   1.03  238.2   48.2   42.2    1.0   1.03   1.08    0.00   13.82
 2001 086   111   108  189.1  100.7   88.3   1.68   1.00  238.7   46.8   41.5    1.0   1.00   1.08    0.00   14.07
 2001 087   112   109  189.7  103.4   86.4   1.67   0.98  239.3   45.5   40.8    1.0   0.98   1.08    0.00   14.31
 2001 088   113   110  190.4  106.0   84.4   1.67   0.95  240.1   44.0   40.4    0.9   0.95   1.08    0.00   14.56
 2001 089   114   111  191.1  108.2   82.9   1.66   0.92  240.7   42.8   40.1    0.9   0.92   1.07    0.00   14.81
 2001 090   115   112  191.7  110.3   81.4   1.66   0.90  241.4   41.8   39.5    0.9   0.90   1.07    0.00   15.06
 2001 091   116   113  192.3  113.0   79.3   1.65   0.87  242.0   40.8   38.5    0.9   0.87   1.07    0.00   15.30
 2001 092   117   114  192.8  115.2   77.6   1.64   0.86  242.6   39.9   37.7    0.9   0.86   1.06    0.00   15.55
 2001 093   118   115  193.4  117.3   76.1   1.63   0.84  243.3   39.1   37.0    0.8   0.84   1.06    0.00   15.80
 2001 094   119   116  194.0  119.1   74.9   1.63   0.83  243.9   38.6   36.3    0.8   0.83   1.06    0.00   16.04
 2001 095   120   117  194.6  121.0   73.6   1.62   0.81  244.5   37.8   35.8    0.8   0.81   1.06    0.00   16.29
 2001 096   121   118  195.1  123.2   71.9   1.61   0.80  245.0   37.2   34.8    0.8   0.80   1.07    0.00   16.54
 2001 097   122   119  195.7  125.5   70.1   1.60   0.78  245.6   36.3   33.8    0.8   0.78   1.07    0.00   16.79
 2001 098   123   120  195.7  125.5   70.1   1.60   0.78  246.1   36.3   33.8    0.8   0.78   1.07    0.00   16.79
 2001 099   124   121  195.7  125.5   70.1   1.60   0.78  246.6   36.3   33.8    0.8   0.78   1.07    0.00   16.79
 2001 100   125   122  195.7  125.5   70.1   1.60   0.78  247.2   36.3   33.8    0.8   0.78   1.07    0.00   16.79
 2001 101   126   123  195.7  125.5   70.1   1.60   0.78  247.7   36.3   33.8    0.8   0.78   1.07    0.00   16.79
 2001 102   127   124  195.7  125.5   70.1   1.60   0.78  248.3   36.3   33.8    0.8   0.78   1.07    0.00   16.79

*DSSAT Cropping System Model Ver. 4.0.2.000               Aug 12, 2016; 12:55:24

*RUN   2        : UYMZ                    
 MODEL          : MZCER040 - Maize           
 EXPERIMENT     : UYMZ0198 MZ    late to create DSS                             
 TREATMENT  1   : UYMZ                    

@YEAR DOY   DAS   DAP   CNAD   GNAD   VNAD   GN%D   VN%D   NUPC   LNAD   SNAD   LN%D   SN%D   RN%D   SNN0C   SNN1C
 2001 344     3     0    0.0    0.0    0.0   0.00   0.00    0.0    0.0    0.0    0.0   0.00   0.00    0.00    0.00
 2001 345     4     1    0.0    0.0    0.0   0.00   0.00    0.0    0.0    0.0    0.0   0.00   0.00    0.00    0.00
 2001 346     5     2    0.0    0.0    0.0   0.00   0.00    0.0    0.0    0.0    0.0   0.00   0.00    0.00    0.00
 2001 347     6     3    0.0    0.0    0.0   0.00   0.00    0.0    0.0    0.0    0.0   0.00   0.00    0.00    0.00
 2001 348     7     4    0.0    0.0    0.0   0.00   0.00    0.0    0.0    0.0    0.0   0.00   0.00    0.00    0.00
 2001 349     8     5    1.2    0.0    1.2   0.00   4.40    0.0    0.6    0.6    4.4   4.40   0.00    0.00    0.00
 2001 350     9     6    1.3    0.0    1.3   0.00   4.54    0.2    0.6    0.6    4.5   4.54   1.12    0.00    0.00
 2001 351    10     7    1.3    0.0    1.3   0.00   4.50    0.2    0.6    0.6    4.5   4.50   1.19    0.00    0.00
 2001 352    11     8    1.3    0.0    1.3   0.00   4.47    0.3    0.6    0.6    4.5   4.47   1.23    0.00    0.00
 2001 353    12     9    1.2    0.0    1.2   0.00   4.43    0.3    0.6    0.6    4.4   4.43   1.19    0.00    0.00
 2001 354    13    10    1.2    0.0    1.2   0.00   4.39    0.3    0.6    0.6    4.4   4.39   1.20    0.00    0.00
 2001 355    14    11    1.2    0.0    1.2   0.00   3.93    0.3    0.7    0.5    3.9   3.93   1.12    0.00    0.00
 2001 356    15    12    1.4    0.0    1.4   0.00   3.45    0.6    0.9    0.5    3.4   3.45   1.36    0.00    0.01
 2001 357    16    13    1.7    0.0    1.7   0.00   3.48    1.2    1.2    0.5    3.5   3.48   1.39    0.00    0.01
 2001 358    17    14    2.1    0.0    2.1   0.00   3.43    1.8    1.6    0.5    3.4   3.43   1.35    0.00    0.01
 2001 359    18    15    2.6    0.0    2.6   0.00   3.39    2.7    2.1    0.5    3.4   3.39   1.35    0.00    0.02
 2001 360    19    16    3.2    0.0    3.2   0.00   3.33    3.7    2.7    0.5    3.3   3.33   1.32    0.00    0.02
 2001 361    20    17    4.0    0.0    4.0   0.00   3.25    4.9    3.6    0.5    3.3   3.25   1.29    0.00    0.03
 2001 362    21    18    5.1    0.0    5.1   0.00   3.30    6.5    4.6    0.5    3.3   3.30   1.28    0.00    0.04
 2001 363    22    19    6.3    0.0    6.3   0.00   3.31    8.2    5.9    0.5    3.3   3.31   1.26    0.00    0.06
 2001 364    23    20    7.8    0.0    7.8   0.00   3.28   10.2    7.3    0.5    3.3   3.28   1.24    0.00    0.07
 2001 365    24    21    9.5    0.0    9.5   0.00   3.31   12.2    9.0    0.5    3.3   3.31   1.18    0.00    0.09
 2002 001    25    22   11.4    0.0   11.4   0.00   3.38   15.6   11.0    0.5    3.4   3.38   1.28    0.00    0.11
 2002 002    26    23   13.4    0.0   13.4   0.00   3.37   18.3   12.9    0.5    3.4   3.37   1.24    0.00    0.14
 2002 003    27    24   15.5    0.0   15.5   0.00   3.39   21.9   15.1    0.5    3.4   3.39   1.26    0.00    0.17
 2002 004    28    25   17.9    0.0   17.9   0.00   3.59   25.3   17.4    0.5    3.6   3.59   1.23    0.00    0.20
 2002 005    29    26   19.4    0.0   19.4   0.00   3.44   26.0   18.9    0.5    3.4   3.44   1.09    0.00    0.25
 2002 006    30    27   21.5    0.0   21.5   0.00   3.35   29.2   21.0    0.5    3.3   3.35   1.15    0.00    0.29
 2002 007    31    28   26.8    0.0   26.8   0.00   3.78   37.0   26.3    0.5    3.8   3.78   1.24    0.00    0.33
 2002 008    32    29   28.9    0.0   28.9   0.00   3.68   41.0   28.4    0.5    3.7   3.68   1.23    0.00    0.39
 2002 009    33    30   31.7    0.0   31.7   0.00   3.57   44.8   31.2    0.5    3.6   3.57   1.18    0.00    0.45
 2002 010    34    31   35.4    0.0   35.4   0.00   3.52   50.1   34.8    0.6    3.5   3.52   1.18    0.00    0.53
 2002 011    35    32   39.7    0.0   39.7   0.00   3.48   55.3   38.9    0.8    3.5   3.48   1.16    0.00    0.61
 2002 012    36    33   44.3    0.0   44.3   0.00   3.43   62.1   43.3    1.1    3.4   3.43   1.18    0.00    0.69
 2002 013    37    34   49.4    0.0   49.4   0.00   3.37   68.4   47.8    1.6    3.4   3.37   1.15    0.00    0.78
 2002 014    38    35   52.6    0.0   52.6   0.00   3.34   71.0   50.6    2.0    3.3   3.34   1.10    0.00    0.88
 2002 015    39    36   55.2    0.0   55.2   0.00   3.31   77.5   52.8    2.4    3.3   3.31   1.18    0.00    0.98
 2002 016    40    37   58.1    0.0   58.1   0.00   3.29   82.5   55.2    2.9    3.3   3.29   1.17    0.00    1.10
 2002 017    41    38   61.4    0.0   61.4   0.00   3.26   87.0   57.9    3.5    3.3   3.26   1.14    0.00    1.23
 2002 018    42    39   64.9    0.0   64.9   0.00   3.23   92.9   60.6    4.3    3.2   3.23   1.15    0.00    1.36
 2002 019    43    40   69.1    0.0   69.1   0.00   3.19   99.1   63.7    5.4    3.2   3.19   1.15    0.00    1.51
 2002 020    44    41   75.3    0.0   75.3   0.00   3.15  105.5   68.0    7.2    3.1   3.15   1.11    0.00    1.66
 2002 021    45    42   79.8    0.0   79.8   0.00   3.05  110.0   70.7    9.1    3.1   3.05   1.09    0.00    1.82
 2002 022    46    43   82.4    0.0   82.4   0.00   2.87  113.2   71.2   11.1    2.9   2.87   1.07    0.00    1.98
 2002 023    47    44   84.4    0.0   84.4   0.00   2.69  115.6   71.2   13.2    2.7   2.69   1.05    0.00    2.13
 2002 024    48    45   86.3    0.0   86.3   0.00   2.56  117.6   71.2   15.0    2.6   2.56   1.05    0.00    2.30
 2002 025    49    46   87.7    0.0   87.7   0.00   2.39  119.1   70.5   17.2    2.4   2.39   1.03    0.00    2.46
 2002 026    50    47   89.0    0.0   89.0   0.00   2.29  120.6   70.2   18.8    2.3   2.29   1.03    0.00    2.62
 2002 027    51    48   90.3    0.0   90.3   0.00   2.17  121.9   69.4   20.9    2.2   2.17   1.03    0.00    2.78
 2002 028    52    49   91.3    0.0   91.3   0.00   2.03  123.1   68.3   23.1    2.0   2.03   1.00    0.00    2.95
 2002 029    53    50   92.3    0.0   92.3   0.00   1.91  124.2   67.0   25.3    1.9   1.91   0.97    0.00    3.11
 2002 030    54    51   93.2    0.0   93.2   0.00   1.79  125.1   65.7   27.5    1.8   1.79   0.96    0.00    3.27
 2002 031    55    52   93.8    0.0   93.8   0.00   1.69  125.8   66.7   27.1    1.7   1.69   0.96    0.00    3.44
 2002 032    56    53   94.3    0.0   94.3   0.00   1.60  126.4   66.0   28.3    1.6   1.60   0.93    0.00    3.60
 2002 033    57    54   94.9    0.0   94.9   0.00   1.55  127.0   65.6   29.3    1.5   1.55   0.90    0.00    3.77
 2002 034    58    55   95.6    0.0   95.6   0.00   1.51  127.8   65.2   30.4    1.5   1.51   0.87    0.00    3.93
 2002 035    59    56   96.3    0.0   96.3   0.00   1.47  128.7   64.7   31.6    1.5   1.47   0.85    0.00    4.10
 2002 036    60    57   97.2    0.0   97.2   0.00   1.43  129.6   64.2   32.9    1.4   1.43   0.84    0.00    4.26
 2002 037    61    58   97.9    0.0   97.9   0.00   1.40  130.5   63.7   34.2    1.4   1.40   0.84    0.00    4.43
 2002 038    62    59   98.7    0.0   98.7   0.00   1.37  131.4   63.3   35.4    1.4   1.37   0.83    0.00    4.60
 2002 039    63    60   99.4    0.0   99.4   0.00   1.34  132.2   62.8   36.6    1.3   1.34   0.82    0.00    4.76
 2002 040    64    61  100.1    0.0  100.1   0.00   1.32  132.9   62.5   37.6    1.3   1.32   0.82    0.00    4.93
 2002 041    65    62  100.7    0.0  100.7   0.00   1.29  133.6   61.9   38.8    1.3   1.29   0.81    0.00    5.10
 2002 042    66    63  101.3    0.0  101.3   0.00   1.27  134.3   61.4   39.9    1.3   1.27   0.79    0.00    5.27
 2002 043    67    64  101.9    0.0  101.9   0.00   1.25  135.0   60.9   40.9    1.2   1.25   0.80    0.00    5.44
 2002 044    68    65  102.3    0.0  102.3   0.00   1.22  135.6   60.3   42.0    1.2   1.22   0.78    0.00    5.60
 2002 045    69    66  102.8    0.0  102.8   0.00   1.19  136.2   59.7   43.1    1.2   1.19   0.77    0.00    5.77
 2002 046    70    67  103.4    0.0  103.4   0.00   1.17  136.8   59.3   44.2    1.2   1.17   0.75    0.00    5.94
 2002 047    71    68  104.0    0.0  104.0   0.00   1.16  137.5   59.0   45.0    1.2   1.16   0.74    0.00    6.11
 2002 048    72    69  104.4    0.0  104.4   0.00   1.14  138.1   58.7   45.7    1.1   1.14   0.72    0.00    6.28
 2002 049    73    70  138.8    0.0  138.8   0.00   1.64  178.9   83.4   55.3    1.6   1.64   0.84    0.00    6.46
 2002 050    74    71  149.9    0.0  149.9   0.00   1.76  192.6   89.0   60.9    1.8   1.76   0.89    0.00    6.66
 2002 051    75    72  157.5    0.0  157.5   0.00   1.85  202.1   92.3   65.2    1.9   1.85   0.92    0.00    6.88
 2002 052    76    73  161.0    0.0  161.0   0.00   1.89  206.7   93.0   68.0    1.9   1.89   0.93    0.00    7.10
 2002 053    77    74  162.8    0.0  162.8   0.00   1.90  209.2   92.6   70.2    1.9   1.90   0.93    0.00    7.33
 2002 054    78    75  163.7    0.0  163.7   0.00   1.91  210.5   91.8   71.9    1.9   1.91   0.93    0.00    7.57
 2002 055    79    76  164.0    0.0  164.0   0.00   1.92  211.3   91.0   73.1    1.9   1.92   0.91    0.00    7.80
 2002 056    80    77  164.3    0.0  164.3   0.00   1.93  211.7   89.7   74.5    1.9   1.93   0.89    0.00    8.04
 2002 057    81    78  164.5    0.0  164.5   0.00   1.92  212.2   88.1   76.3    1.9   1.92   0.89    0.00    8.28
 2002 058    82    79  164.6    0.0  164.6   0.00   1.92  212.7   86.4   78.2    1.9   1.92   0.89    0.00    8.52
 2002 059    83    80  164.7    0.0  164.7   0.00   1.92  213.9   84.7   80.0    1.9   1.92   0.91    0.00    8.76
 2002 060    84    81  164.2    0.0  164.2   0.00   1.91  215.1   83.0   81.2    1.9   1.91   0.93    0.00    9.01
 2002 061    85    82  164.3    4.0  160.3   1.70   1.87  216.5   81.0   79.3    1.9   1.87   0.95    0.00    9.27
 2002 062    86    83  164.8    8.7  156.2   1.70   1.82  218.0   78.9   77.3    1.8   1.82   0.96    0.00    9.53
 2002 063    87    84  165.4   13.4  151.9   1.71   1.77  219.3   76.8   75.2    1.8   1.77   0.97    0.00    9.80
 2002 064    88    85  165.7   17.8  148.0   1.71   1.75  220.6   75.7   72.3    1.7   1.75   0.99    0.00   10.07
 2002 065    89    86  166.3   22.5  143.9   1.71   1.70  221.7   73.8   70.0    1.7   1.70   1.01    0.00   10.34
 2002 066    90    87  167.1   27.2  139.9   1.71   1.65  223.0   71.4   68.5    1.6   1.65   1.02    0.00   10.62
 2002 067    91    88  167.8   32.0  135.9   1.71   1.60  224.0   69.6   66.3    1.6   1.60   1.03    0.00   10.90
 2002 068    92    89  168.6   36.8  131.7   1.72   1.54  225.0   66.6   65.2    1.5   1.54   1.02    0.00   11.18
 2002 069    93    90  169.5   41.8  127.7   1.73   1.49  226.2   64.5   63.2    1.5   1.49   1.02    0.00   11.47
 2002 070    94    91  170.3   46.3  124.0   1.72   1.47  227.2   63.6   60.4    1.5   1.47   1.03    0.00   11.75
 2002 071    95    92  171.0   50.5  120.5   1.71   1.45  228.1   62.6   57.9    1.4   1.45   1.04    0.00   12.04
 2002 072    96    93  171.8   55.1  116.8   1.71   1.40  229.0   60.6   56.2    1.4   1.40   1.05    0.00   12.32
 2002 073    97    94  172.5   59.7  112.8   1.71   1.34  229.9   57.9   54.9    1.3   1.34   1.04    0.00   12.61
 2002 074    98    95  173.2   64.5  108.7   1.71   1.27  230.6   55.2   53.5    1.3   1.27   1.04    0.00   12.89
 2002 075    99    96  174.1   69.1  104.9   1.71   1.22  231.6   53.0   51.9    1.2   1.22   1.04    0.00   13.18
 2002 076   100    97  175.1   73.4  101.8   1.70   1.20  232.8   52.2   49.6    1.2   1.20   1.05    0.00   13.47
 2002 077   101    98  175.9   77.5   98.3   1.68   1.18  233.6   51.0   47.3    1.2   1.18   1.05    0.00   13.76
 2002 078   102    99  176.6   81.6   94.9   1.67   1.16  234.3   50.1   44.8    1.2   1.16   1.06    0.00   14.04
 2002 079   103   100  177.2   84.5   92.6   1.67   1.13  234.9   48.9   43.8    1.1   1.13   1.06    0.00   14.33
 2002 080   104   101  177.8   87.5   90.3   1.66   1.09  235.6   47.2   43.1    1.1   1.09   1.06    0.00   14.62
 2002 081   105   102  178.5   91.4   87.1   1.65   1.04  236.4   45.2   41.9    1.0   1.04   1.06    0.00   14.91
 2002 082   106   103  179.4   94.9   84.4   1.64   1.03  237.3   44.5   39.9    1.0   1.03   1.07    0.00   15.20
 2002 083   107   104  180.2   98.7   81.5   1.63   0.99  238.1   42.9   38.6    1.0   0.99   1.07    0.00   15.48
 2002 084   108   105  181.1  102.5   78.6   1.62   0.96  239.0   41.6   37.0    1.0   0.96   1.07    0.00   15.77
 2002 085   109   106  181.7  105.9   75.8   1.61   0.94  239.6   40.6   35.3    0.9   0.94   1.08    0.00   16.06
 2002 086   110   107  182.2  108.2   74.0   1.60   0.92  240.2   39.8   34.2    0.9   0.92   1.08    0.00   16.35
 2002 087   111   108  182.8  111.7   71.1   1.58   0.89  240.7   38.6   32.4    0.9   0.89   1.09    0.00   16.64
 2002 088   112   109  183.3  115.2   68.1   1.57   0.86  241.2   37.1   30.9    0.9   0.86   1.09    0.00   16.92
 2002 089   113   110  184.0  118.6   65.3   1.56   0.84  241.8   36.4   28.9    0.8   0.84   1.10    0.00   17.21
 2002 090   114   111  184.7  120.1   64.6   1.55   0.82  242.5   35.7   28.8    0.8   0.82   1.10    0.00   17.50
 2002 091   115   112  185.2  120.9   64.3   1.55   0.81  243.0   35.0   29.3    0.8   0.81   1.09    0.00   17.78
 2002 092   116   113  185.7  121.8   63.9   1.55   0.79  243.6   34.2   29.7    0.8   0.79   1.08    0.00   18.07
 2002 093   117   114  186.4  122.8   63.5   1.54   0.77  244.3   33.4   30.1    0.8   0.77   1.07    0.00   18.36
 2002 094   118   115  187.1  124.6   62.6   1.54   0.75  245.1   32.6   30.0    0.8   0.75   1.07    0.00   18.64
 2002 095   119   116  187.8  127.3   60.5   1.52   0.73  245.8   31.5   29.0    0.7   0.73   1.07    0.00   18.93
 2002 096   120   117  188.6  130.1   58.4   1.51   0.71  246.5   30.6   27.8    0.7   0.71   1.08    0.00   19.22
 2002 097   121   118  189.3  132.9   56.4   1.49   0.70  247.3   30.2   26.2    0.7   0.70   1.08    0.00   19.50
 2002 098   122   119  189.9  135.6   54.3   1.48   0.68  247.9   29.3   25.0    0.7   0.68   1.09    0.00   19.79
 2002 099   123   120  189.9  135.6   54.3   1.48   0.68  248.5   29.3   25.0    0.7   0.68   1.09    0.00   19.79
 2002 100   124   121  189.9  135.6   54.3   1.48   0.68  249.1   29.3   25.0    0.7   0.68   1.09    0.00   19.79
 2002 101   125   122  189.9  135.6   54.3   1.48   0.68  249.8   29.3   25.0    0.7   0.68   1.09    0.00   19.79
 2002 102   126   123  189.9  135.6   54.3   1.48   0.68  250.4   29.3   25.0    0.7   0.68   1.09    0.00   19.79

*DSSAT Cropping System Model Ver. 4.0.2.000               Aug 12, 2016; 12:55:24

*RUN   3        : UYMZ                    
 MODEL          : MZCER040 - Maize           
 EXPERIMENT     : UYMZ0198 MZ    late to create DSS                             
 TREATMENT  1   : UYMZ                    

@YEAR DOY   DAS   DAP   CNAD   GNAD   VNAD   GN%D   VN%D   NUPC   LNAD   SNAD   LN%D   SN%D   RN%D   SNN0C   SNN1C
 2002 344     3     0    0.0    0.0    0.0   0.00   0.00    0.0    0.0    0.0    0.0   0.00   0.00    0.00    0.00
 2002 345     4     1    0.0    0.0    0.0   0.00   0.00    0.0    0.0    0.0    0.0   0.00   0.00    0.00    0.00
 2002 346     5     2    0.0    0.0    0.0   0.00   0.00    0.0    0.0    0.0    0.0   0.00   0.00    0.00    0.00
 2002 347     6     3    0.0    0.0    0.0   0.00   0.00    0.0    0.0    0.0    0.0   0.00   0.00    0.00    0.00
 2002 348     7     4    0.0    0.0    0.0   0.00   0.00    0.0    0.0    0.0    0.0   0.00   0.00    0.00    0.00
 2002 349     8     5    1.2    0.0    1.2   0.00   4.40    0.0    0.6    0.6    4.4   4.40   0.00    0.00    0.00
 2002 350     9     6    1.3    0.0    1.3   0.00   4.53    0.2    0.6    0.6    4.5   4.53   1.15    0.00    0.00
 2002 351    10     7    1.3    0.0    1.3   0.00   4.49    0.2    0.6    0.6    4.5   4.49   1.20    0.00    0.00
 2002 352    11     8    1.2    0.0    1.2   0.00   4.46    0.3    0.6    0.6    4.5   4.46   1.26    0.00    0.00
 2002 353    12     9    1.2    0.0    1.2   0.00   4.46    0.3    0.6    0.6    4.5   4.46   1.18    0.00    0.00
 2002 354    13    10    1.2    0.0    1.2   0.00   4.40    0.4    0.6    0.6    4.4   4.40   1.29    0.00    0.00
 2002 355    14    11    1.2    0.0    1.2   0.00   3.53    0.5    0.7    0.5    3.5   3.53   1.32    0.00    0.01
 2002 356    15    12    1.5    0.0    1.5   0.00   3.31    0.7    1.0    0.5    3.3   3.31   1.10    0.00    0.01
 2002 357    16    13    2.0    0.0    2.0   0.00   3.87    1.3    1.4    0.5    3.9   3.87   1.23    0.00    0.01
 2002 358    17    14    2.2    0.0    2.2   0.00   3.65    1.8    1.7    0.5    3.6   3.65   1.38    0.00    0.01
 2002 359    18    15    2.5    0.0    2.5   0.00   3.48    2.6    2.1    0.5    3.5   3.48   1.37    0.00    0.02
 2002 360    19    16    3.1    0.0    3.1   0.00   3.33    3.5    2.6    0.5    3.3   3.33   1.33    0.00    0.02
 2002 361    20    17    3.9    0.0    3.9   0.00   3.19    4.7    3.4    0.4    3.2   3.19   1.30    0.00    0.03
 2002 362    21    18    5.0    0.0    5.0   0.00   3.38    5.6    4.6    0.5    3.4   3.38   1.09    0.00    0.04
 2002 363    22    19    6.1    0.0    6.1   0.00   3.36    6.7    5.7    0.5    3.4   3.36   1.10    0.00    0.05
 2002 364    23    20    7.4    0.0    7.4   0.00   3.40    8.4    7.0    0.5    3.4   3.40   1.19    0.00    0.06
 2002 365    24    21    8.9    0.0    8.9   0.00   3.49    9.9    8.4    0.5    3.5   3.49   1.14    0.00    0.07
 2003 001    25    22   10.2    0.0   10.2   0.00   3.44   12.0    9.7    0.5    3.4   3.44   1.25    0.00    0.08
 2003 002    26    23   11.8    0.0   11.8   0.00   3.44   14.5   11.3    0.5    3.4   3.44   1.28    0.00    0.10
 2003 003    27    24   13.6    0.0   13.6   0.00   3.47   15.9   13.1    0.5    3.5   3.47   1.12    0.00    0.12
 2003 004    28    25   15.4    0.0   15.4   0.00   3.33   19.7   14.9    0.5    3.3   3.33   1.32    0.00    0.13
 2003 005    29    26   18.0    0.0   18.0   0.00   3.50   23.6   17.5    0.5    3.5   3.50   1.30    0.00    0.16
 2003 006    30    27   20.0    0.0   20.0   0.00   3.35   27.1   19.5    0.5    3.4   3.35   1.27    0.00    0.20
 2003 007    31    28   22.8    0.0   22.8   0.00   3.34   31.6   22.3    0.5    3.3   3.34   1.26    0.00    0.24
 2003 008    32    29   29.4    0.0   29.4   0.00   3.78   39.6   28.9    0.5    3.8   3.78   1.22    0.00    0.29
 2003 009    33    30   33.4    0.0   33.4   0.00   3.68   44.4   32.9    0.5    3.7   3.68   1.18    0.00    0.34
 2003 010    34    31   37.0    0.0   37.0   0.00   3.56   47.1   36.4    0.6    3.6   3.56   1.08    0.00    0.40
 2003 011    35    32   41.1    0.0   41.1   0.00   3.51   53.4   40.4    0.7    3.5   3.51   1.17    0.00    0.46
 2003 012    36    33   45.1    0.0   45.1   0.00   3.47   60.1   44.2    0.9    3.5   3.47   1.22    0.00    0.53
 2003 013    37    34   48.8    0.0   48.8   0.00   3.43   65.8   47.6    1.2    3.4   3.43   1.20    0.00    0.61
 2003 014    38    35   53.2    0.0   53.2   0.00   3.39   72.0   51.6    1.6    3.4   3.39   1.18    0.00    0.70
 2003 015    39    36   58.3    0.0   58.3   0.00   3.34   78.2   55.9    2.4    3.3   3.34   1.15    0.00    0.80
 2003 016    40    37   63.8    0.0   63.8   0.00   3.29   85.1   60.4    3.4    3.3   3.29   1.15    0.00    0.91
 2003 017    41    38   69.8    0.0   69.8   0.00   3.24   92.4   65.0    4.8    3.2   3.24   1.14    0.00    1.02
 2003 018    42    39   74.5    0.0   74.5   0.00   3.20   99.4   68.5    6.1    3.2   3.20   1.15    0.00    1.14
 2003 019    43    40   78.9    0.0   78.9   0.00   3.12  104.5   71.3    7.6    3.1   3.12   1.12    0.00    1.27
 2003 020    44    41   82.5    0.0   82.5   0.00   3.01  108.3   73.1    9.3    3.0   3.01   1.10    0.00    1.40
 2003 021    45    42   84.8    0.0   84.8   0.00   2.85  111.3   73.7   11.1    2.9   2.85   1.06    0.00    1.53
 2003 022    46    43   87.2    0.0   87.2   0.00   2.69  113.8   74.0   13.2    2.7   2.69   1.06    0.00    1.67
 2003 023    47    44   88.9    0.0   88.9   0.00   2.56  115.8   73.9   15.1    2.6   2.56   1.02    0.00    1.81
 2003 024    48    45   90.4    0.0   90.4   0.00   2.46  117.6   73.8   16.6    2.5   2.46   0.97    0.00    1.95
 2003 025    49    46   91.7    0.0   91.7   0.00   2.32  119.2   73.1   18.6    2.3   2.32   0.95    0.00    2.09
 2003 026    50    47   92.8    0.0   92.8   0.00   2.20  120.5   72.3   20.5    2.2   2.20   0.91    0.00    2.23
 2003 027    51    48   93.7    0.0   93.7   0.00   2.09  121.7   71.4   22.4    2.1   2.09   0.89    0.00    2.38
 2003 028    52    49   94.6    0.0   94.6   0.00   1.97  122.8   70.2   24.5    2.0   1.97   0.87    0.00    2.52
 2003 029    53    50   95.4    0.0   95.4   0.00   1.84  123.6   68.7   26.7    1.8   1.84   0.85    0.00    2.67
 2003 030    54    51   96.1    0.0   96.1   0.00   1.72  124.5   66.9   29.2    1.7   1.72   0.84    0.00    2.81
 2003 031    55    52   96.7    0.0   96.7   0.00   1.59  125.2   68.2   28.6    1.6   1.59   0.84    0.00    2.96
 2003 032    56    53   97.2    0.0   97.2   0.00   1.51  125.8   67.4   29.8    1.5   1.51   0.84    0.00    3.11
 2003 033    57    54   97.8    0.0   97.8   0.00   1.44  126.4   66.2   31.6    1.4   1.44   0.83    0.00    3.26
 2003 034    58    55   98.6    0.0   98.6   0.00   1.41  127.3   65.9   32.7    1.4   1.41   0.83    0.00    3.40
 2003 035    59    56   99.3    0.0   99.3   0.00   1.38  128.1   65.5   33.8    1.4   1.38   0.84    0.00    3.55
 2003 036    60    57   99.9    0.0   99.9   0.00   1.36  128.8   65.3   34.7    1.4   1.36   0.84    0.00    3.70
 2003 037    61    58  100.6    0.0  100.6   0.00   1.32  129.5   64.3   36.2    1.3   1.32   0.83    0.00    3.85
 2003 038    62    59  101.4    0.0  101.4   0.00   1.30  130.4   63.8   37.5    1.3   1.30   0.83    0.00    4.00
 2003 039    63    60  102.2    0.0  102.2   0.00   1.27  131.3   63.2   39.0    1.3   1.27   0.83    0.00    4.15
 2003 040    64    61  103.1    0.0  103.1   0.00   1.24  132.3   62.6   40.5    1.2   1.24   0.83    0.00    4.30
 2003 041    65    62  103.7    0.0  103.7   0.00   1.21  133.0   62.0   41.7    1.2   1.21   0.83    0.00    4.45
 2003 042    66    63  104.4    0.0  104.4   0.00   1.20  133.7   61.7   42.6    1.2   1.20   0.83    0.00    4.60
 2003 043    67    64  104.9    0.0  104.9   0.00   1.17  134.3   61.2   43.7    1.2   1.17   0.81    0.00    4.75
 2003 044    68    65  105.4    0.0  105.4   0.00   1.15  134.9   60.7   44.7    1.2   1.15   0.79    0.00    4.90
 2003 045    69    66  106.2    0.0  106.2   0.00   1.14  135.8   60.4   45.8    1.1   1.14   0.77    0.00    5.05
 2003 046    70    67  106.9    0.0  106.9   0.00   1.23  136.6   64.8   42.0    1.2   1.23   0.76    0.00    5.20
 2003 047    71    68  107.4    0.0  107.4   0.00   1.24  137.2   64.6   42.8    1.2   1.24   0.74    0.00    5.35
 2003 048    72    69  107.9    0.0  107.9   0.00   1.25  137.9   64.3   43.6    1.2   1.25   0.72    0.00    5.51
 2003 049    73    70  141.1    0.0  141.1   0.00   1.63  178.9   83.1   58.0    1.6   1.63   0.88    0.00    5.66
 2003 050    74    71  155.2    0.0  155.2   0.00   1.80  196.1   90.4   64.7    1.8   1.80   0.94    0.00    5.85
 2003 051    75    72  161.5    0.0  161.5   0.00   1.88  204.6   93.1   68.4    1.9   1.88   0.96    0.00    6.06
 2003 052    76    73  164.0    0.0  164.0   0.00   1.91  208.5   93.4   70.6    1.9   1.91   0.96    0.00    6.28
 2003 053    77    74  165.2    0.0  165.2   0.00   1.93  210.2   92.9   72.3    1.9   1.93   0.97    0.00    6.50
 2003 054    78    75  165.8    0.0  165.8   0.00   1.94  211.2   92.1   73.7    1.9   1.94   0.98    0.00    6.73
 2003 055    79    76  166.2    0.0  166.2   0.00   1.95  211.9   90.8   75.4    1.9   1.95   0.99    0.00    6.96
 2003 056    80    77  166.4    0.0  166.4   0.00   1.95  212.7   89.3   77.1    1.9   1.95   0.98    0.00    7.19
 2003 057    81    78  166.3    0.0  166.3   0.00   1.94  213.6   87.3   79.0    1.9   1.94   1.00    0.00    7.43
 2003 058    82    79  166.3    0.0  166.3   0.00   1.94  213.6   85.3   81.0    1.9   1.94   1.00    0.00    7.43
 2003 059    83    80  166.3    4.3  162.0   1.70   1.89  213.6   83.5   78.5    1.9   1.89   1.00    0.00    7.43
 2003 060    84    81  166.3    8.5  157.8   1.70   1.85  213.6   81.7   76.0    1.9   1.85   1.01    0.00    7.43
 2003 061    85    82  166.3   12.7  153.6   1.70   1.83  213.6   80.5   73.1    1.8   1.83   1.01    0.00    7.43
 2003 062    86    83  166.2   17.0  149.2   1.70   1.76  215.5   77.6   71.6    1.8   1.76   1.06    0.00    7.66
 2003 063    87    84  167.1   21.2  145.9   1.70   1.70  216.9   74.9   71.0    1.7   1.70   1.05    0.00    7.91
 2003 064    88    85  168.2   25.5  142.7   1.70   1.66  218.2   73.2   69.5    1.7   1.66   1.06    0.00    8.16
 2003 065    89    86  169.4   29.8  139.6   1.70   1.64  219.4   72.5   67.1    1.6   1.64   1.06    0.00    8.42
 2003 066    90    87  170.4   34.1  136.3   1.70   1.61  220.4   70.8   65.5    1.6   1.61   1.07    0.00    8.67
 2003 067    91    88  171.3   38.3  133.0   1.70   1.58  221.3   69.4   63.6    1.6   1.58   1.07    0.00    8.92
 2003 068    92    89  172.4   42.7  129.7   1.70   1.54  222.1   67.9   61.8    1.5   1.54   1.07    0.00    9.17
 2003 069    93    90  173.4   46.9  126.4   1.70   1.51  223.0   66.4   60.0    1.5   1.51   1.07    0.00    9.42
 2003 070    94    91  174.3   51.2  123.1   1.70   1.47  223.8   64.7   58.4    1.5   1.47   1.08    0.00    9.67
 2003 071    95    92  174.9   53.9  121.1   1.70   1.43  224.4   63.1   57.9    1.4   1.43   1.07    0.00    9.92
 2003 072    96    93  175.4   56.1  119.4   1.70   1.39  225.0   61.4   57.9    1.4   1.39   1.07    0.00   10.17
 2003 073    97    94  176.0   58.8  117.2   1.70   1.36  225.7   60.1   57.1    1.4   1.36   1.06    0.00   10.42
 2003 074    98    95  176.8   62.0  114.9   1.70   1.35  226.6   59.3   55.6    1.3   1.35   1.06    0.00   10.67
 2003 075    99    96  177.6   65.5  112.0   1.70   1.30  227.4   57.5   54.6    1.3   1.30   1.06    0.00   10.92
 2003 076   100    97  178.3   68.3  110.0   1.69   1.28  228.2   56.4   53.6    1.3   1.28   1.05    0.00   11.17
 2003 077   101    98  178.9   71.0  107.9   1.69   1.26  228.9   55.4   52.5    1.3   1.26   1.04    0.00   11.42
 2003 078   102    99  179.5   74.3  105.2   1.69   1.22  229.7   54.0   51.2    1.2   1.22   1.03    0.00   11.67
 2003 079   103   100  180.2   76.7  103.5   1.68   1.21  230.5   53.1   50.4    1.2   1.21   1.04    0.00   11.92
 2003 080   104   101  180.7   78.0  102.6   1.68   1.20  231.1   52.7   50.0    1.2   1.20   1.03    0.00   12.17
 2003 081   105   102  181.1   79.5  101.6   1.68   1.18  231.7   52.1   49.5    1.2   1.18   1.02    0.00   12.42
 2003 082   106   103  181.6   81.9   99.7   1.67   1.16  232.3   51.2   48.6    1.2   1.16   1.01    0.00   12.68
 2003 083   107   104  182.3   84.6   97.7   1.67   1.14  233.1   50.1   47.6    1.1   1.14   1.01    0.00   12.93
 2003 084   108   105  182.8   87.2   95.6   1.66   1.11  233.9   49.1   46.6    1.1   1.11   1.01    0.00   13.18
 2003 085   109   106  183.4   90.2   93.2   1.66   1.09  234.6   47.8   45.4    1.1   1.09   1.01    0.00   13.44
 2003 086   110   107  184.0   93.8   90.2   1.65   1.05  235.3   46.3   43.9    1.0   1.05   1.01    0.00   13.69
 2003 087   111   108  184.5   97.3   87.3   1.64   1.02  236.0   44.8   42.5    1.0   1.02   1.01    0.00   13.95
 2003 088   112   109  185.2  100.9   84.3   1.63   0.99  236.8   43.5   40.8    1.0   0.99   1.01    0.00   14.21
 2003 089   113   110  185.8  103.0   82.8   1.63   0.97  237.5   42.9   39.9    1.0   0.97   1.02    0.00   14.46
 2003 090   114   111  186.2  105.0   81.2   1.62   0.94  237.9   41.6   39.5    0.9   0.94   1.02    0.00   14.72
 2003 091   115   112  186.5  106.8   79.7   1.62   0.93  238.3   40.9   38.8    0.9   0.93   1.01    0.00   14.98
 2003 092   116   113  187.0  108.4   78.7   1.61   0.92  239.0   40.4   38.3    0.9   0.92   1.01    0.00   15.23
 2003 093   117   114  187.7  109.9   77.8   1.61   0.91  239.7   39.9   37.8    0.9   0.91   1.02    0.00   15.49
 2003 094   118   115  188.1  111.4   76.7   1.60   0.89  240.2   39.4   37.3    0.9   0.89   1.02    0.00   15.75
 2003 095   119   116  188.6  113.2   75.4   1.60   0.88  240.8   38.7   36.7    0.9   0.88   1.02    0.00   16.01
 2003 096   120   117  189.2  114.7   74.4   1.59   0.87  241.5   38.2   36.2    0.9   0.87   1.01    0.00   16.27
 2003 097   121   118  189.7  116.4   73.4   1.59   0.85  242.2   37.6   35.7    0.9   0.85   1.01    0.00   16.53
 2003 098   122   119  190.3  118.2   72.1   1.58   0.84  242.8   37.0   35.1    0.8   0.84   1.01    0.00   16.79
 2003 099   123   120  190.8  120.1   70.7   1.57   0.82  243.5   36.3   34.4    0.8   0.82   1.01    0.00   17.05
 2003 100   124   121  191.3  120.6   70.7   1.57   0.82  244.2   36.3   34.4    0.8   0.82   1.00    0.00   17.31
 2003 101   125   122  191.9  120.7   71.2   1.57   0.83  244.8   36.5   34.7    0.8   0.83   1.00    0.00   17.57
 2003 102   126   123  192.3  121.1   71.2   1.57   0.83  245.4   36.5   34.7    0.8   0.83   1.00    0.00   17.83
 2003 103   127   124  192.8  121.7   71.1   1.57   0.83  246.0   36.5   34.6    0.8   0.83   0.99    0.00   18.10
 2003 104   128   125  193.2  123.0   70.3   1.56   0.82  246.6   36.1   34.2    0.8   0.82   0.99    0.00   18.36
 2003 105   129   126  193.7  124.7   69.0   1.56   0.80  247.2   35.4   33.6    0.8   0.80   0.99    0.00   18.62
 2003 106   130   127  194.1  126.5   67.6   1.55   0.79  247.8   34.7   32.9    0.8   0.79   0.99    0.00   18.89
 2003 107   131   128  194.6  128.5   66.1   1.55   0.77  248.4   33.9   32.2    0.8   0.77   0.99    0.00   19.15
 2003 108   132   129  195.1  130.2   64.9   1.54   0.76  249.0   33.5   31.4    0.8   0.76   1.00    0.00   19.42
 2003 109   133   130  195.1  130.2   64.9   1.54   0.76  249.6   33.5   31.4    0.8   0.76   1.00    0.00   19.42
 2003 110   134   131  195.1  130.2   64.9   1.54   0.76  250.2   33.5   31.4    0.8   0.76   1.00    0.00   19.42
 2003 111   135   132  195.1  130.2   64.9   1.54   0.76  250.9   33.5   31.4    0.8   0.76   1.00    0.00   19.42
 2003 112   136   133  195.1  130.2   64.9   1.54   0.76  251.5   33.5   31.4    0.8   0.76   1.00    0.00   19.42
 2003 113   137   134  195.1  130.2   64.9   1.54   0.76  252.1   33.5   31.4    0.8   0.76   1.00    0.00   19.42

*DSSAT Cropping System Model Ver. 4.0.2.000               Aug 12, 2016; 12:55:24

*RUN   4        : UYMZ                    
 MODEL          : MZCER040 - Maize           
 EXPERIMENT     : UYMZ0198 MZ    late to create DSS                             
 TREATMENT  1   : UYMZ                    

@YEAR DOY   DAS   DAP   CNAD   GNAD   VNAD   GN%D   VN%D   NUPC   LNAD   SNAD   LN%D   SN%D   RN%D   SNN0C   SNN1C
 2003 344     3     0    0.0    0.0    0.0   0.00   0.00    0.0    0.0    0.0    0.0   0.00   0.00    0.00    0.00
 2003 345     4     1    0.0    0.0    0.0   0.00   0.00    0.0    0.0    0.0    0.0   0.00   0.00    0.00    0.00
 2003 346     5     2    0.0    0.0    0.0   0.00   0.00    0.0    0.0    0.0    0.0   0.00   0.00    0.00    0.00
 2003 347     6     3    0.0    0.0    0.0   0.00   0.00    0.0    0.0    0.0    0.0   0.00   0.00    0.00    0.00
 2003 348     7     4    0.0    0.0    0.0   0.00   0.00    0.0    0.0    0.0    0.0   0.00   0.00    0.00    0.00
 2003 349     8     5    0.0    0.0    0.0   0.00   0.00    0.0    0.0    0.0    0.0   0.00   0.00    0.00    0.00
 2003 350     9     6    0.0    0.0    0.0   0.00   0.00    0.0    0.0    0.0    0.0   0.00   0.00    0.00    0.00
 2003 351    10     7    1.2    0.0    1.2   0.00   4.40    0.0    0.6    0.6    4.4   4.40   0.00    0.00    0.00
 2003 352    11     8    1.3    0.0    1.3   0.00   4.52    0.2    0.6    0.6    4.5   4.52   1.13    0.00    0.00
 2003 353    12     9    1.3    0.0    1.3   0.00   4.48    0.2    0.6    0.6    4.5   4.48   1.14    0.00    0.00
 2003 354    13    10    1.2    0.0    1.2   0.00   4.45    0.2    0.6    0.6    4.4   4.45   1.13    0.00    0.00
 2003 355    14    11    1.2    0.0    1.2   0.00   4.41    0.3    0.6    0.6    4.4   4.41   1.25    0.00    0.00
 2003 356    15    12    1.2    0.0    1.2   0.00   4.38    0.3    0.6    0.6    4.4   4.38   1.20    0.00    0.00
 2003 357    16    13    1.2    0.0    1.2   0.00   4.36    0.4    0.6    0.6    4.4   4.36   1.36    0.00    0.01
 2003 358    17    14    1.2    0.0    1.2   0.00   3.52    0.5    0.7    0.5    3.5   3.52   1.24    0.00    0.01
 2003 359    18    15    1.5    0.0    1.5   0.00   3.19    0.9    1.0    0.4    3.2   3.19   1.32    0.00    0.01
 2003 360    19    16    2.0    0.0    2.0   0.00   3.27    1.6    1.5    0.5    3.3   3.27   1.31    0.00    0.01
 2003 361    20    17    2.5    0.0    2.5   0.00   3.40    2.1    2.1    0.5    3.4   3.40   1.10    0.00    0.02
 2003 362    21    18    3.1    0.0    3.1   0.00   3.57    3.0    2.6    0.5    3.6   3.57   1.28    0.00    0.02
 2003 363    22    19    3.7    0.0    3.7   0.00   3.61    4.1    3.2    0.5    3.6   3.61   1.39    0.00    0.03
 2003 364    23    20    4.2    0.0    4.2   0.00   3.45    5.1    3.7    0.5    3.4   3.45   1.31    0.00    0.03
 2003 365    24    21    5.0    0.0    5.0   0.00   3.57    6.5    4.5    0.5    3.6   3.57   1.31    0.00    0.05
 2004 001    25    22    5.8    0.0    5.8   0.00   3.51    7.9    5.3    0.5    3.5   3.51   1.29    0.00    0.06
 2004 002    26    23    6.7    0.0    6.7   0.00   3.48    9.6    6.2    0.5    3.5   3.48   1.28    0.00    0.08
 2004 003    27    24    7.8    0.0    7.8   0.00   3.36   11.4    7.3    0.5    3.4   3.36   1.25    0.00    0.10
 2004 004    28    25    9.3    0.0    9.3   0.00   3.31   13.2    8.8    0.5    3.3   3.31   1.18    0.00    0.12
 2004 005    29    26   11.1    0.0   11.1   0.00   3.23   15.7   10.6    0.5    3.2   3.23   1.19    0.00    0.15
 2004 006    30    27   13.4    0.0   13.4   0.00   3.22   19.1   13.0    0.5    3.2   3.22   1.21    0.00    0.18
 2004 007    31    28   16.2    0.0   16.2   0.00   3.43   22.4   15.7    0.5    3.4   3.43   1.17    0.00    0.21
 2004 008    32    29   18.4    0.0   18.4   0.00   3.23   26.1   17.9    0.5    3.2   3.23   1.21    0.00    0.25
 2004 009    33    30   21.8    0.0   21.8   0.00   3.19   30.4   21.3    0.4    3.2   3.19   1.19    0.00    0.29
 2004 010    34    31   30.2    0.0   30.2   0.00   3.78   39.6   29.7    0.5    3.8   3.78   1.17    0.00    0.34
 2004 011    35    32   33.8    0.0   33.8   0.00   3.68   45.1   33.3    0.5    3.7   3.68   1.21    0.00    0.39
 2004 012    36    33   37.0    0.0   37.0   0.00   3.56   48.5   36.4    0.6    3.6   3.56   1.15    0.00    0.46
 2004 013    37    34   40.7    0.0   40.7   0.00   3.52   53.9   40.1    0.6    3.5   3.52   1.17    0.00    0.52
 2004 014    38    35   44.8    0.0   44.8   0.00   3.48   60.2   44.0    0.8    3.5   3.48   1.20    0.00    0.59
 2004 015    39    36   48.4    0.0   48.4   0.00   3.44   64.7   47.4    1.1    3.4   3.44   1.16    0.00    0.67
 2004 016    40    37   51.8    0.0   51.8   0.00   3.41   70.6   50.5    1.4    3.4   3.41   1.19    0.00    0.76
 2004 017    41    38   55.9    0.0   55.9   0.00   3.37   73.6   54.1    1.9    3.4   3.37   1.09    0.00    0.86
 2004 018    42    39   60.4    0.0   60.4   0.00   3.33   78.2   57.8    2.5    3.3   3.33   1.09    0.00    0.95
 2004 019    43    40   64.4    0.0   64.4   0.00   3.30   82.9   61.1    3.3    3.3   3.30   1.10    0.00    1.05
 2004 020    44    41   69.2    0.0   69.2   0.00   3.26   88.6   64.9    4.3    3.3   3.26   1.11    0.00    1.15
 2004 021    45    42   74.5    0.0   74.5   0.00   3.22   96.3   68.8    5.7    3.2   3.22   1.15    0.00    1.25
 2004 022    46    43   80.0    0.0   80.0   0.00   3.16  102.9   72.6    7.4    3.2   3.16   1.13    0.00    1.36
 2004 023    47    44   84.1    0.0   84.1   0.00   3.06  107.7   74.8    9.3    3.1   3.06   1.11    0.00    1.48
 2004 024    48    45   87.0    0.0   87.0   0.00   2.91  111.2   75.7   11.2    2.9   2.91   1.08    0.00    1.61
 2004 025    49    46   88.9    0.0   88.9   0.00   2.76  113.7   75.9   13.0    2.8   2.76   1.03    0.00    1.73
 2004 026    50    47   90.7    0.0   90.7   0.00   2.61  115.9   75.7   14.9    2.6   2.61   0.99    0.00    1.86
 2004 027    51    48   92.1    0.0   92.1   0.00   2.48  117.7   75.3   16.9    2.5   2.48   0.95    0.00    1.99
 2004 028    52    49   93.5    0.0   93.5   0.00   2.34  119.3   74.5   19.0    2.3   2.34   0.96    0.00    2.13
 2004 029    53    50   94.7    0.0   94.7   0.00   2.18  120.7   73.3   21.4    2.2   2.18   0.93    0.00    2.26
 2004 030    54    51   95.8    0.0   95.8   0.00   2.02  122.0   71.8   24.1    2.0   2.02   0.91    0.00    2.40
 2004 031    55    52   96.8    0.0   96.8   0.00   1.92  123.0   70.7   26.0    1.9   1.92   0.92    0.00    2.53
 2004 032    56    53   97.6    0.0   97.6   0.00   1.80  123.9   69.1   28.4    1.8   1.80   0.91    0.00    2.67
 2004 033    57    54   98.3    0.0   98.3   0.00   1.71  124.8   67.8   30.6    1.7   1.71   0.90    0.00    2.81
 2004 034    58    55   99.2    0.0   99.2   0.00   1.68  125.7   67.6   31.6    1.7   1.68   0.91    0.00    2.94
 2004 035    59    56   99.8    0.0   99.8   0.00   1.59  126.3   66.1   33.7    1.6   1.59   0.91    0.00    3.08
 2004 036    60    57  100.5    0.0  100.5   0.00   1.50  127.2   66.1   34.5    1.5   1.50   0.90    0.00    3.22
 2004 037    61    58  101.4    0.0  101.4   0.00   1.45  128.2   65.9   35.6    1.4   1.45   0.87    0.00    3.35
 2004 038    62    59  102.4    0.0  102.4   0.00   1.41  129.2   65.6   36.7    1.4   1.41   0.85    0.00    3.49
 2004 039    63    60  103.2    0.0  103.2   0.00   1.38  130.1   65.3   37.9    1.4   1.38   0.82    0.00    3.63
 2004 040    64    61  104.0    0.0  104.0   0.00   1.35  131.1   64.9   39.1    1.3   1.35   0.80    0.00    3.77
 2004 041    65    62  104.8    0.0  104.8   0.00   1.31  131.9   64.5   40.4    1.3   1.31   0.78    0.00    3.91
 2004 042    66    63  105.5    0.0  105.5   0.00   1.29  132.8   64.0   41.5    1.3   1.29   0.76    0.00    4.05
 2004 043    67    64  106.2    0.0  106.2   0.00   1.25  133.5   63.4   42.8    1.3   1.25   0.75    0.00    4.19
 2004 044    68    65  106.9    0.0  106.9   0.00   1.24  134.3   63.3   43.6    1.2   1.24   0.75    0.00    4.33
 2004 045    69    66  107.4    0.0  107.4   0.00   1.23  134.9   62.9   44.5    1.2   1.23   0.75    0.00    4.47
 2004 046    70    67  108.0    0.0  108.0   0.00   1.21  135.6   62.7   45.3    1.2   1.21   0.72    0.00    4.61
 2004 047    71    68  108.6    0.0  108.6   0.00   1.20  136.3   62.4   46.2    1.2   1.20   0.71    0.00    4.76
 2004 048    72    69  109.1    0.0  109.1   0.00   1.18  136.9   62.1   47.1    1.2   1.18   0.70    0.00    4.90
 2004 049    73    70  144.3    0.0  144.3   0.00   1.54  177.8   81.4   62.9    1.5   1.54   0.82    0.00    5.04
 2004 050    74    71  159.5    0.0  159.5   0.00   1.66  195.7   89.0   70.6    1.7   1.66   0.86    0.00    5.21
 2004 051    75    72  166.0    0.0  166.0   0.00   1.70  203.5   91.8   74.2    1.7   1.70   0.86    0.00    5.40
 2004 052    76    73  168.9    0.0  168.9   0.00   1.70  207.1   92.5   76.4    1.7   1.70   0.85    0.00    5.59
 2004 053    77    74  170.3    0.0  170.3   0.00   1.85  208.8   99.9   70.4    1.9   1.85   0.84    0.00    5.78
 2004 054    78    75  171.0    0.0  171.0   0.00   1.86  209.7   99.2   71.8    1.9   1.86   0.82    0.00    5.98
 2004 055    79    76  171.5    0.0  171.5   0.00   1.86  210.5   98.2   73.3    1.9   1.86   0.81    0.00    6.17
 2004 056    80    77  171.7    0.0  171.7   0.00   1.86  210.9   97.1   74.7    1.9   1.86   0.80    0.00    6.37
 2004 057    81    78  171.9    0.0  171.9   0.00   1.86  211.2   95.8   76.2    1.9   1.86   0.79    0.00    6.57
 2004 058    82    79  172.2    0.0  172.2   0.00   1.86  211.6   94.5   77.7    1.9   1.86   0.79    0.00    6.77
 2004 059    83    80  172.8    0.0  172.8   0.00   1.86  212.9   93.4   79.4    1.9   1.86   0.79    0.00    6.97
 2004 060    84    81  173.5    0.0  173.5   0.00   1.87  214.2   92.4   81.1    1.9   1.87   0.79    0.00    7.17
 2004 061    85    82  174.0    0.0  174.0   0.00   1.88  215.5   91.2   82.9    1.9   1.88   0.80    0.00    7.38
 2004 062    86    83  174.5    0.0  174.5   0.00   1.88  216.9   90.0   84.5    1.9   1.88   0.81    0.00    7.59
 2004 063    87    84  174.7    0.0  174.7   0.00   1.89  218.0   88.7   86.0    1.9   1.89   0.81    0.00    7.80
 2004 064    88    85  174.8    0.0  174.8   0.00   1.89  219.1   87.3   87.5    1.9   1.89   0.82    0.00    8.02
 2004 065    89    86  174.7    0.0  174.7   0.00   1.90  220.2   85.6   89.1    1.9   1.90   0.83    0.00    8.24
 2004 066    90    87  174.7    4.9  169.8   1.71   1.84  221.4   83.2   86.6    1.8   1.84   0.85    0.00    8.47
 2004 067    91    88  174.8    9.0  165.7   1.71   1.82  222.4   82.0   83.7    1.8   1.82   0.87    0.00    8.71
 2004 068    92    89  175.0   13.4  161.5   1.71   1.77  223.4   79.9   81.6    1.8   1.77   0.89    0.00    8.95
 2004 069    93    90  175.3   17.8  157.5   1.70   1.71  224.4   77.2   80.3    1.7   1.71   0.89    0.00    9.19
 2004 070    94    91  175.8   22.7  153.1   1.70   1.66  225.4   75.0   78.1    1.7   1.66   0.90    0.00    9.44
 2004 071    95    92  176.3   26.7  149.6   1.70   1.62  226.3   73.3   76.3    1.6   1.62   0.91    0.00    9.69
 2004 072    96    93  176.7   30.5  146.2   1.70   1.59  227.2   71.6   74.6    1.6   1.59   0.92    0.00    9.94
 2004 073    97    94  177.2   34.8  142.3   1.69   1.55  228.1   70.2   72.1    1.6   1.55   0.93    0.00   10.19
 2004 074    98    95  177.7   39.6  138.1   1.69   1.51  228.9   68.0   70.1    1.5   1.51   0.94    0.00   10.45
 2004 075    99    96  178.2   44.3  133.9   1.68   1.45  229.6   65.6   68.3    1.5   1.45   0.94    0.00   10.71
 2004 076   100    97  178.6   48.9  129.8   1.67   1.41  230.3   63.6   66.2    1.4   1.41   0.94    0.00   10.97
 2004 077   101    98  179.1   53.4  125.7   1.67   1.36  231.0   61.6   64.1    1.4   1.36   0.94    0.00   11.22
 2004 078   102    99  179.5   57.3  122.3   1.66   1.33  231.6   59.9   62.4    1.3   1.33   0.94    0.00   11.48
 2004 079   103   100  180.0   60.8  119.2   1.65   1.29  232.2   58.4   60.8    1.3   1.29   0.94    0.00   11.74
 2004 080   104   101  180.5   63.9  116.5   1.64   1.26  232.9   57.1   59.4    1.3   1.26   0.94    0.00   12.01
 2004 081   105   102  180.9   66.9  114.0   1.63   1.24  233.5   55.8   58.1    1.2   1.24   0.94    0.00   12.27
 2004 082   106   103  181.3   69.8  111.5   1.62   1.21  234.1   54.7   56.9    1.2   1.21   0.94    0.00   12.53
 2004 083   107   104  181.8   73.3  108.5   1.62   1.18  234.7   53.2   55.3    1.2   1.18   0.94    0.00   12.80
 2004 084   108   105  182.1   77.0  105.1   1.61   1.14  235.2   51.5   53.6    1.1   1.14   0.94    0.00   13.06
 2004 085   109   106  182.6   81.0  101.5   1.59   1.10  235.8   49.8   51.8    1.1   1.10   0.94    0.00   13.32
 2004 086   110   107  183.0   84.2   98.8   1.58   1.07  236.4   48.4   50.4    1.1   1.07   0.94    0.00   13.59
 2004 087   111   108  183.4   87.7   95.7   1.57   1.04  236.9   46.9   48.8    1.0   1.04   0.95    0.00   13.86
 2004 088   112   109  183.9   91.5   92.4   1.56   1.00  237.5   45.3   47.1    1.0   1.00   0.95    0.00   14.12
 2004 089   113   110  184.4   95.2   89.2   1.55   0.97  238.1   43.7   45.5    1.0   0.97   0.96    0.00   14.39
 2004 090   114   111  184.7   98.8   85.9   1.53   0.93  238.5   42.1   43.8    0.9   0.93   0.96    0.00   14.66
 2004 091   115   112  185.2  102.3   82.9   1.52   0.90  239.1   40.8   42.1    0.9   0.90   0.97    0.00   14.93
 2004 092   116   113  185.6  105.7   79.9   1.51   0.88  239.7   39.8   40.1    0.9   0.88   0.97    0.00   15.19
 2004 093   117   114  186.1  109.0   77.1   1.49   0.86  240.2   38.8   38.3    0.9   0.86   0.98    0.00   15.46
 2004 094   118   115  186.6  112.3   74.2   1.48   0.83  240.8   37.4   36.8    0.8   0.83   0.99    0.00   15.73
 2004 095   119   116  187.0  115.6   71.4   1.47   0.80  241.3   36.0   35.4    0.8   0.80   0.99    0.00   16.00
 2004 096   120   117  187.5  118.7   68.8   1.46   0.77  241.8   34.7   34.0    0.8   0.77   1.00    0.00   16.27
 2004 097   121   118  187.8  121.7   66.1   1.44   0.74  242.3   33.5   32.6    0.7   0.74   1.00    0.00   16.54
 2004 098   122   119  188.3  124.6   63.7   1.43   0.72  242.8   32.7   31.0    0.7   0.72   1.01    0.00   16.81
 2004 099   123   120  188.8  127.5   61.4   1.41   0.70  243.4   31.5   29.8    0.7   0.70   1.01    0.00   17.08
 2004 100   124   121  189.3  130.1   59.3   1.40   0.68  243.9   30.9   28.3    0.7   0.68   1.02    0.00   17.35
 2004 101   125   122  189.8  132.3   57.4   1.39   0.67  244.4   30.3   27.2    0.7   0.67   1.03    0.00   17.62
 2004 102   126   123  190.2  134.9   55.3   1.37   0.65  244.9   29.3   25.9    0.6   0.65   1.03    0.00   17.89
 2004 103   127   124  190.2  134.9   55.3   1.37   0.65  245.4   29.3   25.9    0.6   0.65   1.03    0.00   17.89
 2004 104   128   125  190.2  134.9   55.3   1.37   0.65  245.9   29.3   25.9    0.6   0.65   1.03    0.00   17.89
 2004 105   129   126  190.2  134.9   55.3   1.37   0.65  246.3   29.3   25.9    0.6   0.65   1.03    0.00   17.89

*DSSAT Cropping System Model Ver. 4.0.2.000               Aug 12, 2016; 12:55:24

*RUN   5        : UYMZ                    
 MODEL          : MZCER040 - Maize           
 EXPERIMENT     : UYMZ0198 MZ    late to create DSS                             
 TREATMENT  1   : UYMZ                    

@YEAR DOY   DAS   DAP   CNAD   GNAD   VNAD   GN%D   VN%D   NUPC   LNAD   SNAD   LN%D   SN%D   RN%D   SNN0C   SNN1C
 2004 344     3     0    0.0    0.0    0.0   0.00   0.00    0.0    0.0    0.0    0.0   0.00   0.00    0.00    0.00
 2004 345     4     1    0.0    0.0    0.0   0.00   0.00    0.0    0.0    0.0    0.0   0.00   0.00    0.00    0.00
 2004 346     5     2    0.0    0.0    0.0   0.00   0.00    0.0    0.0    0.0    0.0   0.00   0.00    0.00    0.00
 2004 347     6     3    0.0    0.0    0.0   0.00   0.00    0.0    0.0    0.0    0.0   0.00   0.00    0.00    0.00
 2004 348     7     4    0.0    0.0    0.0   0.00   0.00    0.0    0.0    0.0    0.0   0.00   0.00    0.00    0.00
 2004 349     8     5    0.0    0.0    0.0   0.00   0.00    0.0    0.0    0.0    0.0   0.00   0.00    0.00    0.00
 2004 350     9     6    0.0    0.0    0.0   0.00   0.00    0.0    0.0    0.0    0.0   0.00   0.00    0.00    0.00
 2004 351    10     7    0.0    0.0    0.0   0.00   0.00    0.0    0.0    0.0    0.0   0.00   0.00    0.00    0.00
 2004 352    11     8    1.2    0.0    1.2   0.00   4.40    0.0    0.6    0.6    4.4   4.40   0.00    0.00    0.00
 2004 353    12     9    1.3    0.0    1.3   0.00   4.54    0.2    0.6    0.6    4.5   4.54   1.13    0.00    0.00
 2004 354    13    10    1.3    0.0    1.3   0.00   4.50    0.2    0.6    0.6    4.5   4.50   1.13    0.00    0.00
 2004 355    14    11    1.3    0.0    1.3   0.00   4.47    0.2    0.6    0.6    4.5   4.47   1.20    0.00    0.00
 2004 356    15    12    1.2    0.0    1.2   0.00   4.44    0.3    0.6    0.6    4.4   4.44   1.25    0.00    0.00
 2004 357    16    13    1.2    0.0    1.2   0.00   4.42    0.3    0.6    0.6    4.4   4.42   1.27    0.00    0.00
 2004 358    17    14    1.2    0.0    1.2   0.00   4.38    0.5    0.6    0.6    4.4   4.38   1.33    0.00    0.01
 2004 359    18    15    1.2    0.0    1.2   0.00   3.32    0.5    0.8    0.5    3.3   3.32   1.24    0.00    0.01
 2004 360    19    16    1.6    0.0    1.6   0.00   3.39    1.1    1.1    0.5    3.4   3.39   1.32    0.00    0.01
 2004 361    20    17    2.0    0.0    2.0   0.00   3.44    1.7    1.5    0.5    3.4   3.44   1.32    0.00    0.01
 2004 362    21    18    2.5    0.0    2.5   0.00   3.47    2.5    2.0    0.5    3.5   3.47   1.32    0.00    0.02
 2004 363    22    19    3.0    0.0    3.0   0.00   3.38    3.3    2.5    0.5    3.4   3.38   1.28    0.00    0.03
 2004 364    23    20    3.7    0.0    3.7   0.00   3.39    4.0    3.3    0.5    3.4   3.39   1.14    0.00    0.03
 2004 365    24    21    4.6    0.0    4.6   0.00   3.31    5.4    4.1    0.5    3.3   3.31   1.29    0.00    0.04
 2004 366    25    22    5.7    0.0    5.7   0.00   3.29    7.2    5.2    0.5    3.3   3.29   1.31    0.00    0.05
 2005 001    26    23    7.0    0.0    7.0   0.00   3.34    9.2    6.6    0.5    3.3   3.34   1.28    0.00    0.07
 2005 002    27    24    8.5    0.0    8.5   0.00   3.28   11.3    8.0    0.5    3.3   3.28   1.25    0.00    0.08
 2005 003    28    25   10.3    0.0   10.3   0.00   3.33   13.3    9.9    0.5    3.3   3.33   1.17    0.00    0.10
 2005 004    29    26   12.3    0.0   12.3   0.00   3.28   16.7   11.8    0.5    3.3   3.28   1.27    0.00    0.12
 2005 005    30    27   14.7    0.0   14.7   0.00   3.22   20.1   14.2    0.5    3.2   3.22   1.25    0.00    0.15
 2005 006    31    28   17.7    0.0   17.7   0.00   3.35   24.5   17.2    0.5    3.4   3.35   1.25    0.00    0.18
 2005 007    32    29   20.5    0.0   20.5   0.00   3.15   28.5   20.1    0.4    3.2   3.15   1.22    0.00    0.23
 2005 008    33    30   24.9    0.0   24.9   0.00   3.19   33.0   24.4    0.4    3.2   3.19   1.15    0.00    0.27
 2005 009    34    31   33.5    0.0   33.5   0.00   3.78   41.3   32.9    0.5    3.8   3.78   1.09    0.00    0.32
 2005 010    35    32   37.8    0.0   37.8   0.00   3.68   47.6   37.3    0.5    3.7   3.68   1.19    0.00    0.36
 2005 011    36    33   41.7    0.0   41.7   0.00   3.56   53.2   41.1    0.6    3.6   3.56   1.20    0.00    0.42
 2005 012    37    34   46.7    0.0   46.7   0.00   3.51   60.1   45.9    0.8    3.5   3.51   1.21    0.00    0.48
 2005 013    38    35   51.4    0.0   51.4   0.00   3.46   65.6   50.3    1.1    3.5   3.46   1.16    0.00    0.55
 2005 014    39    36   56.9    0.0   56.9   0.00   3.41   72.8   55.2    1.6    3.4   3.41   1.17    0.00    0.63
 2005 015    40    37   61.7    0.0   61.7   0.00   3.36   77.9   59.4    2.3    3.4   3.36   1.13    0.00    0.72
 2005 016    41    38   65.2    0.0   65.2   0.00   3.33   84.9   62.3    2.8    3.3   3.33   1.20    0.00    0.80
 2005 017    42    39   69.9    0.0   69.9   0.00   3.29   91.5   66.1    3.8    3.3   3.29   1.18    0.00    0.91
 2005 018    43    40   75.1    0.0   75.1   0.00   3.25   98.6   70.1    5.0    3.2   3.25   1.17    0.00    1.02
 2005 019    44    41   80.2    0.0   80.2   0.00   3.21  105.4   73.7    6.4    3.2   3.21   1.15    0.00    1.14
 2005 020    45    42   83.1    0.0   83.1   0.00   3.16  110.5   75.7    7.5    3.2   3.16   1.14    0.00    1.28
 2005 021    46    43   85.5    0.0   85.5   0.00   3.08  114.2   76.9    8.6    3.1   3.08   1.11    0.00    1.42
 2005 022    47    44   87.6    0.0   87.6   0.00   2.91  116.8   77.2   10.4    2.9   2.91   1.07    0.00    1.57
 2005 023    48    45   89.2    0.0   89.2   0.00   2.71  118.8   76.8   12.5    2.7   2.71   1.03    0.00    1.72
 2005 024    49    46   90.7    0.0   90.7   0.00   2.51  120.6   75.9   14.8    2.5   2.51   1.01    0.00    1.87
 2005 025    50    47   91.9    0.0   91.9   0.00   2.41  122.1   75.6   16.3    2.4   2.41   0.97    0.00    2.03
 2005 026    51    48   93.0    0.0   93.0   0.00   2.33  123.4   75.3   17.7    2.3   2.33   0.92    0.00    2.18
 2005 027    52    49   93.8    0.0   93.8   0.00   2.22  124.5   74.6   19.2    2.2   2.22   0.89    0.00    2.34
 2005 028    53    50   94.7    0.0   94.7   0.00   2.09  125.6   73.3   21.3    2.1   2.09   0.87    0.00    2.50
 2005 029    54    51   95.4    0.0   95.4   0.00   1.95  126.5   71.7   23.8    1.9   1.95   0.86    0.00    2.66
 2005 030    55    52   96.0    0.0   96.0   0.00   1.90  127.2   71.3   24.8    1.9   1.90   0.86    0.00    2.82
 2005 031    56    53   96.6    0.0   96.6   0.00   1.86  127.8   70.8   25.8    1.9   1.86   0.87    0.00    2.98
 2005 032    57    54   97.0    0.0   97.0   0.00   1.79  128.3   69.8   27.2    1.8   1.79   0.85    0.00    3.14
 2005 033    58    55   97.4    0.0   97.4   0.00   1.73  128.9   68.9   28.5    1.7   1.73   0.83    0.00    3.30
 2005 034    59    56   98.2    0.0   98.2   0.00   1.67  129.7   68.0   30.2    1.7   1.67   0.80    0.00    3.46
 2005 035    60    57   98.9    0.0   98.9   0.00   1.60  130.6   67.0   32.0    1.6   1.60   0.79    0.00    3.62
 2005 036    61    58   99.7    0.0   99.7   0.00   1.50  131.5   67.7   32.0    1.5   1.50   0.80    0.00    3.79
 2005 037    62    59  100.4    0.0  100.4   0.00   1.43  132.4   67.1   33.3    1.4   1.43   0.80    0.00    3.95
 2005 038    63    60  101.2    0.0  101.2   0.00   1.41  133.2   67.1   34.1    1.4   1.41   0.80    0.00    4.11
 2005 039    64    61  101.9    0.0  101.9   0.00   1.40  134.1   67.0   34.9    1.4   1.40   0.81    0.00    4.28
 2005 040    65    62  102.5    0.0  102.5   0.00   1.37  134.7   66.6   35.9    1.4   1.37   0.81    0.00    4.44
 2005 041    66    63  103.1    0.0  103.1   0.00   1.33  135.4   65.8   37.3    1.3   1.33   0.79    0.00    4.61
 2005 042    67    64  103.7    0.0  103.7   0.00   1.30  136.2   65.3   38.5    1.3   1.30   0.79    0.00    4.77
 2005 043    68    65  104.3    0.0  104.3   0.00   1.27  136.8   64.7   39.6    1.3   1.27   0.78    0.00    4.94
 2005 044    69    66  104.8    0.0  104.8   0.00   1.24  137.4   64.0   40.8    1.2   1.24   0.77    0.00    5.11
 2005 045    70    67  105.4    0.0  105.4   0.00   1.22  138.1   63.5   41.9    1.2   1.22   0.76    0.00    5.27
 2005 046    71    68  105.9    0.0  105.9   0.00   1.21  138.7   63.1   42.8    1.2   1.21   0.74    0.00    5.44
 2005 047    72    69  106.4    0.0  106.4   0.00   1.19  139.3   62.8   43.6    1.2   1.19   0.73    0.00    5.61
 2005 048    73    70  141.3    0.0  141.3   0.00   1.54  180.1   82.3   59.0    1.5   1.54   0.84    0.00    5.78
 2005 049    74    71  156.7    0.0  156.7   0.00   1.66  198.2   89.9   66.8    1.7   1.66   0.88    0.00    5.97
 2005 050    75    72  163.4    0.0  163.4   0.00   1.67  206.0   92.0   71.4    1.7   1.67   0.89    0.00    6.18
 2005 051    76    73  166.5    0.0  166.5   0.00   1.84  209.6  100.0   66.5    1.8   1.84   0.91    0.00    6.40
 2005 052    77    74  167.8    0.0  167.8   0.00   1.85  211.2   99.7   68.2    1.8   1.85   0.91    0.00    6.62
 2005 053    78    75  168.5    0.0  168.5   0.00   1.85  212.1   98.6   69.9    1.9   1.85   0.91    0.00    6.84
 2005 054    79    76  168.9    0.0  168.9   0.00   1.85  212.6   97.3   71.6    1.8   1.85   0.91    0.00    7.06
 2005 055    80    77  169.7    0.0  169.7   0.00   1.86  213.7   96.5   73.2    1.9   1.86   0.91    0.00    7.28
 2005 056    81    78  170.5    0.0  170.5   0.00   1.87  214.9   95.9   74.6    1.9   1.87   0.92    0.00    7.50
 2005 057    82    79  171.2    0.0  171.2   0.00   1.88  215.9   94.8   76.4    1.9   1.88   0.93    0.00    7.73
 2005 058    83    80  171.9    0.0  171.9   0.00   1.89  217.1   93.7   78.2    1.9   1.89   0.93    0.00    7.95
 2005 059    84    81  172.4    0.0  172.4   0.00   1.89  218.4   92.5   79.9    1.9   1.89   0.92    0.00    8.18
 2005 060    85    82  172.7    0.0  172.7   0.00   1.90  219.7   91.3   81.4    1.9   1.90   0.92    0.00    8.41
 2005 061    86    83  172.6    0.0  172.6   0.00   1.91  220.9   89.9   82.7    1.9   1.91   0.92    0.00    8.65
 2005 062    87    84  172.3    0.0  172.3   0.00   1.91  222.0   88.3   83.9    1.9   1.91   0.93    0.00    8.89
 2005 063    88    85  171.4    0.0  171.4   0.00   1.91  223.0   86.2   85.2    1.9   1.91   0.95    0.00    9.14
 2005 064    89    86  171.2    4.3  166.9   1.71   1.86  224.0   84.0   82.9    1.9   1.86   0.97    0.00    9.40
 2005 065    90    87  171.3    8.7  162.6   1.74   1.81  225.1   81.8   80.8    1.8   1.81   0.98    0.00    9.67
 2005 066    91    88  171.5   13.2  158.3   1.76   1.76  225.9   79.7   78.7    1.8   1.76   0.98    0.00    9.94
 2005 067    92    89  171.7   17.5  154.3   1.75   1.72  227.0   77.6   76.7    1.7   1.72   1.00    0.00   10.21
 2005 068    93    90  172.1   21.1  151.1   1.74   1.68  227.9   76.0   75.1    1.7   1.68   1.00    0.00   10.49
 2005 069    94    91  172.6   24.6  148.0   1.73   1.65  228.9   74.5   73.5    1.6   1.65   1.00    0.00   10.77
 2005 070    95    92  173.0   28.9  144.2   1.73   1.60  229.7   72.5   71.6    1.6   1.60   1.00    0.00   11.05
 2005 071    96    93  173.4   32.1  141.3   1.73   1.58  230.5   71.5   69.8    1.6   1.58   1.02    0.00   11.33
 2005 072    97    94  173.8   34.7  139.1   1.72   1.56  231.3   70.4   68.7    1.6   1.56   1.03    0.00   11.62
 2005 073    98    95  174.3   38.4  135.9   1.72   1.51  231.9   68.4   67.5    1.5   1.51   1.03    0.00   11.91
 2005 074    99    96  174.7   42.3  132.4   1.72   1.47  232.5   66.6   65.8    1.5   1.47   1.04    0.00   12.20
 2005 075   100    97  175.2   46.5  128.7   1.72   1.44  233.1   65.1   63.7    1.4   1.44   1.04    0.00   12.49
 2005 076   101    98  175.8   50.7  125.1   1.71   1.39  233.8   63.0   62.2    1.4   1.39   1.04    0.00   12.78
 2005 077   102    99  176.4   54.6  121.8   1.71   1.35  234.5   61.3   60.5    1.4   1.35   1.04    0.00   13.07
 2005 078   103   100  176.9   57.0  119.9   1.70   1.33  235.2   60.3   59.6    1.3   1.33   1.03    0.00   13.36
 2005 079   104   101  177.5   60.7  116.7   1.70   1.30  235.9   58.7   58.0    1.3   1.30   1.03    0.00   13.65
 2005 080   105   102  178.0   63.7  114.3   1.69   1.27  236.5   57.5   56.8    1.3   1.27   1.04    0.00   13.94
 2005 081   106   103  178.5   65.5  113.1   1.69   1.26  237.1   56.9   56.2    1.3   1.26   1.05    0.00   14.23
 2005 082   107   104  179.1   67.8  111.3   1.68   1.24  237.7   56.0   55.3    1.2   1.24   1.05    0.00   14.52
 2005 083   108   105  179.6   70.6  108.9   1.68   1.21  238.3   54.8   54.1    1.2   1.21   1.05    0.00   14.81
 2005 084   109   106  180.0   73.4  106.6   1.67   1.19  238.8   53.6   53.0    1.2   1.19   1.04    0.00   15.11
 2005 085   110   107  180.5   77.3  103.2   1.67   1.15  239.4   51.9   51.3    1.1   1.15   1.04    0.00   15.40
 2005 086   111   108  180.9   81.0   99.9   1.66   1.11  239.9   50.3   49.6    1.1   1.11   1.04    0.00   15.69
 2005 087   112   109  181.5   84.7   96.7   1.65   1.08  240.5   49.0   47.7    1.1   1.08   1.04    0.00   15.99
 2005 088   113   110  181.9   87.6   94.4   1.64   1.06  241.0   48.2   46.2    1.1   1.06   1.05    0.00   16.28
 2005 089   114   111  182.4   89.9   92.5   1.63   1.03  241.5   46.7   45.8    1.0   1.03   1.05    0.00   16.57
 2005 090   115   112  182.9   91.5   91.4   1.63   1.02  242.1   46.1   45.3    1.0   1.02   1.05    0.00   16.87
 2005 091   116   113  183.3   94.3   89.1   1.62   1.00  242.6   45.4   43.7    1.0   1.00   1.06    0.00   17.16
 2005 092   117   114  183.8   96.2   87.6   1.62   0.99  243.0   44.8   42.8    1.0   0.99   1.06    0.00   17.45
 2005 093   118   115  184.2   97.1   87.1   1.61   0.97  243.5   43.8   43.3    1.0   0.97   1.05    0.00   17.75
 2005 094   119   116  184.6   98.0   86.6   1.61   0.96  244.0   43.6   43.0    1.0   0.96   1.04    0.00   18.04
 2005 095   120   117  185.2   99.9   85.3   1.61   0.95  244.6   42.9   42.4    0.9   0.95   1.04    0.00   18.33
 2005 096   121   118  185.6  103.2   82.4   1.60   0.93  245.1   42.0   40.4    0.9   0.93   1.05    0.00   18.63
 2005 097   122   119  186.2  106.5   79.6   1.59   0.89  245.7   40.5   39.2    0.9   0.89   1.05    0.00   18.92
 2005 098   123   120  186.5  108.2   78.3   1.58   0.87  246.1   39.5   38.8    0.9   0.87   1.05    0.00   19.22
 2005 099   124   121  187.0  110.1   76.9   1.58   0.86  246.6   38.7   38.2    0.9   0.86   1.05    0.00   19.51
 2005 100   125   122  187.5  112.9   74.6   1.57   0.84  247.2   38.0   36.6    0.8   0.84   1.06    0.00   19.81
 2005 101   126   123  188.0  115.0   73.0   1.56   0.83  247.7   37.5   35.5    0.8   0.83   1.06    0.00   20.10
 2005 102   127   124  188.5  116.3   72.2   1.55   0.82  248.2   37.1   35.1    0.8   0.82   1.07    0.00   20.39
 2005 103   128   125  188.9  117.4   71.5   1.55   0.81  248.7   36.7   34.7    0.8   0.81   1.07    0.00   20.69
 2005 104   129   126  189.3  119.4   69.9   1.54   0.80  249.1   36.2   33.7    0.8   0.80   1.08    0.00   20.98
 2005 105   130   127  189.8  121.2   68.6   1.53   0.78  249.5   35.4   33.2    0.8   0.78   1.08    0.00   21.28
 2005 106   131   128  190.2  122.8   67.4   1.53   0.76  250.0   34.5   32.9    0.8   0.76   1.08    0.00   21.57
 2005 107   132   129  190.8  124.0   66.8   1.52   0.75  250.6   33.8   33.0    0.7   0.75   1.07    0.00   21.87
 2005 108   133   130  191.5  125.6   65.9   1.52   0.73  251.3   33.2   32.8    0.7   0.73   1.07    0.00   22.16
 2005 109   134   131  192.2  127.2   64.9   1.51   0.72  252.0   32.8   32.1    0.7   0.72   1.08    0.00   22.46
 2005 110   135   132  192.2  127.2   64.9   1.51   0.72  252.7   32.8   32.1    0.7   0.72   1.08    0.00   22.46
 2005 111   136   133  192.2  127.2   64.9   1.51   0.72  253.4   32.8   32.1    0.7   0.72   1.08    0.00   22.46
 2005 112   137   134  192.2  127.2   64.9   1.51   0.72  254.1   32.8   32.1    0.7   0.72   1.08    0.00   22.46
 2005 113   138   135  192.2  127.2   64.9   1.51   0.72  254.7   32.8   32.1    0.7   0.72   1.08    0.00   22.46
 2005 114   139   136  192.2  127.2   64.9   1.51   0.72  255.4   32.8   32.1    0.7   0.72   1.08    0.00   22.46
 2005 115   140   137  192.2  127.2   64.9   1.51   0.72  256.1   32.8   32.1    0.7   0.72   1.08    0.00   22.46
 2005 116   141   138  192.2  127.2   64.9   1.51   0.72  256.8   32.8   32.1    0.7   0.72   1.08    0.00   22.46
 2005 117   142   139  192.2  127.2   64.9   1.51   0.72  257.5   32.8   32.1    0.7   0.72   1.08    0.00   22.46

*DSSAT Cropping System Model Ver. 4.0.2.000               Aug 12, 2016; 12:55:24

*RUN   6        : UYMZ                    
 MODEL          : MZCER040 - Maize           
 EXPERIMENT     : UYMZ0198 MZ    late to create DSS                             
 TREATMENT  1   : UYMZ                    

@YEAR DOY   DAS   DAP   CNAD   GNAD   VNAD   GN%D   VN%D   NUPC   LNAD   SNAD   LN%D   SN%D   RN%D   SNN0C   SNN1C
 2005 344     3     0    0.0    0.0    0.0   0.00   0.00    0.0    0.0    0.0    0.0   0.00   0.00    0.00    0.00
 2005 345     4     1    0.0    0.0    0.0   0.00   0.00    0.0    0.0    0.0    0.0   0.00   0.00    0.00    0.00
 2005 346     5     2    0.0    0.0    0.0   0.00   0.00    0.0    0.0    0.0    0.0   0.00   0.00    0.00    0.00
 2005 347     6     3    0.0    0.0    0.0   0.00   0.00    0.0    0.0    0.0    0.0   0.00   0.00    0.00    0.00
 2005 348     7     4    0.0    0.0    0.0   0.00   0.00    0.0    0.0    0.0    0.0   0.00   0.00    0.00    0.00
 2005 349     8     5    0.0    0.0    0.0   0.00   0.00    0.0    0.0    0.0    0.0   0.00   0.00    0.00    0.00
 2005 350     9     6    1.2    0.0    1.2   0.00   4.40    0.0    0.6    0.6    4.4   4.40   0.00    0.00    0.00
 2005 351    10     7    1.3    0.0    1.3   0.00   4.50    0.2    0.6    0.6    4.5   4.50   1.15    0.00    0.00
 2005 352    11     8    1.3    0.0    1.3   0.00   4.47    0.2    0.6    0.6    4.5   4.47   1.18    0.00    0.00
 2005 353    12     9    1.2    0.0    1.2   0.00   4.44    0.2    0.6    0.6    4.4   4.44   1.22    0.00    0.00
 2005 354    13    10    1.2    0.0    1.2   0.00   4.41    0.3    0.6    0.6    4.4   4.41   1.27    0.00    0.00
 2005 355    14    11    1.2    0.0    1.2   0.00   4.37    0.4    0.6    0.6    4.4   4.37   1.27    0.00    0.00
 2005 356    15    12    1.2    0.0    1.2   0.00   3.32    0.4    0.7    0.5    3.3   3.32   1.27    0.00    0.01
 2005 357    16    13    1.6    0.0    1.6   0.00   3.13    0.8    1.1    0.4    3.1   3.13   1.18    0.00    0.01
 2005 358    17    14    2.1    0.0    2.1   0.00   3.39    1.8    1.6    0.5    3.4   3.39   1.43    0.00    0.01
 2005 359    18    15    2.6    0.0    2.6   0.00   3.51    2.7    2.1    0.5    3.5   3.51   1.39    0.00    0.02
 2005 360    19    16    3.2    0.0    3.2   0.00   3.40    3.5    2.7    0.5    3.4   3.40   1.34    0.00    0.02
 2005 361    20    17    3.9    0.0    3.9   0.00   3.35    4.7    3.4    0.5    3.3   3.35   1.32    0.00    0.03
 2005 362    21    18    4.7    0.0    4.7   0.00   3.23    6.0    4.3    0.5    3.2   3.23   1.28    0.00    0.04
 2005 363    22    19    6.0    0.0    6.0   0.00   3.13    7.8    5.5    0.4    3.1   3.13   1.26    0.00    0.05
 2005 364    23    20    7.7    0.0    7.7   0.00   3.21    9.9    7.2    0.4    3.2   3.21   1.23    0.00    0.07
 2005 365    24    21    9.6    0.0    9.6   0.00   3.44   11.6    9.1    0.5    3.4   3.44   1.11    0.00    0.09
[...]
 2010 063    87    84  155.8   19.3  136.5   1.71   1.73  206.8   67.3   69.2    1.7   1.73   1.08    0.00    7.62
 2010 064    88    85  157.7   23.1  134.6   1.71   1.71  209.4   66.3   68.2    1.7   1.71   1.08    0.00    7.88
 2010 065    89    86  159.0   27.0  132.1   1.71   1.68  211.2   65.1   67.0    1.7   1.68   1.08    0.00    8.14
 2010 066    90    87  160.2   30.8  129.4   1.71   1.64  212.7   63.8   65.6    1.6   1.64   1.07    0.00    8.40
 2010 067    91    88  160.9   34.7  126.2   1.71   1.60  213.1   62.2   64.0    1.6   1.60   1.07    0.00    8.66
 2010 068    92    89  162.2   38.5  123.7   1.71   1.57  214.6   61.0   62.7    1.6   1.57   1.07    0.00    8.93
 2010 069    93    90  163.4   42.3  121.0   1.71   1.54  215.9   59.7   61.4    1.5   1.54   1.07    0.00    9.19
 2010 070    94    91  164.3   46.2  118.1   1.71   1.50  217.1   58.2   59.9    1.5   1.50   1.07    0.00    9.45
 2010 071    95    92  165.1   48.9  116.2   1.71   1.48  218.2   57.3   58.9    1.5   1.48   1.07    0.00    9.72
 2010 072    96    93  166.1   52.1  114.0   1.70   1.45  219.2   56.2   57.8    1.4   1.45   1.07    0.00    9.99
 2010 073    97    94  166.9   55.5  111.4   1.70   1.41  220.0   54.9   56.5    1.4   1.41   1.07    0.00   10.25
 2010 074    98    95  167.5   57.6  109.9   1.70   1.40  220.9   54.2   55.7    1.4   1.40   1.06    0.00   10.52
 2010 075    99    96  168.0   59.7  108.3   1.70   1.38  221.6   53.4   54.9    1.4   1.38   1.05    0.00   10.79
 2010 076   100    97  168.6   62.8  105.8   1.70   1.34  222.4   52.1   53.6    1.3   1.34   1.04    0.00   11.06
 2010 077   101    98  169.2   66.2  103.0   1.70   1.32  223.1   51.2   51.8    1.3   1.32   1.05    0.00   11.33
 2010 078   102    99  169.8   69.7  100.1   1.70   1.29  223.8   50.1   50.0    1.3   1.29   1.06    0.00   11.60
 2010 079   103   100  170.4   72.8   97.6   1.70   1.25  224.5   48.7   49.0    1.3   1.25   1.06    0.00   11.87
 2010 080   104   101  171.0   76.3   94.8   1.70   1.21  225.2   46.9   47.9    1.2   1.21   1.06    0.00   12.14
 2010 081   105   102  171.6   79.7   91.8   1.70   1.17  225.8   45.3   46.6    1.2   1.17   1.05    0.00   12.41
 2010 082   106   103  172.1   81.9   90.2   1.69   1.15  226.5   44.5   45.8    1.1   1.15   1.05    0.00   12.68
 2010 083   107   104  172.8   84.2   88.5   1.69   1.12  227.2   43.6   44.9    1.1   1.12   1.04    0.00   12.95
 2010 084   108   105  173.4   86.6   86.8   1.69   1.10  228.0   42.8   44.0    1.1   1.10   1.03    0.00   13.22
 2010 085   109   106  173.9   88.8   85.1   1.68   1.08  228.7   41.9   43.2    1.1   1.08   1.03    0.00   13.50
 2010 086   110   107  174.5   91.8   82.7   1.68   1.05  229.4   40.8   41.9    1.1   1.05   1.03    0.00   13.77
 2010 087   111   108  175.1   94.5   80.6   1.67   1.02  230.1   39.7   40.9    1.0   1.02   1.03    0.00   14.04
 2010 088   112   109  175.6   97.3   78.3   1.66   0.99  230.7   38.6   39.7    1.0   0.99   1.03    0.00   14.32
 2010 089   113   110  176.2   99.6   76.5   1.66   0.97  231.4   37.7   38.8    1.0   0.97   1.03    0.00   14.59
 2010 090   114   111  176.7  102.1   74.6   1.65   0.95  232.0   36.7   37.8    0.9   0.95   1.02    0.00   14.87
 2010 091   115   112  177.2  105.3   71.9   1.64   0.91  232.6   35.4   36.5    0.9   0.91   1.02    0.00   15.14
 2010 092   116   113  177.7  108.2   69.5   1.63   0.88  233.2   34.3   35.3    0.9   0.88   1.03    0.00   15.42
 2010 093   117   114  178.2  109.7   68.4   1.63   0.87  233.8   33.8   34.6    0.9   0.87   1.03    0.00   15.69
 2010 094   118   115  178.6  110.6   68.0   1.62   0.86  234.3   33.5   34.5    0.9   0.86   1.02    0.00   15.97
 2010 095   119   116  179.1  111.7   67.4   1.62   0.86  234.9   33.2   34.2    0.9   0.86   1.02    0.00   16.25
 2010 096   120   117  179.4  112.5   66.9   1.62   0.85  235.3   33.0   33.9    0.9   0.85   1.01    0.00   16.52
 2010 097   121   118  179.8  114.5   65.3   1.61   0.83  235.8   32.2   33.1    0.8   0.83   1.01    0.00   16.80
 2010 098   122   119  180.2  115.8   64.4   1.60   0.82  236.3   31.8   32.7    0.8   0.82   1.02    0.00   17.08
 2010 099   123   120  180.6  117.1   63.5   1.60   0.81  236.8   31.3   32.2    0.8   0.81   1.01    0.00   17.36
 2010 100   124   121  181.0  118.7   62.3   1.59   0.79  237.3   30.7   31.6    0.8   0.79   1.01    0.00   17.63
 2010 101   125   122  181.4  120.3   61.1   1.59   0.78  237.8   30.1   31.0    0.8   0.78   1.01    0.00   17.91
 2010 102   126   123  181.8  122.2   59.7   1.58   0.76  238.3   29.4   30.3    0.8   0.76   1.01    0.00   18.19
 2010 103   127   124  182.2  124.6   57.6   1.57   0.73  238.8   28.4   29.2    0.7   0.73   1.02    0.00   18.47
 2010 104   128   125  182.2  124.6   57.6   1.57   0.73  239.3   28.4   29.2    0.7   0.73   1.02    0.00   18.47
 2010 105   129   126  182.2  124.6   57.6   1.57   0.73  239.7   28.4   29.2    0.7   0.73   1.02    0.00   18.47
 2010 106   130   127  182.2  124.6   57.6   1.57   0.73  240.2   28.4   29.2    0.7   0.73   1.02    0.00   18.47
 2010 107   131   128  182.2  124.6   57.6   1.57   0.73  240.7   28.4   29.2    0.7   0.73   1.02    0.00   18.47
 2010 108   132   129  182.2  124.6   57.6   1.57   0.73  241.1   28.4   29.2    0.7   0.73   1.02    0.00   18.47

*DSSAT Cropping System Model Ver. 4.0.2.000               Aug 12, 2016; 12:55:24

*RUN  11        : UYMZ                    
 MODEL          : MZCER040 - Maize           
 EXPERIMENT     : UYMZ0198 MZ    late to create DSS                             
 TREATMENT  1   : UYMZ                    

@YEAR DOY   DAS   DAP   CNAD   GNAD   VNAD   GN%D   VN%D   NUPC   LNAD   SNAD   LN%D   SN%D   RN%D   SNN0C   SNN1C
 2010 344     3     0    0.0    0.0    0.0   0.00   0.00    0.0    0.0    0.0    0.0   0.00   0.00    0.00    0.00
 2010 345     4     1    0.0    0.0    0.0   0.00   0.00    0.0    0.0    0.0    0.0   0.00   0.00    0.00    0.00
 2010 346     5     2    0.0    0.0    0.0   0.00   0.00    0.0    0.0    0.0    0.0   0.00   0.00    0.00    0.00
 2010 347     6     3    0.0    0.0    0.0   0.00   0.00    0.0    0.0    0.0    0.0   0.00   0.00    0.00    0.00
 2010 348     7     4    0.0    0.0    0.0   0.00   0.00    0.0    0.0    0.0    0.0   0.00   0.00    0.00    0.00
 2010 349     8     5    0.0    0.0    0.0   0.00   0.00    0.0    0.0    0.0    0.0   0.00   0.00    0.00    0.00
 2010 350     9     6    1.2    0.0    1.2   0.00   4.40    0.0    0.6    0.6    4.4   4.40   0.00    0.00    0.00
 2010 351    10     7    1.3    0.0    1.3   0.00   4.51    0.2    0.6    0.6    4.5   4.51   1.15    0.00    0.00
 2010 352    11     8    1.3    0.0    1.3   0.00   4.47    0.2    0.6    0.6    4.5   4.47   1.18    0.00    0.00
 2010 353    12     9    1.3    0.0    1.3   0.00   4.47    0.2    0.6    0.6    4.5   4.47   1.10    0.00    0.00
 2010 354    13    10    1.2    0.0    1.2   0.00   4.40    0.3    0.6    0.6    4.4   4.40   1.22    0.00    0.00
 2010 355    14    11    1.2    0.0    1.2   0.00   3.52    0.4    0.7    0.5    3.5   3.52   1.32    0.00    0.00
 2010 356    15    12    1.5    0.0    1.5   0.00   3.10    0.8    1.1    0.4    3.1   3.10   1.36    0.00    0.01
 2010 357    16    13    2.1    0.0    2.1   0.00   3.17    1.6    1.6    0.4    3.2   3.17   1.40    0.00    0.01
 2010 358    17    14    2.8    0.0    2.8   0.00   3.41    2.2    2.3    0.5    3.4   3.41   1.11    0.00    0.01
 2010 359    18    15    3.4    0.0    3.4   0.00   3.20    3.4    3.0    0.4    3.2   3.20   1.41    0.00    0.01
 2010 360    19    16    4.4    0.0    4.4   0.00   3.25    5.0    4.0    0.5    3.3   3.25   1.40    0.00    0.02
 2010 361    20    17    5.6    0.0    5.6   0.00   3.23    6.7    5.2    0.5    3.2   3.23   1.35    0.00    0.03
 2010 362    21    18    7.1    0.0    7.1   0.00   3.38    9.0    6.6    0.5    3.4   3.38   1.35    0.00    0.04
 2010 363    22    19    8.5    0.0    8.5   0.00   3.34   10.9    8.0    0.5    3.3   3.34   1.27    0.00    0.06
 2010 364    23    20   10.2    0.0   10.2   0.00   3.39   13.8    9.7    0.5    3.4   3.39   1.30    0.00    0.08
 2010 365    24    21   11.9    0.0   11.9   0.00   3.32   16.5   11.5    0.5    3.3   3.32   1.26    0.00    0.10
 2011 001    25    22   14.1    0.0   14.1   0.00   3.34   19.0   13.7    0.5    3.3   3.34   1.18    0.00    0.13
 2011 002    26    23   16.5    0.0   16.5   0.00   3.40   21.7   16.1    0.5    3.4   3.40   1.15    0.00    0.16
 2011 003    27    24   18.9    0.0   18.9   0.00   3.67   24.2   18.4    0.5    3.7   3.67   1.12    0.00    0.19
 2011 004    28    25   20.1    0.0   20.1   0.00   3.30   25.8   19.6    0.5    3.3   3.30   1.13    0.00    0.22
 2011 005    29    26   23.2    0.0   23.2   0.00   3.26   29.3   22.8    0.5    3.3   3.26   1.12    0.00    0.26
 2011 006    30    27   31.3    0.0   31.3   0.00   3.78   39.9   30.8    0.5    3.8   3.78   1.25    0.00    0.29
 2011 007    31    28   36.5    0.0   36.5   0.00   3.68   46.3   36.0    0.5    3.7   3.68   1.22    0.00    0.34
 2011 008    32    29   40.6    0.0   40.6   0.00   3.56   51.3   40.0    0.6    3.6   3.56   1.18    0.00    0.40
 2011 009    33    30   45.7    0.0   45.7   0.00   3.50   57.7   44.9    0.8    3.5   3.50   1.18    0.00    0.46
 2011 010    34    31   49.9    0.0   49.9   0.00   3.46   61.3   48.7    1.1    3.5   3.46   1.10    0.00    0.52
 2011 011    35    32   54.1    0.0   54.1   0.00   3.42   66.0   52.6    1.5    3.4   3.42   1.10    0.00    0.59
 2011 012    36    33   58.7    0.0   58.7   0.00   3.37   71.9   56.6    2.1    3.4   3.37   1.14    0.00    0.65
 2011 013    37    34   63.3    0.0   63.3   0.00   3.33   79.0   60.5    2.9    3.3   3.33   1.19    0.00    0.72
 2011 014    38    35   68.3    0.0   68.3   0.00   3.29   86.0   64.4    3.9    3.3   3.29   1.19    0.00    0.81
 2011 015    39    36   74.1    0.0   74.1   0.00   3.24   93.7   68.8    5.3    3.2   3.24   1.18    0.00    0.90
 2011 016    40    37   80.9    0.0   80.9   0.00   3.20   99.7   73.6    7.3    3.2   3.20   1.10    0.00    1.01
 2011 017    41    38   86.1    0.0   86.1   0.00   3.13  105.8   76.9    9.3    3.1   3.13   1.10    0.00    1.11
 2011 018    42    39   89.4    0.0   89.4   0.00   2.98  110.1   78.1   11.3    3.0   2.98   1.08    0.00    1.21
 2011 019    43    40   91.9    0.0   91.9   0.00   2.82  113.2   78.5   13.4    2.8   2.82   1.04    0.00    1.32
 2011 020    44    41   93.9    0.0   93.9   0.00   2.65  115.6   78.2   15.7    2.6   2.65   1.00    0.00    1.43
 2011 021    45    42   95.6    0.0   95.6   0.00   2.53  117.7   78.0   17.6    2.5   2.53   0.96    0.00    1.54
 2011 022    46    43   96.9    0.0   96.9   0.00   2.36  119.4   77.0   20.0    2.4   2.36   0.94    0.00    1.66
 2011 023    47    44   98.2    0.0   98.2   0.00   2.21  120.9   75.7   22.5    2.2   2.21   0.91    0.00    1.78
 2011 024    48    45   99.5    0.0   99.5   0.00   2.04  122.3   74.1   25.4    2.0   2.04   0.91    0.00    1.90
 2011 025    49    46  100.6    0.0  100.6   0.00   1.91  123.5   72.6   28.1    1.9   1.91   0.91    0.00    2.02
 2011 026    50    47  101.5    0.0  101.5   0.00   1.87  124.5   72.3   29.3    1.9   1.87   0.92    0.00    2.14
 2011 027    51    48  102.4    0.0  102.4   0.00   1.78  125.5   70.9   31.5    1.8   1.78   0.92    0.00    2.26
 2011 028    52    49  103.4    0.0  103.4   0.00   1.67  126.5   69.2   34.2    1.7   1.67   0.91    0.00    2.38
 2011 029    53    50  104.2    0.0  104.2   0.00   1.57  127.4   68.7   35.5    1.6   1.57   0.91    0.00    2.50
 2011 030    54    51  105.0    0.0  105.0   0.00   1.54  128.2   68.6   36.4    1.5   1.54   0.91    0.00    2.62
 2011 031    55    52  105.7    0.0  105.7   0.00   1.52  129.0   68.5   37.3    1.5   1.52   0.92    0.00    2.74
 2011 032    56    53  106.5    0.0  106.5   0.00   1.47  129.8   67.7   38.8    1.5   1.47   0.91    0.00    2.86
 2011 033    57    54  107.3    0.0  107.3   0.00   1.44  130.7   67.1   40.1    1.4   1.44   0.87    0.00    2.98
 2011 034    58    55  108.1    0.0  108.1   0.00   1.40  131.7   66.4   41.7    1.4   1.40   0.84    0.00    3.10
 2011 035    59    56  108.8    0.0  108.8   0.00   1.36  132.4   65.6   43.2    1.4   1.36   0.84    0.00    3.23
 2011 036    60    57  109.6    0.0  109.6   0.00   1.32  133.2   64.8   44.7    1.3   1.32   0.81    0.00    3.35
 2011 037    61    58  110.4    0.0  110.4   0.00   1.29  134.1   64.2   46.2    1.3   1.29   0.81    0.00    3.47
 2011 038    62    59  111.1    0.0  111.1   0.00   1.26  135.0   63.7   47.5    1.3   1.26   0.80    0.00    3.59
 2011 039    63    60  111.8    0.0  111.8   0.00   1.25  135.7   63.5   48.3    1.3   1.25   0.81    0.00    3.72
 2011 040    64    61  112.4    0.0  112.4   0.00   1.23  136.4   63.2   49.2    1.2   1.23   0.81    0.00    3.84
 2011 041    65    62  112.9    0.0  112.9   0.00   1.22  136.9   62.8   50.1    1.2   1.22   0.81    0.00    3.97
 2011 042    66    63  113.4    0.0  113.4   0.00   1.19  137.5   62.4   51.0    1.2   1.19   0.79    0.00    4.09
 2011 043    67    64  113.8    0.0  113.8   0.00   1.17  138.0   62.0   51.9    1.2   1.17   0.78    0.00    4.21
 2011 044    68    65  114.3    0.0  114.3   0.00   1.28  138.5   66.7   47.6    1.3   1.28   0.75    0.00    4.34
 2011 045    69    66  114.8    0.0  114.8   0.00   1.28  139.1   66.3   48.4    1.3   1.28   0.72    0.00    4.46
 2011 046    70    67  115.4    0.0  115.4   0.00   1.29  139.8   66.0   49.3    1.3   1.29   0.69    0.00    4.59
 2011 047    71    68  115.8    0.0  115.8   0.00   1.30  140.3   65.5   50.3    1.3   1.30   0.67    0.00    4.72
 2011 048    72    69  116.2    0.0  116.2   0.00   1.30  140.9   64.8   51.4    1.3   1.30   0.66    0.00    4.84
 2011 049    73    70  149.4    0.0  149.4   0.00   1.67  182.5   82.1   67.4    1.7   1.67   0.86    0.00    4.97
 2011 050    74    71  163.5    0.0  163.5   0.00   1.83  200.9   88.4   75.1    1.8   1.83   0.95    0.00    5.14
 2011 051    75    72  169.8    0.0  169.8   0.00   1.90  209.5   90.3   79.5    1.9   1.90   1.00    0.00    5.33
 2011 052    76    73  172.3    0.0  172.3   0.00   1.93  213.7   90.3   82.0    1.9   1.93   1.04    0.00    5.53
 2011 053    77    74  172.3    0.0  172.3   0.00   1.93  215.0   88.6   83.8    1.9   1.93   1.07    0.00    5.74
 2011 054    78    75  172.3    0.0  172.3   0.00   1.94  215.0   87.3   85.0    1.9   1.94   1.08    0.00    5.74
 2011 055    79    76  172.3    4.1  168.3   1.70   1.89  215.0   85.3   83.0    1.9   1.89   1.08    0.00    5.74
 2011 056    80    77  172.7    8.4  164.3   1.70   1.85  215.2   83.2   81.0    1.8   1.85   1.07    0.00    5.96
 2011 057    81    78  175.0   12.4  162.6   1.70   1.83  218.3   82.4   80.2    1.8   1.83   1.08    0.00    6.17
 2011 058    82    79  175.8   15.4  160.5   1.70   1.81  220.1   81.3   79.2    1.8   1.81   1.08    0.00    6.39
 2011 059    83    80  176.6   18.8  157.8   1.70   1.78  221.3   80.0   77.9    1.8   1.78   1.08    0.00    6.62
 2011 060    84    81  177.4   22.6  154.7   1.70   1.74  222.3   78.4   76.3    1.7   1.74   1.07    0.00    6.84
 2011 061    85    82  178.2   26.9  151.2   1.70   1.70  223.3   76.6   74.6    1.7   1.70   1.06    0.00    7.07
 2011 062    86    83  178.9   31.4  147.5   1.70   1.66  224.3   74.8   72.8    1.7   1.66   1.06    0.00    7.30
 2011 063    87    84  179.7   35.8  143.9   1.70   1.62  225.2   72.9   71.0    1.6   1.62   1.05    0.00    7.53
 2011 064    88    85  180.4   39.4  141.0   1.70   1.59  226.2   71.4   69.5    1.6   1.59   1.05    0.00    7.76
 2011 065    89    86  181.0   43.8  137.2   1.70   1.54  227.0   69.5   67.7    1.5   1.54   1.04    0.00    7.99
 2011 066    90    87  181.8   48.3  133.5   1.70   1.50  227.9   67.7   65.9    1.5   1.50   1.04    0.00    8.22
 2011 067    91    88  182.5   52.7  129.8   1.70   1.46  228.9   65.8   64.0    1.5   1.46   1.04    0.00    8.46
 2011 068    92    89  183.3   57.2  126.1   1.70   1.42  229.8   63.9   62.2    1.4   1.42   1.04    0.00    8.69
 2011 069    93    90  184.0   61.5  122.5   1.70   1.38  230.6   62.1   60.4    1.4   1.38   1.04    0.00    8.92
 2011 070    94    91  184.8   65.8  118.9   1.70   1.34  231.5   60.3   58.7    1.3   1.34   1.04    0.00    9.16
 2011 071    95    92  185.4   70.1  115.3   1.69   1.30  232.2   58.4   56.9    1.3   1.30   1.04    0.00    9.39
 2011 072    96    93  186.0   72.2  113.8   1.69   1.28  233.0   57.7   56.1    1.3   1.28   1.03    0.00    9.63
 2011 073    97    94  186.6   74.0  112.6   1.69   1.27  233.7   57.1   55.5    1.3   1.27   1.02    0.00    9.86
 2011 074    98    95  187.0   76.1  110.9   1.68   1.25  234.3   56.2   54.7    1.2   1.25   1.01    0.00   10.10
 2011 075    99    96  187.4   79.3  108.2   1.68   1.22  234.9   54.8   53.4    1.2   1.22   1.00    0.00   10.34
 2011 076   100    97  188.0   83.3  104.7   1.67   1.19  235.5   53.8   50.9    1.2   1.19   1.01    0.00   10.58
 2011 077   101    98  188.4   86.5  102.0   1.67   1.15  236.1   51.9   50.1    1.2   1.15   1.01    0.00   10.82
 2011 078   102    99  188.8   88.2  100.6   1.67   1.13  236.6   51.0   49.6    1.1   1.13   1.00    0.00   11.05
 2011 079   103   100  189.4   91.0   98.4   1.66   1.11  237.3   49.9   48.5    1.1   1.11   0.99    0.00   11.29
 2011 080   104   101  189.9   94.9   95.0   1.65   1.07  238.0   48.2   46.9    1.1   1.07   0.99    0.00   11.53
 2011 081   105   102  190.4   98.7   91.7   1.64   1.03  238.6   46.5   45.2    1.0   1.03   0.99    0.00   11.78
 2011 082   106   103  190.9  102.1   88.8   1.64   1.01  239.3   45.3   43.5    1.0   1.01   1.00    0.00   12.02
 2011 083   107   104  191.4  105.1   86.3   1.63   0.99  239.8   44.4   41.9    1.0   0.99   1.00    0.00   12.26
 2011 084   108   105  191.9  107.1   84.8   1.62   0.97  240.4   43.8   41.0    1.0   0.97   1.01    0.00   12.50
 2011 085   109   106  192.4  109.8   82.6   1.61   0.95  241.0   42.6   39.9    0.9   0.95   1.02    0.00   12.74
 2011 086   110   107  192.8  111.6   81.2   1.61   0.92  241.4   41.5   39.7    0.9   0.92   1.01    0.00   12.99
 2011 087   111   108  193.2  113.9   79.3   1.60   0.89  242.0   40.2   39.1    0.9   0.89   1.01    0.00   13.23
 2011 088   112   109  193.8  115.9   77.9   1.60   0.88  242.6   39.5   38.4    0.9   0.88   1.00    0.00   13.47
 2011 089   113   110  194.3  118.2   76.0   1.59   0.86  243.2   38.5   37.5    0.9   0.86   1.00    0.00   13.72
 2011 090   114   111  194.8  121.3   73.5   1.58   0.84  243.8   37.6   35.8    0.8   0.84   1.01    0.00   13.96
 2011 091   115   112  195.3  124.4   70.8   1.56   0.80  244.4   36.1   34.7    0.8   0.80   1.01    0.00   14.20
 2011 092   116   113  195.8  126.9   68.9   1.55   0.78  244.9   34.9   34.0    0.8   0.78   1.01    0.00   14.45
 2011 093   117   114  196.3  129.3   67.0   1.54   0.75  245.5   33.9   33.0    0.8   0.75   1.01    0.00   14.69
 2011 094   118   115  196.8  131.8   64.9   1.53   0.73  246.1   32.9   32.0    0.7   0.73   1.01    0.00   14.94
 2011 095   119   116  197.3  133.4   63.9   1.52   0.72  246.7   32.4   31.5    0.7   0.72   1.01    0.00   15.18
 2011 096   120   117  197.7  135.2   62.6   1.51   0.70  247.2   31.7   30.9    0.7   0.70   1.01    0.00   15.43
 2011 097   121   118  198.2  136.9   61.4   1.51   0.69  247.8   31.1   30.3    0.7   0.69   1.01    0.00   15.67
 2011 098   122   119  198.6  138.6   60.0   1.50   0.68  248.3   30.4   29.6    0.7   0.68   1.01    0.00   15.92
 2011 099   123   120  198.6  138.6   60.0   1.50   0.68  248.7   30.4   29.6    0.7   0.68   1.01    0.00   15.92
 2011 100   124   121  198.6  138.6   60.0   1.50   0.68  249.2   30.4   29.6    0.7   0.68   1.01    0.00   15.92
 2011 101   125   122  198.6  138.6   60.0   1.50   0.68  249.6   30.4   29.6    0.7   0.68   1.01    0.00   15.92
 2011 102   126   123  198.6  138.6   60.0   1.50   0.68  250.1   30.4   29.6    0.7   0.68   1.01    0.00   15.92
