*SOIL WATER DAILY OUTPUT FILE

*DSSAT Cropping System Model Ver. 4.0.2.000               Aug 12, 2016; 12:55:24

*RUN   1        : UYMZ                    
 MODEL          : MZCER040 - Maize           
 EXPERIMENT     : UYMZ0198 MZ    late to create DSS                             
 TREATMENT  1   : UYMZ                    

@YEAR DOY   DAS  SWXD   ROFC   DRNC   PREC  IR#C  IRRC  DTWT   SW1D   SW2D   SW3D   SW4D   SW5D   SW6D   SW7D   SW8D   SW9D   SW10
 2000 341     0   152      0      0      0     0     0   137  0.246  0.360  0.367  0.387  0.383  0.373  0.252  0.336  0.000  0.000
 2000 342     1   150      0      0      0     0     0   137  0.209  0.357  0.367  0.387  0.384  0.372  0.252  0.336  0.000  0.000
 2000 343     2   149      0      0      0     0     0   137  0.189  0.354  0.367  0.388  0.384  0.372  0.252  0.336  0.000  0.000
 2000 344     3   169      0      0      0     1    21   137  0.432  0.419  0.380  0.388  0.385  0.372  0.252  0.336  0.000  0.000
 2000 345     4   163      0      0      0     1    21   137  0.298  0.408  0.392  0.388  0.385  0.371  0.252  0.336  0.000  0.000
 2000 346     5   160      0      0      0     1    21   137  0.252  0.397  0.394  0.389  0.386  0.371  0.252  0.336  0.000  0.000
 2000 347     6   159      0      0      0     1    21   137  0.237  0.389  0.394  0.390  0.386  0.371  0.252  0.336  0.000  0.000
 2000 348     7   192     24      0     60     1    21   137  0.415  0.438  0.443  0.448  0.407  0.370  0.252  0.336  0.000  0.000
 2000 349     8   182     24      5     60     1    21   137  0.312  0.419  0.426  0.437  0.413  0.373  0.252  0.336  0.000  0.000
 2000 350     9   186     24      5     69     1    21   137  0.339  0.417  0.424  0.440  0.420  0.375  0.254  0.336  0.000  0.000
 2000 351    10   178     24      8     69     1    21   137  0.263  0.403  0.416  0.434  0.416  0.375  0.254  0.336  0.000  0.000
 2000 352    11   175     24     10     69     1    21   137  0.252  0.395  0.412  0.430  0.415  0.375  0.254  0.336  0.000  0.000
 2000 353    12   173     24     10     69     1    21   137  0.244  0.389  0.409  0.429  0.415  0.375  0.254  0.336  0.000  0.000
 2000 354    13   172     24     10     69     1    21   137  0.238  0.383  0.408  0.429  0.415  0.375  0.254  0.336  0.000  0.000
 2000 355    14   173     24     10     72     1    21   137  0.261  0.378  0.407  0.429  0.415  0.375  0.254  0.336  0.000  0.000
 2000 356    15   175     24     10     76     1    21   137  0.308  0.374  0.406  0.429  0.415  0.375  0.254  0.336  0.000  0.000
 2000 357    16   173     24     10     76     1    21   137  0.292  0.370  0.404  0.428  0.415  0.375  0.254  0.336  0.000  0.000
 2000 358    17   174     24     10     80     1    21   137  0.326  0.367  0.403  0.428  0.415  0.375  0.254  0.336  0.000  0.000
 2000 359    18   173     24     10     80     1    21   137  0.307  0.363  0.401  0.428  0.415  0.375  0.254  0.336  0.000  0.000
 2000 360    19   171     24     10     80     1    21   137  0.292  0.358  0.398  0.428  0.415  0.375  0.254  0.336  0.000  0.000
 2000 361    20   197     28     11    118     1    21   137  0.360  0.434  0.440  0.458  0.429  0.378  0.255  0.339  0.000  0.000
 2000 362    21   212     28     13    137     1    21   137  0.407  0.432  0.443  0.461  0.449  0.393  0.264  0.348  0.000  0.000
 2000 363    22   192     28     28    137     1    21   137  0.340  0.413  0.424  0.444  0.431  0.383  0.258  0.342  0.000  0.000
 2000 364    23   191     28     30    140     1    21   137  0.360  0.400  0.416  0.441  0.429  0.382  0.259  0.346  0.000  0.000
 2000 365    24   179     28     36    140     1    21   137  0.287  0.390  0.407  0.434  0.421  0.378  0.256  0.341  0.000  0.000
 2000 366    25   173     28     39    140     1    21   137  0.259  0.377  0.399  0.430  0.417  0.375  0.254  0.338  0.000  0.000
 2001 001    26   169     28     39    140     1    21   137  0.243  0.364  0.391  0.428  0.415  0.375  0.254  0.338  0.000  0.000
 2001 002    27   165     28     39    140     1    21   137  0.230  0.353  0.382  0.426  0.415  0.375  0.254  0.338  0.000  0.000
 2001 003    28   162     28     39    140     1    21   137  0.217  0.343  0.371  0.423  0.415  0.375  0.254  0.338  0.000  0.000
 2001 004    29   189     28     39    152     2    42   137  0.402  0.433  0.420  0.433  0.418  0.375  0.254  0.339  0.000  0.000
 2001 005    30   178     28     43    152     2    42   137  0.318  0.405  0.402  0.426  0.416  0.375  0.254  0.338  0.000  0.000
 2001 006    31   174     28     43    156     2    42   137  0.332  0.384  0.392  0.421  0.415  0.375  0.254  0.338  0.000  0.000
 2001 007    32   202     45     44    203     2    42   137  0.450  0.433  0.440  0.457  0.430  0.379  0.256  0.340  0.000  0.000
 2001 008    33   187     45     54    203     2    42   137  0.387  0.409  0.415  0.438  0.421  0.376  0.254  0.338  0.000  0.000
 2001 009    34   200     45     55    224     2    42   137  0.392  0.426  0.433  0.455  0.442  0.382  0.257  0.342  0.000  0.000
 2001 010    35   213     45     58    242     2    42   137  0.425  0.434  0.441  0.459  0.448  0.395  0.266  0.351  0.000  0.000
 2001 011    36   190     45     74    242     2    42   137  0.364  0.406  0.413  0.436  0.429  0.384  0.259  0.343  0.000  0.000
 2001 012    37   178     45     80    242     2    42   137  0.324  0.389  0.400  0.424  0.418  0.378  0.255  0.340  0.000  0.000
 2001 013    38   174     45     81    244     2    42   137  0.344  0.376  0.391  0.417  0.412  0.376  0.255  0.341  0.000  0.000
 2001 014    39   190     45     81    265     2    42   137  0.419  0.430  0.426  0.429  0.413  0.375  0.255  0.341  0.000  0.000
 2001 015    40   180     45     85    265     2    42   137  0.374  0.406  0.408  0.420  0.409  0.375  0.255  0.339  0.000  0.000
 2001 016    41   175     45     85    265     2    42   137  0.350  0.392  0.399  0.414  0.405  0.375  0.255  0.339  0.000  0.000
 2001 017    42   175     45     85    269     2    42   137  0.407  0.391  0.394  0.409  0.401  0.375  0.255  0.339  0.000  0.000
 2001 018    43   174     45     85    271     2    42   137  0.408  0.399  0.390  0.405  0.399  0.374  0.255  0.339  0.000  0.000
 2001 019    44   171     45     85    271     2    42   137  0.390  0.395  0.385  0.400  0.395  0.374  0.255  0.339  0.000  0.000
 2001 020    45   165     45     85    271     2    42   137  0.364  0.384  0.376  0.391  0.389  0.373  0.255  0.339  0.000  0.000
 2001 021    46   158     45     85    271     2    42   137  0.341  0.372  0.366  0.385  0.380  0.371  0.255  0.339  0.000  0.000
 2001 022    47   155     45     85    271     2    42   137  0.336  0.365  0.362  0.383  0.376  0.369  0.255  0.339  0.000  0.000
 2001 023    48   148     45     85    271     2    42   137  0.321  0.351  0.354  0.377  0.365  0.365  0.255  0.339  0.000  0.000
 2001 024    49   141     45     85    271     2    42   137  0.308  0.339  0.346  0.372  0.357  0.357  0.255  0.339  0.000  0.000
 2001 025    50   134     45     85    271     2    42   137  0.297  0.332  0.341  0.367  0.351  0.347  0.255  0.339  0.000  0.000
 2001 026    51   160     45     85    281     3    63   137  0.446  0.433  0.415  0.375  0.348  0.337  0.255  0.339  0.000  0.000
 2001 027    52   171     45     85    294     3    63   137  0.431  0.434  0.439  0.430  0.350  0.334  0.254  0.339  0.000  0.000
 2001 028    53   169     45     85    294     3    63   137  0.411  0.415  0.421  0.426  0.383  0.333  0.254  0.339  0.000  0.000
 2001 029    54   163     45     85    294     3    63   137  0.392  0.401  0.408  0.419  0.388  0.328  0.254  0.339  0.000  0.000
 2001 030    55   157     45     85    294     3    63   137  0.379  0.393  0.400  0.412  0.381  0.323  0.254  0.339  0.000  0.000
 2001 031    56   150     45     85    294     3    63   137  0.367  0.385  0.393  0.405  0.375  0.318  0.253  0.339  0.000  0.000
 2001 032    57   146     45     85    294     3    63   137  0.360  0.378  0.387  0.399  0.370  0.314  0.253  0.339  0.000  0.000
 2001 033    58   139     45     85    294     3    63   137  0.347  0.368  0.378  0.390  0.364  0.309  0.252  0.339  0.000  0.000
 2001 034    59   133     45     85    294     3    63   137  0.339  0.358  0.369  0.385  0.359  0.305  0.252  0.339  0.000  0.000
 2001 035    60   127     45     85    294     3    63   137  0.331  0.346  0.357  0.379  0.355  0.302  0.251  0.338  0.000  0.000
 2001 036    61   120     45     85    294     3    63   137  0.323  0.337  0.348  0.372  0.349  0.297  0.249  0.338  0.000  0.000
 2001 037    62   113     45     85    294     3    63   137  0.315  0.329  0.340  0.366  0.344  0.292  0.245  0.338  0.000  0.000
 2001 038    63   128     45     85    294     4    85   137  0.430  0.431  0.362  0.359  0.338  0.287  0.239  0.338  0.000  0.000
 2001 039    64   151     58     85    333     4    85   137  0.466  0.429  0.440  0.429  0.340  0.286  0.237  0.338  0.000  0.000
 2001 040    65   146     58     85    334     4    85   137  0.425  0.418  0.424  0.430  0.353  0.286  0.235  0.338  0.000  0.000
 2001 041    66   145     58     85    336     4    85   137  0.422  0.412  0.417  0.430  0.361  0.285  0.234  0.337  0.000  0.000
 2001 042    67   148     58     85    343     4    85   137  0.426  0.431  0.419  0.429  0.369  0.285  0.232  0.337  0.000  0.000
 2001 043    68   144     58     85    343     4    85   137  0.404  0.410  0.408  0.422  0.386  0.285  0.230  0.337  0.000  0.000
 2001 044    69   138     58     85    343     4    85   137  0.390  0.398  0.400  0.417  0.378  0.284  0.228  0.336  0.000  0.000
 2001 045    70   132     58     85    343     4    85   137  0.378  0.389  0.392  0.409  0.371  0.284  0.225  0.336  0.000  0.000
 2001 046    71   127     58     85    343     4    85   137  0.368  0.381  0.386  0.401  0.366  0.283  0.223  0.335  0.000  0.000
 2001 047    72   121     58     85    343     4    85   137  0.355  0.371  0.377  0.392  0.361  0.282  0.220  0.335  0.000  0.000
 2001 048    73   115     58     85    343     4    85   137  0.343  0.361  0.368  0.386  0.357  0.282  0.217  0.334  0.000  0.000
 2001 049    74   110     58     85    343     4    85   137  0.335  0.351  0.359  0.381  0.354  0.281  0.214  0.334  0.000  0.000
 2001 050    75   104     58     85    343     4    85   137  0.327  0.342  0.351  0.375  0.350  0.280  0.210  0.333  0.000  0.000
 2001 051    76    98     58     85    343     4    85   137  0.317  0.334  0.344  0.370  0.345  0.278  0.203  0.333  0.000  0.000
 2001 052    77   115     58     85    343     5   105   137  0.433  0.434  0.367  0.366  0.343  0.277  0.199  0.332  0.000  0.000
 2001 053    78   108     58     85    343     5   105   137  0.396  0.403  0.372  0.364  0.340  0.276  0.194  0.331  0.000  0.000
 2001 054    79   103     58     85    343     5   105   137  0.381  0.390  0.363  0.362  0.339  0.276  0.191  0.330  0.000  0.000
 2001 055    80   129    102     85    416     5   105   137  0.467  0.432  0.441  0.409  0.338  0.276  0.190  0.329  0.000  0.000
 2001 056    81   127    102     85    416     5   105   137  0.429  0.414  0.421  0.424  0.358  0.276  0.189  0.328  0.000  0.000
 2001 057    82   125    102     85    416     5   105   137  0.408  0.404  0.411  0.422  0.370  0.275  0.188  0.327  0.000  0.000
 2001 058    83   121    102     85    416     5   105   137  0.394  0.398  0.405  0.417  0.367  0.275  0.187  0.326  0.000  0.000
 2001 059    84   115    102     85    416     5   105   137  0.380  0.390  0.397  0.409  0.363  0.275  0.185  0.324  0.000  0.000
 2001 060    85   110    102     85    416     5   105   137  0.368  0.382  0.389  0.401  0.360  0.275  0.184  0.322  0.000  0.000
 2001 061    86   132    102     85    441     5   105   137  0.433  0.433  0.440  0.434  0.369  0.275  0.183  0.321  0.000  0.000
 2001 062    87   126    102     85    441     5   105   137  0.402  0.409  0.416  0.422  0.401  0.274  0.182  0.318  0.000  0.000
 2001 063    88   120    102     85    441     5   105   137  0.385  0.397  0.404  0.419  0.393  0.274  0.181  0.314  0.000  0.000
 2001 064    89   128    102     85    454     5   105   137  0.429  0.431  0.421  0.426  0.392  0.274  0.180  0.311  0.000  0.000
 2001 065    90   124    102     85    454     5   105   137  0.404  0.411  0.409  0.421  0.407  0.274  0.180  0.307  0.000  0.000
 2001 066    91   119    102     85    454     5   105   137  0.391  0.399  0.402  0.418  0.400  0.274  0.179  0.303  0.000  0.000
 2001 067    92   115    102     85    454     5   105   137  0.383  0.394  0.398  0.414  0.395  0.274  0.178  0.299  0.000  0.000
 2001 068    93   111    102     85    454     5   105   137  0.376  0.388  0.393  0.409  0.390  0.274  0.178  0.296  0.000  0.000
 2001 069    94   107    102     85    454     5   105   137  0.367  0.382  0.388  0.404  0.384  0.274  0.177  0.291  0.000  0.000
 2001 070    95   104    102     85    454     5   105   137  0.362  0.377  0.384  0.400  0.380  0.274  0.177  0.288  0.000  0.000
 2001 071    96    99    102     85    454     5   105   137  0.353  0.370  0.379  0.395  0.375  0.274  0.177  0.283  0.000  0.000
 2001 072    97    95    102     85    454     5   105   137  0.346  0.365  0.374  0.391  0.370  0.274  0.176  0.279  0.000  0.000
 2001 073    98    91    102     85    454     5   105   137  0.340  0.358  0.368  0.387  0.366  0.274  0.176  0.273  0.000  0.000
 2001 074    99    88    102     85    455     5   105   137  0.362  0.351  0.362  0.384  0.362  0.273  0.175  0.267  0.000  0.000
 2001 075   100    96    102     85    467     5   105   137  0.425  0.414  0.369  0.380  0.359  0.273  0.174  0.261  0.000  0.000
 2001 076   101    93    102     85    467     5   105   137  0.404  0.401  0.373  0.378  0.357  0.273  0.174  0.256  0.000  0.000
 2001 077   102    89    102     85    467     5   105   137  0.392  0.393  0.368  0.376  0.354  0.273  0.173  0.250  0.000  0.000
 2001 078   103    88    102     85    467     5   105   137  0.388  0.389  0.366  0.376  0.353  0.273  0.173  0.249  0.000  0.000
 2001 079   104    99    102     85    480     5   105   137  0.434  0.434  0.401  0.375  0.352  0.273  0.173  0.248  0.000  0.000
 2001 080   105   124    230     85    634     5   105   137  0.470  0.435  0.440  0.458  0.383  0.273  0.173  0.246  0.000  0.000
 2001 081   106   146    271     85    700     5   105   137  0.471  0.436  0.445  0.480  0.447  0.304  0.173  0.245  0.000  0.000
 2001 082   107   145    271     85    700     5   105   137  0.434  0.417  0.424  0.451  0.427  0.346  0.173  0.245  0.000  0.000
 2001 083   108   167    285     85    740     5   105   137  0.467  0.434  0.440  0.458  0.444  0.380  0.183  0.243  0.000  0.000
 2001 084   109   166    285     85    740     5   105   137  0.432  0.416  0.423  0.441  0.427  0.375  0.221  0.243  0.000  0.000
 2001 085   110   162    285     85    740     5   105   137  0.409  0.406  0.412  0.431  0.417  0.372  0.236  0.242  0.000  0.000
 2001 086   111   159    285     85    740     5   105   137  0.398  0.401  0.408  0.426  0.412  0.370  0.238  0.242  0.000  0.000
 2001 087   112   156    285     85    740     5   105   137  0.392  0.398  0.405  0.424  0.410  0.368  0.237  0.242  0.000  0.000
 2001 088   113   152    285     85    740     5   105   137  0.383  0.394  0.401  0.420  0.406  0.364  0.235  0.241  0.000  0.000
 2001 089   114   148    285     85    740     5   105   137  0.375  0.389  0.398  0.417  0.403  0.361  0.233  0.241  0.000  0.000
 2001 090   115   145    285     85    740     5   105   137  0.368  0.385  0.395  0.414  0.400  0.358  0.232  0.241  0.000  0.000
 2001 091   116   141    285     85    740     5   105   137  0.360  0.381  0.392  0.411  0.397  0.355  0.230  0.241  0.000  0.000
 2001 092   117   137    285     85    740     5   105   137  0.350  0.376  0.388  0.407  0.393  0.351  0.229  0.240  0.000  0.000
 2001 093   118   133    285     85    740     5   105   137  0.342  0.371  0.384  0.404  0.390  0.348  0.227  0.240  0.000  0.000
 2001 094   119   144    285     85    752     5   105   137  0.438  0.420  0.397  0.403  0.389  0.347  0.226  0.240  0.000  0.000
 2001 095   120   152    285     85    763     5   105   137  0.428  0.435  0.431  0.426  0.386  0.344  0.225  0.240  0.000  0.000
 2001 096   121   150    285     85    763     5   105   137  0.408  0.417  0.418  0.425  0.412  0.343  0.224  0.240  0.000  0.000
 2001 097   122   148    285     85    763     5   105   137  0.396  0.407  0.411  0.425  0.411  0.346  0.223  0.240  0.000  0.000
 2001 098   123   175    333     85    839     5   105   137  0.470  0.437  0.443  0.460  0.446  0.362  0.223  0.240  0.000  0.000
 2001 099   124   177    333     85    843     5   105   137  0.433  0.437  0.443  0.460  0.446  0.375  0.225  0.240  0.000  0.000
 2001 100   125   177    333     85    846     5   105   137  0.424  0.429  0.433  0.455  0.442  0.379  0.233  0.240  0.000  0.000
 2001 101   126   179    333     85    852     5   105   137  0.420  0.435  0.432  0.452  0.439  0.380  0.242  0.240  0.000  0.000
 2001 102   127   176    333     85    852     5   105   137  0.397  0.416  0.418  0.438  0.424  0.374  0.251  0.275  0.000  0.000

*DSSAT Cropping System Model Ver. 4.0.2.000               Aug 12, 2016; 12:55:24

*RUN   2        : UYMZ                    
 MODEL          : MZCER040 - Maize           
 EXPERIMENT     : UYMZ0198 MZ    late to create DSS                             
 TREATMENT  1   : UYMZ                    

@YEAR DOY   DAS  SWXD   ROFC   DRNC   PREC  IR#C  IRRC  DTWT   SW1D   SW2D   SW3D   SW4D   SW5D   SW6D   SW7D   SW8D   SW9D   SW10
 2001 341     0   152      0      0      0     0     0   137  0.236  0.360  0.367  0.387  0.383  0.373  0.252  0.336  0.000  0.000
 2001 342     1   149      0      0      0     0     0   137  0.183  0.357  0.367  0.387  0.384  0.372  0.252  0.336  0.000  0.000
 2001 343     2   149      0      0      0     0     0   137  0.183  0.354  0.367  0.388  0.384  0.372  0.252  0.336  0.000  0.000
 2001 344     3   170      0      0      0     1    21   137  0.438  0.418  0.380  0.388  0.385  0.372  0.252  0.336  0.000  0.000
 2001 345     4   164      0      0      0     1    21   137  0.311  0.408  0.393  0.388  0.385  0.371  0.252  0.336  0.000  0.000
 2001 346     5   161      0      0      0     1    21   137  0.263  0.397  0.395  0.389  0.386  0.371  0.252  0.336  0.000  0.000
 2001 347     6   159      0      0      0     1    21   137  0.243  0.390  0.394  0.390  0.386  0.371  0.252  0.336  0.000  0.000
 2001 348     7   158      0      0      0     1    21   137  0.231  0.384  0.394  0.391  0.386  0.370  0.252  0.336  0.000  0.000
 2001 349     8   157      0      0      0     1    21   137  0.222  0.379  0.393  0.392  0.387  0.370  0.252  0.336  0.000  0.000
 2001 350     9   156      0      0      0     1    21   137  0.215  0.374  0.392  0.393  0.387  0.370  0.252  0.336  0.000  0.000
 2001 351    10   156      0      0      0     1    21   137  0.209  0.370  0.391  0.393  0.387  0.370  0.252  0.336  0.000  0.000
 2001 352    11   155      0      0      0     1    21   137  0.203  0.367  0.390  0.394  0.388  0.369  0.252  0.336  0.000  0.000
 2001 353    12   154      0      0      0     1    21   137  0.197  0.363  0.389  0.394  0.388  0.369  0.252  0.336  0.000  0.000
 2001 354    13   153      0      0      0     1    21   137  0.192  0.360  0.388  0.395  0.388  0.369  0.252  0.336  0.000  0.000
 2001 355    14   187      0      0     34     1    21   137  0.430  0.435  0.443  0.430  0.391  0.369  0.252  0.336  0.000  0.000
 2001 356    15   180      0      0     34     1    21   137  0.294  0.417  0.425  0.429  0.414  0.373  0.252  0.336  0.000  0.000
 2001 357    16   175      0      2     34     1    21   137  0.251  0.399  0.416  0.429  0.414  0.373  0.252  0.336  0.000  0.000
 2001 358    17   172      0      3     34     1    21   137  0.238  0.389  0.411  0.429  0.414  0.373  0.252  0.336  0.000  0.000
 2001 359    18   171      0      3     34     1    21   137  0.228  0.380  0.408  0.429  0.414  0.373  0.252  0.336  0.000  0.000
 2001 360    19   169      0      3     34     1    21   137  0.219  0.371  0.405  0.429  0.414  0.373  0.252  0.336  0.000  0.000
 2001 361    20   167      0      3     34     1    21   137  0.211  0.363  0.401  0.429  0.414  0.373  0.252  0.336  0.000  0.000
 2001 362    21   165      0      3     34     1    21   137  0.203  0.355  0.397  0.428  0.414  0.373  0.252  0.336  0.000  0.000
 2001 363    22   163      0      3     34     1    21   137  0.195  0.348  0.392  0.428  0.414  0.373  0.252  0.336  0.000  0.000
 2001 364    23   177      0      3     50     1    21   137  0.425  0.384  0.385  0.427  0.414  0.373  0.252  0.336  0.000  0.000
 2001 365    24   172      0      3     50     1    21   137  0.336  0.385  0.382  0.426  0.414  0.373  0.252  0.336  0.000  0.000
 2002 001    25   166      0      3     50     1    21   137  0.268  0.371  0.376  0.425  0.414  0.373  0.252  0.336  0.000  0.000
 2002 002    26   162      0      3     50     1    21   137  0.238  0.357  0.369  0.424  0.414  0.373  0.252  0.336  0.000  0.000
 2002 003    27   158      0      3     50     1    21   137  0.219  0.343  0.361  0.422  0.414  0.373  0.252  0.336  0.000  0.000
 2002 004    28   175      0      3     50     2    43   137  0.400  0.417  0.368  0.419  0.414  0.373  0.252  0.336  0.000  0.000
 2002 005    29   189      0      3     66     2    43   137  0.415  0.433  0.427  0.432  0.416  0.375  0.252  0.336  0.000  0.000
 2002 006    30   195      0      3     76     2    43   137  0.393  0.431  0.437  0.447  0.425  0.377  0.254  0.338  0.000  0.000
 2002 007    31   182      0     10     76     2    43   137  0.330  0.404  0.411  0.434  0.419  0.375  0.254  0.338  0.000  0.000
 2002 008    32   174      0     11     76     2    43   137  0.297  0.385  0.397  0.426  0.416  0.375  0.254  0.338  0.000  0.000
 2002 009    33   168      0     11     76     2    43   137  0.262  0.370  0.386  0.421  0.415  0.375  0.254  0.338  0.000  0.000
 2002 010    34   163      0     11     76     2    43   137  0.243  0.355  0.374  0.415  0.414  0.375  0.254  0.338  0.000  0.000
 2002 011    35   158      0     11     76     2    43   137  0.227  0.343  0.363  0.407  0.412  0.375  0.254  0.338  0.000  0.000
 2002 012    36   171      0     11     76     3    64   137  0.394  0.415  0.366  0.395  0.408  0.375  0.254  0.338  0.000  0.000
 2002 013    37   178      0     11     89     3    64   137  0.394  0.422  0.405  0.395  0.405  0.375  0.254  0.338  0.000  0.000
 2002 014    38   178      0     11     92     3    64   137  0.412  0.412  0.407  0.398  0.403  0.375  0.254  0.338  0.000  0.000
 2002 015    39   172      0     11     92     3    64   137  0.369  0.396  0.397  0.395  0.400  0.375  0.254  0.338  0.000  0.000
 2002 016    40   165      0     11     92     3    64   137  0.336  0.383  0.386  0.389  0.396  0.374  0.254  0.338  0.000  0.000
 2002 017    41   160      0     11     92     3    64   137  0.317  0.369  0.375  0.383  0.392  0.374  0.254  0.338  0.000  0.000
 2002 018    42   154      0     11     92     3    64   137  0.297  0.354  0.362  0.378  0.386  0.374  0.254  0.338  0.000  0.000
 2002 019    43   147      0     11     92     3    64   137  0.285  0.338  0.350  0.372  0.377  0.373  0.254  0.338  0.000  0.000
 2002 020    44   165      0     11     95     4    85   137  0.420  0.429  0.381  0.366  0.365  0.372  0.254  0.338  0.000  0.000
 2002 021    45   160      0     11     95     4    85   137  0.388  0.404  0.384  0.365  0.363  0.371  0.254  0.338  0.000  0.000
 2002 022    46   154      0     11     95     4    85   137  0.359  0.386  0.370  0.363  0.359  0.370  0.254  0.338  0.000  0.000
 2002 023    47   148      0     11     95     4    85   137  0.336  0.370  0.357  0.361  0.356  0.368  0.254  0.338  0.000  0.000
 2002 024    48   176     12     11    138     4    85   137  0.466  0.428  0.435  0.392  0.354  0.367  0.254  0.338  0.000  0.000
 2002 025    49   169     12     11    138     4    85   137  0.410  0.403  0.409  0.417  0.352  0.365  0.254  0.338  0.000  0.000
 2002 026    50   167     12     11    138     4    85   137  0.396  0.398  0.404  0.414  0.353  0.364  0.254  0.338  0.000  0.000
 2002 027    51   167     12     11    142     4    85   137  0.426  0.402  0.402  0.406  0.353  0.362  0.254  0.338  0.000  0.000
 2002 028    52   160     12     11    142     4    85   137  0.391  0.390  0.394  0.394  0.351  0.360  0.254  0.338  0.000  0.000
 2002 029    53   153     12     11    142     4    85   137  0.369  0.377  0.381  0.385  0.349  0.356  0.253  0.338  0.000  0.000
 2002 030    54   176    110     11    269     4    85   137  0.454  0.425  0.431  0.428  0.354  0.353  0.253  0.338  0.000  0.000
 2002 031    55   171    110     11    269     4    85   137  0.414  0.405  0.412  0.419  0.383  0.351  0.253  0.338  0.000  0.000
 2002 032    56   164    110     11    269     4    85   137  0.392  0.394  0.401  0.415  0.374  0.349  0.253  0.338  0.000  0.000
 2002 033    57   158    110     11    269     4    85   137  0.379  0.385  0.392  0.406  0.368  0.346  0.253  0.338  0.000  0.000
 2002 034    58   152    110     11    269     4    85   137  0.366  0.376  0.383  0.397  0.363  0.343  0.253  0.338  0.000  0.000
 2002 035    59   146    110     11    269     4    85   137  0.353  0.366  0.374  0.389  0.359  0.340  0.252  0.338  0.000  0.000
 2002 036    60   142    110     11    269     4    85   137  0.346  0.359  0.367  0.385  0.357  0.337  0.251  0.338  0.000  0.000
 2002 037    61   138    110     11    269     4    85   137  0.340  0.351  0.360  0.381  0.355  0.334  0.251  0.338  0.000  0.000
 2002 038    62   133    110     11    269     4    85   137  0.333  0.343  0.353  0.376  0.352  0.329  0.250  0.338  0.000  0.000
 2002 039    63   129    110     11    269     4    85   137  0.327  0.338  0.349  0.373  0.349  0.325  0.248  0.338  0.000  0.000
 2002 040    64   129    110     11    271     4    85   137  0.365  0.336  0.346  0.371  0.348  0.322  0.247  0.338  0.000  0.000
 2002 041    65   123    110     11    271     4    85   137  0.344  0.333  0.342  0.367  0.345  0.316  0.246  0.337  0.000  0.000
 2002 042    66   118    110     11    271     4    85   137  0.330  0.329  0.338  0.363  0.342  0.310  0.243  0.337  0.000  0.000
 2002 043    67   137    110     11    272     5   106   137  0.433  0.436  0.374  0.361  0.341  0.307  0.242  0.337  0.000  0.000
 2002 044    68   132    110     11    272     5   106   137  0.400  0.405  0.380  0.360  0.339  0.304  0.240  0.337  0.000  0.000
 2002 045    69   125    110     11    272     5   106   137  0.380  0.388  0.368  0.358  0.337  0.301  0.238  0.337  0.000  0.000
 2002 046    70   119    110     11    272     5   106   137  0.362  0.373  0.356  0.357  0.335  0.299  0.236  0.336  0.000  0.000
 2002 047    71   113    110     11    272     5   106   137  0.344  0.358  0.349  0.355  0.334  0.297  0.233  0.336  0.000  0.000
 2002 048    72   108    110     11    272     5   106   137  0.331  0.340  0.343  0.353  0.332  0.294  0.230  0.336  0.000  0.000
 2002 049    73   103    110     11    272     5   106   137  0.321  0.332  0.337  0.351  0.330  0.291  0.226  0.335  0.000  0.000
 2002 050    74   130    119     11    292     6   127   137  0.467  0.433  0.413  0.358  0.328  0.289  0.221  0.335  0.000  0.000
 2002 051    75   149    119     11    315     6   127   137  0.426  0.431  0.435  0.455  0.355  0.288  0.220  0.334  0.000  0.000
 2002 052    76   144    119     11    315     6   127   137  0.398  0.407  0.413  0.431  0.395  0.287  0.218  0.334  0.000  0.000
 2002 053    77   138    119     11    315     6   127   137  0.384  0.396  0.403  0.421  0.395  0.287  0.217  0.333  0.000  0.000
 2002 054    78   134    119     11    315     6   127   137  0.374  0.389  0.397  0.415  0.389  0.287  0.216  0.333  0.000  0.000
 2002 055    79   129    119     11    315     6   127   137  0.363  0.381  0.390  0.407  0.381  0.287  0.214  0.332  0.000  0.000
 2002 056    80   123    119     11    315     6   127   137  0.350  0.372  0.382  0.400  0.374  0.286  0.213  0.332  0.000  0.000
 2002 057    81   117    119     11    315     6   127   137  0.339  0.362  0.373  0.391  0.367  0.286  0.211  0.331  0.000  0.000
 2002 058    82   111    119     11    315     6   127   137  0.329  0.351  0.363  0.384  0.360  0.285  0.208  0.331  0.000  0.000
 2002 059    83   126    119     11    335     6   127   137  0.432  0.431  0.398  0.379  0.356  0.284  0.205  0.330  0.000  0.000
 2002 060    84   121    119     11    335     6   127   137  0.401  0.407  0.399  0.382  0.353  0.283  0.203  0.329  0.000  0.000
 2002 061    85   116    119     11    335     6   127   137  0.383  0.393  0.391  0.379  0.350  0.283  0.200  0.327  0.000  0.000
 2002 062    86   110    119     11    335     6   127   137  0.366  0.382  0.380  0.375  0.348  0.282  0.198  0.324  0.000  0.000
 2002 063    87   115    119     11    345     6   127   137  0.427  0.415  0.388  0.373  0.346  0.281  0.195  0.321  0.000  0.000
 2002 064    88   114    119     11    345     6   127   137  0.409  0.404  0.394  0.373  0.346  0.281  0.195  0.320  0.000  0.000
 2002 065    89   111    119     11    345     6   127   137  0.396  0.398  0.391  0.373  0.345  0.281  0.194  0.318  0.000  0.000
 2002 066    90   135    155     11    409     6   127   137  0.461  0.430  0.436  0.438  0.356  0.280  0.191  0.315  0.000  0.000
 2002 067    91   132    155     11    409     6   127   137  0.423  0.411  0.418  0.427  0.395  0.280  0.190  0.313  0.000  0.000
 2002 068    92   125    155     11    409     6   127   137  0.395  0.399  0.406  0.419  0.400  0.280  0.188  0.310  0.000  0.000
 2002 069    93   147    155     11    437     6   127   137  0.459  0.431  0.436  0.454  0.425  0.290  0.187  0.306  0.000  0.000
 2002 070    94   170    156     11    463     6   127   137  0.471  0.436  0.442  0.471  0.446  0.343  0.186  0.305  0.000  0.000
 2002 071    95   179    156     11    472     6   127   137  0.434  0.437  0.443  0.460  0.446  0.377  0.191  0.304  0.000  0.000
 2002 072    96   193    156     11    490     6   127   137  0.430  0.435  0.441  0.459  0.445  0.399  0.220  0.302  0.000  0.000
 2002 073    97   187    156     11    490     6   127   137  0.402  0.414  0.420  0.439  0.424  0.381  0.250  0.323  0.000  0.000
 2002 074    98   179    156     13    490     6   127   137  0.388  0.402  0.409  0.428  0.414  0.373  0.250  0.333  0.000  0.000
 2002 075    99   173    156     13    490     6   127   137  0.377  0.395  0.404  0.422  0.408  0.368  0.249  0.330  0.000  0.000
 2002 076   100   201    168     13    531     6   127   137  0.471  0.437  0.442  0.460  0.436  0.375  0.252  0.329  0.000  0.000
 2002 077   101   206    168     13    539     6   127   137  0.433  0.436  0.442  0.459  0.447  0.384  0.258  0.337  0.000  0.000
 2002 078   102   211    168     15    547     6   127   137  0.434  0.437  0.443  0.460  0.447  0.389  0.263  0.345  0.000  0.000
 2002 079   103   194    168     30    547     6   127   137  0.412  0.417  0.424  0.442  0.428  0.379  0.257  0.339  0.000  0.000
 2002 080   104   183    168     36    547     6   127   137  0.397  0.406  0.412  0.431  0.417  0.373  0.253  0.335  0.000  0.000
 2002 081   105   178    168     37    547     6   127   137  0.387  0.399  0.406  0.425  0.411  0.370  0.252  0.333  0.000  0.000
 2002 082   106   176    168     37    547     6   127   137  0.386  0.396  0.405  0.424  0.410  0.369  0.251  0.332  0.000  0.000
 2002 083   107   172    168     37    547     6   127   137  0.378  0.392  0.401  0.420  0.407  0.366  0.250  0.330  0.000  0.000
 2002 084   108   198    173     37    581     6   127   137  0.468  0.436  0.442  0.459  0.431  0.374  0.249  0.328  0.000  0.000
 2002 085   109   219    175     39    607     6   127   137  0.469  0.436  0.446  0.481  0.447  0.399  0.264  0.342  0.000  0.000
 2002 086   110   217    175     42    610     6   127   137  0.434  0.437  0.439  0.460  0.447  0.398  0.270  0.355  0.000  0.000
 2002 087   111   196    175     60    610     6   127   137  0.411  0.417  0.422  0.442  0.428  0.383  0.260  0.344  0.000  0.000
 2002 088   112   185    175     68    610     6   127   137  0.396  0.406  0.412  0.432  0.418  0.376  0.255  0.338  0.000  0.000
 2002 089   113   182    175     70    610     6   127   137  0.393  0.402  0.409  0.428  0.414  0.375  0.253  0.337  0.000  0.000
 2002 090   114   206    175     70    638     6   127   137  0.466  0.436  0.442  0.459  0.445  0.380  0.257  0.339  0.000  0.000
 2002 091   115   190    175     83    638     6   127   137  0.422  0.415  0.422  0.440  0.426  0.374  0.253  0.335  0.000  0.000
 2002 092   116   182    175     87    638     6   127   137  0.398  0.405  0.412  0.430  0.416  0.371  0.252  0.333  0.000  0.000
 2002 093   117   177    175     87    638     6   127   137  0.385  0.399  0.407  0.425  0.411  0.370  0.251  0.333  0.000  0.000
 2002 094   118   173    175     87    638     6   127   137  0.375  0.395  0.403  0.422  0.408  0.367  0.250  0.330  0.000  0.000
 2002 095   119   170    175     87    638     6   127   137  0.365  0.390  0.400  0.419  0.405  0.365  0.249  0.328  0.000  0.000
 2002 096   120   166    175     87    638     6   127   137  0.358  0.386  0.397  0.417  0.403  0.363  0.248  0.326  0.000  0.000
 2002 097   121   182    175     87    655     6   127   137  0.437  0.435  0.426  0.431  0.406  0.362  0.247  0.325  0.000  0.000
 2002 098   122   178    175     87    655     6   127   137  0.404  0.415  0.415  0.426  0.411  0.370  0.246  0.323  0.000  0.000
 2002 099   123   174    175     87    655     6   127   137  0.384  0.405  0.408  0.424  0.410  0.370  0.245  0.320  0.000  0.000
 2002 100   124   186    175     87    668     6   127   137  0.436  0.435  0.431  0.437  0.416  0.371  0.245  0.319  0.000  0.000
 2002 101   125   190    175     87    674     6   127   137  0.432  0.437  0.437  0.446  0.423  0.374  0.246  0.319  0.000  0.000
 2002 102   126   189    175     87    675     6   127   137  0.415  0.424  0.429  0.446  0.427  0.376  0.250  0.318  0.000  0.000

*DSSAT Cropping System Model Ver. 4.0.2.000               Aug 12, 2016; 12:55:24

*RUN   3        : UYMZ                    
 MODEL          : MZCER040 - Maize           
 EXPERIMENT     : UYMZ0198 MZ    late to create DSS                             
 TREATMENT  1   : UYMZ                    

@YEAR DOY   DAS  SWXD   ROFC   DRNC   PREC  IR#C  IRRC  DTWT   SW1D   SW2D   SW3D   SW4D   SW5D   SW6D   SW7D   SW8D   SW9D   SW10
 2002 341     0   154      0      0      0     0     0   137  0.288  0.360  0.367  0.387  0.383  0.373  0.252  0.336  0.000  0.000
 2002 342     1   150      0      0      0     0     0   137  0.201  0.357  0.367  0.387  0.384  0.372  0.252  0.336  0.000  0.000
 2002 343     2   149      0      0      0     0     0   137  0.183  0.354  0.367  0.388  0.384  0.372  0.252  0.336  0.000  0.000
 2002 344     3   174      0      0      4     1    21   137  0.438  0.435  0.395  0.388  0.385  0.372  0.252  0.336  0.000  0.000
 2002 345     4   167      0      0      4     1    21   137  0.281  0.417  0.408  0.394  0.385  0.371  0.252  0.336  0.000  0.000
 2002 346     5   164      0      0      4     1    21   137  0.246  0.402  0.407  0.400  0.386  0.371  0.252  0.336  0.000  0.000
 2002 347     6   163      0      0      4     1    21   137  0.234  0.395  0.406  0.401  0.386  0.371  0.252  0.336  0.000  0.000
 2002 348     7   162      0      0      4     1    21   137  0.225  0.389  0.405  0.402  0.387  0.371  0.252  0.336  0.000  0.000
 2002 349     8   161      0      0      4     1    21   137  0.219  0.384  0.403  0.402  0.388  0.370  0.252  0.336  0.000  0.000
 2002 350     9   160      0      0      4     1    21   137  0.213  0.379  0.402  0.403  0.388  0.370  0.252  0.336  0.000  0.000
 2002 351    10   159      0      0      4     1    21   137  0.209  0.375  0.401  0.403  0.389  0.370  0.252  0.336  0.000  0.000
 2002 352    11   174      0      0     21     1    21   137  0.415  0.409  0.407  0.404  0.389  0.370  0.252  0.336  0.000  0.000
 2002 353    12   185      0      0     33     1    21   137  0.397  0.438  0.436  0.430  0.392  0.369  0.252  0.336  0.000  0.000
 2002 354    13   180      0      0     33     1    21   137  0.301  0.418  0.422  0.428  0.414  0.373  0.252  0.336  0.000  0.000
 2002 355    14   175      0      2     33     1    21   137  0.260  0.401  0.415  0.428  0.414  0.373  0.252  0.336  0.000  0.000
 2002 356    15   207     28      2     96     1    21   137  0.428  0.437  0.444  0.461  0.448  0.383  0.257  0.340  0.000  0.000
 2002 357    16   191     28     15     96     1    21   137  0.364  0.418  0.426  0.444  0.431  0.378  0.254  0.338  0.000  0.000
 2002 358    17   181     28     21     96     1    21   137  0.293  0.403  0.416  0.435  0.422  0.375  0.254  0.338  0.000  0.000
 2002 359    18   177     28     23     96     1    21   137  0.273  0.393  0.410  0.431  0.417  0.375  0.254  0.338  0.000  0.000
 2002 360    19   174     28     23     96     1    21   137  0.261  0.382  0.408  0.429  0.415  0.375  0.254  0.338  0.000  0.000
 2002 361    20   172     28     23     96     1    21   137  0.252  0.373  0.404  0.429  0.415  0.375  0.254  0.338  0.000  0.000
 2002 362    21   171     28     23     96     1    21   137  0.243  0.368  0.402  0.429  0.415  0.375  0.254  0.338  0.000  0.000
 2002 363    22   170     28     23     96     1    21   137  0.235  0.364  0.400  0.429  0.415  0.375  0.254  0.338  0.000  0.000
 2002 364    23   170     28     23     99     1    21   137  0.254  0.358  0.396  0.428  0.415  0.375  0.254  0.338  0.000  0.000
 2002 365    24   168     28     23     99     1    21   137  0.245  0.353  0.393  0.428  0.415  0.375  0.254  0.338  0.000  0.000
 2003 001    25   166     28     23     99     1    21   137  0.237  0.347  0.388  0.427  0.415  0.375  0.254  0.338  0.000  0.000
 2003 002    26   164     28     23     99     1    21   137  0.229  0.341  0.381  0.426  0.415  0.375  0.254  0.338  0.000  0.000
 2003 003    27   163     28     23     99     1    21   137  0.221  0.339  0.377  0.425  0.415  0.375  0.254  0.338  0.000  0.000
 2003 004    28   159     28     23     99     1    21   137  0.214  0.333  0.364  0.422  0.415  0.375  0.254  0.338  0.000  0.000
 2003 005    29   177     28     23     99     2    44   137  0.405  0.416  0.366  0.419  0.415  0.375  0.254  0.338  0.000  0.000
 2003 006    30   170     28     23     99     2    44   137  0.322  0.393  0.364  0.415  0.414  0.375  0.254  0.338  0.000  0.000
 2003 007    31   164     28     23     99     2    44   137  0.285  0.373  0.354  0.411  0.414  0.375  0.254  0.338  0.000  0.000
 2003 008    32   166     28     23    109     2    44   137  0.379  0.374  0.348  0.404  0.413  0.375  0.254  0.338  0.000  0.000
 2003 009    33   164     28     23    113     2    44   137  0.374  0.373  0.344  0.397  0.411  0.375  0.254  0.338  0.000  0.000
 2003 010    34   161     28     23    113     2    44   137  0.350  0.365  0.343  0.394  0.410  0.375  0.254  0.338  0.000  0.000
 2003 011    35   157     28     23    114     2    44   137  0.329  0.347  0.340  0.388  0.408  0.375  0.254  0.338  0.000  0.000
 2003 012    36   150     28     23    114     2    44   137  0.288  0.329  0.333  0.378  0.403  0.375  0.254  0.338  0.000  0.000
 2003 013    37   166     28     23    114     3    67   137  0.399  0.428  0.359  0.368  0.393  0.375  0.254  0.338  0.000  0.000
 2003 014    38   159     28     23    114     3    67   137  0.345  0.395  0.358  0.366  0.388  0.375  0.254  0.338  0.000  0.000
 2003 015    39   152     28     23    114     3    67   137  0.314  0.372  0.349  0.364  0.382  0.374  0.254  0.338  0.000  0.000
 2003 016    40   146     28     23    114     3    67   137  0.296  0.346  0.341  0.360  0.374  0.374  0.254  0.338  0.000  0.000
 2003 017    41   159     28     23    114     4    87   137  0.415  0.419  0.362  0.356  0.363  0.373  0.254  0.338  0.000  0.000
 2003 018    42   153     28     23    114     4    87   137  0.370  0.391  0.359  0.354  0.360  0.372  0.254  0.338  0.000  0.000
 2003 019    43   176     37     23    152     4    87   137  0.441  0.420  0.434  0.396  0.357  0.371  0.254  0.338  0.000  0.000
 2003 020    44   171     37     23    152     4    87   137  0.400  0.402  0.412  0.416  0.356  0.370  0.254  0.338  0.000  0.000
 2003 021    45   165     37     23    152     4    87   137  0.373  0.391  0.398  0.406  0.355  0.369  0.254  0.338  0.000  0.000
 2003 022    46   165     37     23    156     4    87   137  0.412  0.394  0.392  0.399  0.355  0.368  0.254  0.338  0.000  0.000
 2003 023    47   159     37     23    156     4    87   137  0.382  0.386  0.381  0.389  0.354  0.366  0.254  0.338  0.000  0.000
 2003 024    48   152     37     23    156     4    87   137  0.360  0.374  0.370  0.382  0.351  0.363  0.254  0.338  0.000  0.000
 2003 025    49   146     37     23    156     4    87   137  0.341  0.361  0.359  0.377  0.349  0.359  0.254  0.338  0.000  0.000
 2003 026    50   139     37     23    156     4    87   137  0.327  0.344  0.349  0.371  0.347  0.354  0.254  0.338  0.000  0.000
 2003 027    51   133     37     23    156     4    87   137  0.316  0.335  0.343  0.366  0.343  0.346  0.254  0.338  0.000  0.000
 2003 028    52   147     37     23    156     5   108   137  0.428  0.430  0.364  0.361  0.340  0.335  0.254  0.338  0.000  0.000
 2003 029    53   140     37     23    156     5   108   137  0.392  0.400  0.368  0.359  0.338  0.329  0.253  0.338  0.000  0.000
 2003 030    54   132     37     23    156     5   108   137  0.370  0.382  0.354  0.357  0.336  0.322  0.253  0.338  0.000  0.000
 2003 031    55   125     37     23    156     5   108   137  0.346  0.362  0.346  0.355  0.334  0.313  0.253  0.338  0.000  0.000
 2003 032    56   120     37     23    156     5   108   137  0.335  0.345  0.341  0.353  0.333  0.308  0.253  0.338  0.000  0.000
 2003 033    57   112     37     23    156     5   108   137  0.321  0.328  0.333  0.349  0.329  0.300  0.252  0.338  0.000  0.000
 2003 034    58   141     68     23    197     6   130   137  0.470  0.434  0.410  0.353  0.327  0.297  0.251  0.338  0.000  0.000
 2003 035    59   163    102     23    254     6   130   137  0.466  0.431  0.436  0.452  0.352  0.296  0.251  0.338  0.000  0.000
 2003 036    60   161    102     23    254     6   130   137  0.428  0.412  0.418  0.435  0.400  0.296  0.250  0.338  0.000  0.000
 2003 037    61   155    102     23    254     6   130   137  0.402  0.398  0.404  0.422  0.404  0.298  0.250  0.338  0.000  0.000
 2003 038    62   152    102     23    254     6   130   137  0.394  0.393  0.399  0.417  0.399  0.298  0.249  0.338  0.000  0.000
 2003 039    63   147    102     23    254     6   130   137  0.383  0.387  0.393  0.410  0.391  0.297  0.248  0.338  0.000  0.000
 2003 040    64   169    102     23    281     6   130   137  0.429  0.432  0.438  0.449  0.410  0.299  0.248  0.338  0.000  0.000
 2003 041    65   168    102     23    283     6   130   137  0.429  0.421  0.426  0.444  0.417  0.304  0.247  0.338  0.000  0.000
 2003 042    66   189    102     23    306     6   130   137  0.433  0.435  0.441  0.458  0.444  0.340  0.246  0.338  0.000  0.000
 2003 043    67   183    102     23    306     6   130   137  0.405  0.410  0.417  0.435  0.421  0.368  0.245  0.337  0.000  0.000
 2003 044    68   176    102     23    306     6   130   137  0.390  0.398  0.405  0.424  0.409  0.369  0.248  0.337  0.000  0.000
 2003 045    69   170    102     23    306     6   130   137  0.379  0.390  0.398  0.416  0.402  0.364  0.247  0.337  0.000  0.000
 2003 046    70   173    102     23    314     6   130   137  0.429  0.414  0.403  0.412  0.396  0.360  0.246  0.337  0.000  0.000
 2003 047    71   168    102     23    314     6   130   137  0.405  0.402  0.403  0.412  0.391  0.357  0.245  0.337  0.000  0.000
 2003 048    72   162    102     23    314     6   130   137  0.390  0.395  0.397  0.405  0.385  0.352  0.244  0.337  0.000  0.000
 2003 049    73   156    102     23    314     6   130   137  0.377  0.388  0.390  0.399  0.379  0.348  0.243  0.337  0.000  0.000
 2003 050    74   172    102     23    333     6   130   137  0.434  0.434  0.430  0.422  0.377  0.346  0.242  0.336  0.000  0.000
 2003 051    75   167    102     23    333     6   130   137  0.406  0.412  0.414  0.421  0.395  0.342  0.241  0.336  0.000  0.000
 2003 052    76   162    102     23    333     6   130   137  0.391  0.401  0.405  0.421  0.391  0.338  0.240  0.336  0.000  0.000
 2003 053    77   187    132     23    392     6   130   137  0.468  0.435  0.441  0.458  0.428  0.345  0.239  0.336  0.000  0.000
 2003 054    78   210    185     23    469     6   130   137  0.471  0.436  0.445  0.480  0.446  0.385  0.251  0.336  0.000  0.000
 2003 055    79   212    185     25    477     6   130   137  0.429  0.434  0.440  0.457  0.445  0.396  0.264  0.347  0.000  0.000
 2003 056    80   190    185     41    477     6   130   137  0.400  0.412  0.418  0.437  0.422  0.379  0.256  0.341  0.000  0.000
 2003 057    81   180    185     46    477     6   130   137  0.387  0.400  0.407  0.426  0.412  0.372  0.253  0.338  0.000  0.000
 2003 058    82   202    188     46    508     6   130   137  0.462  0.433  0.439  0.456  0.439  0.376  0.255  0.340  0.000  0.000
 2003 059    83   189    188     57    508     6   130   137  0.426  0.414  0.421  0.439  0.423  0.373  0.254  0.337  0.000  0.000
 2003 060    84   183    188     61    508     6   130   137  0.408  0.405  0.412  0.431  0.416  0.371  0.253  0.337  0.000  0.000
 2003 061    85   190    188     61    517     6   130   137  0.434  0.436  0.421  0.434  0.417  0.373  0.253  0.337  0.000  0.000
 2003 062    86   182    188     65    517     6   130   137  0.408  0.414  0.410  0.427  0.411  0.370  0.252  0.336  0.000  0.000
 2003 063    87   176    188     65    517     6   130   137  0.391  0.402  0.405  0.421  0.407  0.367  0.251  0.335  0.000  0.000
 2003 064    88   172    188     65    517     6   130   137  0.383  0.397  0.401  0.417  0.403  0.364  0.250  0.333  0.000  0.000
 2003 065    89   190    188     65    536     6   130   137  0.437  0.435  0.442  0.442  0.415  0.365  0.249  0.333  0.000  0.000
 2003 066    90   194    188     65    543     6   130   137  0.431  0.435  0.441  0.453  0.425  0.370  0.248  0.332  0.000  0.000
 2003 067    91   193    188     65    545     6   130   137  0.426  0.423  0.430  0.450  0.429  0.375  0.251  0.331  0.000  0.000
 2003 068    92   193    188     65    548     6   130   137  0.432  0.422  0.424  0.446  0.429  0.377  0.254  0.334  0.000  0.000
 2003 069    93   203    188     66    561     6   130   137  0.432  0.435  0.441  0.459  0.438  0.380  0.256  0.339  0.000  0.000
 2003 070    94   224    194     69    593     6   130   137  0.469  0.435  0.445  0.480  0.446  0.404  0.270  0.353  0.000  0.000
 2003 071    95   199    194     90    593     6   130   137  0.430  0.415  0.423  0.453  0.426  0.386  0.260  0.343  0.000  0.000
 2003 072    96   187    194     99    593     6   130   137  0.408  0.404  0.412  0.437  0.416  0.377  0.255  0.338  0.000  0.000
 2003 073    97   179    194    102    593     6   130   137  0.393  0.398  0.405  0.427  0.410  0.371  0.252  0.337  0.000  0.000
 2003 074    98   178    194    102    593     6   130   137  0.391  0.396  0.404  0.426  0.409  0.370  0.252  0.336  0.000  0.000
 2003 075    99   173    194    102    593     6   130   137  0.382  0.392  0.400  0.422  0.405  0.367  0.251  0.334  0.000  0.000
 2003 076   100   168    194    102    593     6   130   137  0.373  0.386  0.396  0.417  0.400  0.363  0.250  0.332  0.000  0.000
 2003 077   101   163    194    102    593     6   130   137  0.364  0.381  0.391  0.412  0.396  0.360  0.248  0.329  0.000  0.000
 2003 078   102   165    194    102    600     6   130   137  0.429  0.402  0.390  0.407  0.392  0.356  0.247  0.326  0.000  0.000
 2003 079   103   190    212    102    644     6   130   137  0.471  0.435  0.443  0.457  0.416  0.357  0.246  0.325  0.000  0.000
 2003 080   104   185    212    102    644     6   130   137  0.426  0.414  0.422  0.438  0.410  0.370  0.251  0.333  0.000  0.000
 2003 081   105   180    212    103    644     6   130   137  0.403  0.404  0.411  0.429  0.409  0.370  0.251  0.333  0.000  0.000
 2003 082   106   175    212    103    644     6   130   137  0.393  0.400  0.406  0.425  0.407  0.367  0.250  0.330  0.000  0.000
 2003 083   107   171    212    103    644     6   130   137  0.384  0.395  0.402  0.421  0.403  0.363  0.248  0.327  0.000  0.000
 2003 084   108   167    212    103    644     6   130   137  0.377  0.391  0.399  0.417  0.400  0.361  0.247  0.324  0.000  0.000
 2003 085   109   163    212    103    644     6   130   137  0.371  0.387  0.395  0.414  0.397  0.358  0.246  0.322  0.000  0.000
 2003 086   110   159    212    103    644     6   130   137  0.363  0.382  0.392  0.410  0.394  0.355  0.245  0.318  0.000  0.000
 2003 087   111   154    212    103    644     6   130   137  0.355  0.377  0.388  0.407  0.390  0.352  0.243  0.315  0.000  0.000
 2003 088   112   181    217    103    679     6   130   137  0.469  0.436  0.442  0.446  0.409  0.350  0.242  0.313  0.000  0.000
 2003 089   113   198    217    103    697     6   130   137  0.435  0.437  0.443  0.460  0.447  0.379  0.248  0.312  0.000  0.000
 2003 090   114   188    217    109    697     6   130   137  0.409  0.416  0.423  0.441  0.427  0.373  0.251  0.334  0.000  0.000
 2003 091   115   181    217    113    697     6   130   137  0.394  0.405  0.412  0.430  0.417  0.370  0.251  0.333  0.000  0.000
 2003 092   116   177    217    113    697     6   130   137  0.385  0.399  0.407  0.426  0.412  0.370  0.251  0.330  0.000  0.000
 2003 093   117   188    217    113    709     6   130   137  0.438  0.436  0.425  0.434  0.415  0.371  0.250  0.329  0.000  0.000
 2003 094   118   184    217    115    709     6   130   137  0.415  0.417  0.415  0.429  0.414  0.372  0.252  0.335  0.000  0.000
 2003 095   119   179    217    116    709     6   130   137  0.397  0.406  0.409  0.426  0.411  0.370  0.251  0.333  0.000  0.000
 2003 096   120   176    217    116    709     6   130   137  0.388  0.400  0.406  0.424  0.410  0.368  0.250  0.330  0.000  0.000
 2003 097   121   172    217    116    709     6   130   137  0.379  0.396  0.403  0.421  0.407  0.365  0.249  0.327  0.000  0.000
 2003 098   122   168    217    116    709     6   130   137  0.370  0.391  0.400  0.418  0.403  0.363  0.247  0.324  0.000  0.000
 2003 099   123   164    217    116    709     6   130   137  0.362  0.387  0.397  0.415  0.401  0.360  0.246  0.322  0.000  0.000
 2003 100   124   160    217    116    709     6   130   137  0.355  0.382  0.394  0.412  0.398  0.357  0.245  0.319  0.000  0.000
 2003 101   125   158    217    116    709     6   130   137  0.351  0.378  0.391  0.411  0.396  0.356  0.244  0.317  0.000  0.000
 2003 102   126   155    217    116    709     6   130   137  0.345  0.375  0.389  0.408  0.394  0.354  0.243  0.315  0.000  0.000
 2003 103   127   151    217    116    709     6   130   137  0.338  0.370  0.386  0.405  0.391  0.351  0.242  0.312  0.000  0.000
 2003 104   128   147    217    116    709     6   130   137  0.329  0.366  0.383  0.403  0.388  0.348  0.241  0.310  0.000  0.000
 2003 105   129   143    217    116    709     6   130   137  0.321  0.362  0.379  0.400  0.385  0.346  0.239  0.307  0.000  0.000
 2003 106   130   140    217    116    709     6   130   137  0.312  0.357  0.376  0.397  0.382  0.343  0.238  0.304  0.000  0.000
 2003 107   131   142    217    116    715     6   130   137  0.409  0.361  0.374  0.395  0.380  0.341  0.237  0.302  0.000  0.000
 2003 108   132   141    217    116    715     6   130   137  0.393  0.365  0.373  0.394  0.379  0.340  0.236  0.302  0.000  0.000
 2003 109   133   139    217    116    715     6   130   137  0.380  0.366  0.372  0.393  0.378  0.339  0.235  0.301  0.000  0.000
 2003 110   134   136    217    116    715     6   130   137  0.361  0.364  0.369  0.391  0.376  0.337  0.234  0.298  0.000  0.000
 2003 111   135   132    217    116    715     6   130   137  0.345  0.361  0.367  0.389  0.373  0.334  0.233  0.296  0.000  0.000
 2003 112   136   128    217    116    715     6   130   137  0.330  0.358  0.364  0.388  0.371  0.332  0.231  0.293  0.000  0.000
 2003 113   137   146    217    116    734     6   130   137  0.436  0.436  0.400  0.387  0.371  0.331  0.231  0.293  0.000  0.000

*DSSAT Cropping System Model Ver. 4.0.2.000               Aug 12, 2016; 12:55:24

*RUN   4        : UYMZ                    
 MODEL          : MZCER040 - Maize           
 EXPERIMENT     : UYMZ0198 MZ    late to create DSS                             
 TREATMENT  1   : UYMZ                    

@YEAR DOY   DAS  SWXD   ROFC   DRNC   PREC  IR#C  IRRC  DTWT   SW1D   SW2D   SW3D   SW4D   SW5D   SW6D   SW7D   SW8D   SW9D   SW10
 2003 341     0   153      0      0      0     0     0   137  0.265  0.360  0.367  0.387  0.383  0.373  0.252  0.336  0.000  0.000
 2003 342     1   157      0      0      7     0     0   137  0.338  0.357  0.367  0.387  0.384  0.372  0.252  0.336  0.000  0.000
 2003 343     2   151      0      0      7     0     0   137  0.235  0.356  0.367  0.388  0.384  0.372  0.252  0.336  0.000  0.000
 2003 344     3   155      0      0     14     0     0   137  0.323  0.353  0.367  0.388  0.385  0.372  0.252  0.336  0.000  0.000
 2003 345     4   152      0      0     14     0     0   137  0.257  0.352  0.367  0.388  0.385  0.371  0.252  0.336  0.000  0.000
 2003 346     5   150      0      0     14     0     0   137  0.219  0.350  0.366  0.388  0.386  0.371  0.252  0.336  0.000  0.000
 2003 347     6   168      0      0     14     1    20   137  0.401  0.420  0.381  0.389  0.386  0.371  0.252  0.336  0.000  0.000
 2003 348     7   163      0      0     14     1    20   137  0.291  0.409  0.388  0.389  0.386  0.370  0.252  0.336  0.000  0.000
 2003 349     8   184      0      0     37     1    20   137  0.405  0.430  0.443  0.424  0.387  0.370  0.252  0.336  0.000  0.000
 2003 350     9   178      0      0     37     1    20   137  0.295  0.415  0.425  0.426  0.412  0.370  0.252  0.336  0.000  0.000
 2003 351    10   175      0      1     37     1    20   137  0.266  0.401  0.417  0.427  0.413  0.373  0.252  0.336  0.000  0.000
 2003 352    11   173      0      2     37     1    20   137  0.255  0.394  0.412  0.427  0.413  0.373  0.252  0.336  0.000  0.000
 2003 353    12   172      0      2     37     1    20   137  0.247  0.388  0.409  0.427  0.413  0.373  0.252  0.336  0.000  0.000
 2003 354    13   171      0      2     37     1    20   137  0.241  0.383  0.408  0.427  0.413  0.373  0.252  0.336  0.000  0.000
 2003 355    14   203     32      2    105     1    20   137  0.411  0.439  0.443  0.461  0.440  0.380  0.255  0.339  0.000  0.000
 2003 356    15   189     32     13    105     1    20   137  0.340  0.419  0.426  0.444  0.426  0.376  0.254  0.339  0.000  0.000
 2003 357    16   181     32     18    105     1    20   137  0.289  0.404  0.417  0.435  0.420  0.375  0.254  0.339  0.000  0.000
 2003 358    17   177     32     20    105     1    20   137  0.275  0.395  0.412  0.431  0.416  0.375  0.254  0.339  0.000  0.000
 2003 359    18   175     32     21    105     1    20   137  0.266  0.387  0.409  0.429  0.415  0.375  0.254  0.339  0.000  0.000
 2003 360    19   174     32     21    105     1    20   137  0.259  0.380  0.407  0.429  0.415  0.375  0.254  0.339  0.000  0.000
 2003 361    20   192     32     21    126     1    20   137  0.407  0.433  0.427  0.438  0.419  0.375  0.254  0.339  0.000  0.000
 2003 362    21   183     32     26    126     1    20   137  0.327  0.415  0.416  0.433  0.416  0.375  0.254  0.338  0.000  0.000
 2003 363    22   176     32     28    126     1    20   137  0.268  0.398  0.410  0.430  0.415  0.375  0.254  0.338  0.000  0.000
 2003 364    23   174     32     28    126     1    20   137  0.253  0.387  0.407  0.430  0.415  0.375  0.254  0.338  0.000  0.000
 2003 365    24   172     32     28    126     1    20   137  0.242  0.377  0.402  0.430  0.415  0.375  0.254  0.338  0.000  0.000
 2004 001    25   170     32     28    126     1    20   137  0.232  0.368  0.397  0.429  0.415  0.375  0.254  0.338  0.000  0.000
 2004 002    26   167     32     28    126     1    20   137  0.223  0.360  0.392  0.429  0.415  0.375  0.254  0.338  0.000  0.000
 2004 003    27   165     32     28    126     1    20   137  0.215  0.350  0.385  0.428  0.415  0.375  0.254  0.338  0.000  0.000
 2004 004    28   163     32     28    126     1    20   137  0.206  0.345  0.379  0.427  0.415  0.375  0.254  0.338  0.000  0.000
 2004 005    29   160     32     28    126     1    20   137  0.198  0.339  0.370  0.425  0.415  0.375  0.254  0.338  0.000  0.000
 2004 006    30   178     32     28    126     2    42   137  0.421  0.413  0.370  0.423  0.414  0.375  0.254  0.338  0.000  0.000
 2004 007    31   180     32     28    133     2    42   137  0.374  0.427  0.389  0.421  0.414  0.375  0.254  0.338  0.000  0.000
 2004 008    32   173     32     28    133     2    42   137  0.306  0.399  0.388  0.419  0.414  0.375  0.254  0.338  0.000  0.000
 2004 009    33   167     32     28    133     2    42   137  0.264  0.381  0.378  0.416  0.414  0.375  0.254  0.338  0.000  0.000
 2004 010    34   163     32     28    133     2    42   137  0.245  0.365  0.368  0.412  0.413  0.375  0.254  0.338  0.000  0.000
 2004 011    35   158     32     28    133     2    42   137  0.231  0.349  0.356  0.407  0.412  0.375  0.254  0.338  0.000  0.000
 2004 012    36   174     32     28    133     3    63   137  0.408  0.419  0.369  0.401  0.410  0.375  0.254  0.338  0.000  0.000
 2004 013    37   169     32     28    133     3    63   137  0.364  0.398  0.368  0.397  0.408  0.375  0.254  0.338  0.000  0.000
 2004 014    38   162     32     28    133     3    63   137  0.320  0.380  0.356  0.391  0.405  0.375  0.254  0.338  0.000  0.000
 2004 015    39   157     32     28    133     3    63   137  0.308  0.362  0.350  0.386  0.402  0.375  0.254  0.338  0.000  0.000
 2004 016    40   151     32     28    133     3    63   137  0.278  0.341  0.344  0.380  0.396  0.375  0.254  0.338  0.000  0.000
 2004 017    41   169     32     28    133     4    85   137  0.427  0.431  0.365  0.377  0.392  0.375  0.254  0.338  0.000  0.000
 2004 018    42   166     32     28    133     4    85   137  0.395  0.408  0.375  0.376  0.389  0.374  0.254  0.338  0.000  0.000
 2004 019    43   166     32     28    136     4    85   137  0.410  0.402  0.377  0.375  0.387  0.374  0.254  0.338  0.000  0.000
 2004 020    44   162     32     28    136     4    85   137  0.383  0.392  0.371  0.374  0.384  0.374  0.254  0.338  0.000  0.000
 2004 021    45   156     32     28    136     4    85   137  0.351  0.377  0.358  0.371  0.379  0.373  0.254  0.338  0.000  0.000
 2004 022    46   150     32     28    136     4    85   137  0.326  0.359  0.350  0.368  0.372  0.372  0.254  0.338  0.000  0.000
 2004 023    47   144     32     28    136     4    85   137  0.311  0.339  0.343  0.364  0.365  0.371  0.254  0.338  0.000  0.000
 2004 024    48   158     32     28    136     5   105   137  0.422  0.426  0.362  0.359  0.356  0.368  0.254  0.338  0.000  0.000
 2004 025    49   152     32     28    136     5   105   137  0.382  0.396  0.364  0.357  0.352  0.366  0.254  0.338  0.000  0.000
 2004 026    50   145     32     28    136     5   105   137  0.356  0.377  0.352  0.355  0.349  0.362  0.254  0.338  0.000  0.000
 2004 027    51   139     32     28    136     5   105   137  0.341  0.357  0.345  0.353  0.346  0.356  0.254  0.338  0.000  0.000
 2004 028    52   135     32     28    136     5   105   137  0.332  0.346  0.342  0.352  0.344  0.352  0.254  0.338  0.000  0.000
 2004 029    53   128     32     28    136     5   105   137  0.316  0.332  0.335  0.350  0.340  0.342  0.254  0.338  0.000  0.000
 2004 030    54   142     32     28    136     6   127   137  0.426  0.430  0.363  0.347  0.336  0.328  0.253  0.338  0.000  0.000
 2004 031    55   164     59     28    189     6   127   137  0.461  0.427  0.438  0.420  0.335  0.324  0.253  0.338  0.000  0.000
 2004 032    56   158     59     28    189     6   127   137  0.415  0.405  0.414  0.417  0.362  0.319  0.253  0.338  0.000  0.000
 2004 033    57   157     59     28    194     6   127   137  0.425  0.414  0.410  0.418  0.359  0.316  0.253  0.338  0.000  0.000
 2004 034    58   168     59     28    207     6   127   137  0.433  0.435  0.437  0.435  0.371  0.315  0.252  0.338  0.000  0.000
 2004 035    59   163     59     28    207     6   127   137  0.405  0.411  0.415  0.423  0.402  0.312  0.252  0.338  0.000  0.000
 2004 036    60   156     59     28    207     6   127   137  0.388  0.397  0.403  0.418  0.396  0.310  0.251  0.338  0.000  0.000
 2004 037    61   150     59     28    207     6   127   137  0.376  0.387  0.394  0.409  0.387  0.308  0.251  0.338  0.000  0.000
 2004 038    62   144     59     28    207     6   127   137  0.365  0.378  0.386  0.401  0.379  0.306  0.250  0.338  0.000  0.000
 2004 039    63   138     59     28    207     6   127   137  0.353  0.369  0.377  0.392  0.370  0.305  0.249  0.338  0.000  0.000
 2004 040    64   132     59     28    207     6   127   137  0.343  0.359  0.367  0.386  0.363  0.303  0.247  0.337  0.000  0.000
 2004 041    65   125     59     28    207     6   127   137  0.335  0.347  0.357  0.380  0.358  0.301  0.244  0.337  0.000  0.000
 2004 042    66   119     59     28    207     6   127   137  0.326  0.338  0.348  0.374  0.352  0.298  0.241  0.337  0.000  0.000
 2004 043    67   113     59     28    207     6   127   137  0.319  0.331  0.342  0.368  0.347  0.295  0.235  0.337  0.000  0.000
 2004 044    68   143     62     28    221     7   147   137  0.473  0.437  0.418  0.378  0.345  0.294  0.234  0.337  0.000  0.000
 2004 045    69   139     62     28    221     7   147   137  0.427  0.412  0.405  0.405  0.344  0.293  0.232  0.336  0.000  0.000
 2004 046    70   133     62     28    221     7   147   137  0.399  0.397  0.398  0.400  0.343  0.292  0.229  0.336  0.000  0.000
 2004 047    71   128     62     28    222     7   147   137  0.391  0.391  0.390  0.392  0.342  0.291  0.226  0.335  0.000  0.000
 2004 048    72   124     62     28    222     7   147   137  0.380  0.383  0.383  0.387  0.342  0.290  0.224  0.335  0.000  0.000
 2004 049    73   120     62     28    222     7   147   137  0.369  0.375  0.375  0.383  0.341  0.289  0.222  0.335  0.000  0.000
 2004 050    74   114     62     28    222     7   147   137  0.355  0.365  0.366  0.378  0.340  0.288  0.219  0.334  0.000  0.000
 2004 051    75   109     62     28    222     7   147   137  0.341  0.354  0.357  0.374  0.338  0.287  0.215  0.334  0.000  0.000
 2004 052    76   103     62     28    222     7   147   137  0.331  0.342  0.349  0.370  0.336  0.286  0.211  0.333  0.000  0.000
 2004 053    77    99     62     28    222     7   147   137  0.324  0.335  0.344  0.366  0.335  0.284  0.206  0.333  0.000  0.000
 2004 054    78    93     62     28    222     7   147   137  0.315  0.329  0.338  0.361  0.332  0.282  0.199  0.332  0.000  0.000
 2004 055    79   110     62     28    222     8   169   137  0.431  0.433  0.364  0.358  0.330  0.280  0.192  0.331  0.000  0.000
 2004 056    80   104     62     28    222     8   169   137  0.397  0.402  0.371  0.356  0.329  0.279  0.188  0.331  0.000  0.000
 2004 057    81    98     62     28    222     8   169   137  0.380  0.388  0.359  0.355  0.328  0.278  0.185  0.330  0.000  0.000
 2004 058    82    93     62     28    222     8   169   137  0.361  0.372  0.351  0.354  0.327  0.277  0.182  0.329  0.000  0.000
 2004 059    83    88     62     28    222     8   169   137  0.344  0.357  0.346  0.352  0.326  0.276  0.179  0.328  0.000  0.000
 2004 060    84    83     62     28    222     8   169   137  0.333  0.342  0.341  0.351  0.325  0.275  0.177  0.326  0.000  0.000
 2004 061    85    78     62     28    222     8   169   137  0.321  0.331  0.335  0.348  0.323  0.274  0.174  0.321  0.000  0.000
 2004 062    86   107     72     28    242     9   191   137  0.470  0.435  0.413  0.355  0.322  0.273  0.173  0.316  0.000  0.000
 2004 063    87   101     72     28    242     9   191   137  0.416  0.406  0.397  0.380  0.322  0.272  0.172  0.312  0.000  0.000
 2004 064    88    96     72     28    242     9   191   137  0.392  0.392  0.390  0.376  0.321  0.272  0.171  0.306  0.000  0.000
 2004 065    89    90     72     28    242     9   191   137  0.375  0.381  0.380  0.373  0.321  0.271  0.171  0.299  0.000  0.000
 2004 066    90    94     72     28    250     9   191   137  0.426  0.407  0.381  0.371  0.321  0.271  0.170  0.293  0.000  0.000
 2004 067    91    94     72     28    252     9   191   137  0.429  0.408  0.386  0.370  0.321  0.271  0.170  0.290  0.000  0.000
 2004 068    92    91     72     28    252     9   191   137  0.406  0.398  0.388  0.370  0.321  0.270  0.170  0.286  0.000  0.000
 2004 069    93    86     72     28    252     9   191   137  0.386  0.389  0.378  0.368  0.321  0.270  0.169  0.277  0.000  0.000
 2004 070    94    82     72     28    252     9   191   137  0.376  0.382  0.372  0.366  0.321  0.270  0.169  0.271  0.000  0.000
 2004 071    95    78     72     28    252     9   191   137  0.364  0.373  0.364  0.365  0.321  0.269  0.168  0.264  0.000  0.000
 2004 072    96    74     72     28    252     9   191   137  0.354  0.365  0.359  0.364  0.321  0.269  0.168  0.258  0.000  0.000
 2004 073    97    72     72     28    252     9   191   137  0.349  0.359  0.356  0.363  0.321  0.269  0.168  0.253  0.000  0.000
 2004 074    98    68     72     28    252     9   191   137  0.340  0.350  0.352  0.361  0.320  0.268  0.167  0.247  0.000  0.000
 2004 075    99    64     72     28    252     9   191   137  0.329  0.339  0.345  0.358  0.320  0.268  0.166  0.240  0.000  0.000
 2004 076   100    58     72     28    252     9   191   137  0.317  0.329  0.337  0.354  0.318  0.266  0.165  0.233  0.000  0.000
 2004 077   101    74     72     28    252    10   212   137  0.428  0.430  0.361  0.350  0.317  0.265  0.163  0.227  0.000  0.000
 2004 078   102    71     72     28    252    10   212   137  0.399  0.403  0.369  0.349  0.316  0.265  0.162  0.226  0.000  0.000
 2004 079   103    66     72     28    252    10   212   137  0.383  0.389  0.358  0.349  0.316  0.264  0.162  0.225  0.000  0.000
 2004 080   104    62     72     28    252    10   212   137  0.363  0.373  0.350  0.347  0.315  0.264  0.161  0.224  0.000  0.000
 2004 081   105    57     72     28    252    10   212   137  0.342  0.355  0.344  0.346  0.315  0.263  0.161  0.222  0.000  0.000
 2004 082   106    52     72     28    252    10   212   137  0.327  0.335  0.338  0.344  0.314  0.262  0.160  0.221  0.000  0.000
 2004 083   107    68     72     28    252    11   233   137  0.424  0.426  0.362  0.342  0.312  0.261  0.159  0.218  0.000  0.000
 2004 084   108    63     72     28    252    11   233   137  0.391  0.397  0.364  0.341  0.312  0.261  0.158  0.217  0.000  0.000
 2004 085   109    58     72     28    252    11   233   137  0.370  0.379  0.353  0.340  0.311  0.260  0.158  0.217  0.000  0.000
 2004 086   110    53     72     28    252    11   233   137  0.346  0.360  0.345  0.340  0.311  0.260  0.157  0.216  0.000  0.000
 2004 087   111    49     72     28    252    11   233   137  0.332  0.341  0.340  0.339  0.310  0.259  0.157  0.215  0.000  0.000
 2004 088   112    45     72     28    252    11   233   137  0.318  0.328  0.333  0.337  0.309  0.258  0.156  0.214  0.000  0.000
 2004 089   113    63     72     28    252    12   255   137  0.426  0.428  0.360  0.335  0.308  0.257  0.155  0.212  0.000  0.000
 2004 090   114    59     72     28    252    12   255   137  0.392  0.399  0.365  0.334  0.307  0.257  0.154  0.211  0.000  0.000
 2004 091   115    55     72     28    252    12   255   137  0.377  0.386  0.357  0.334  0.307  0.257  0.154  0.211  0.000  0.000
 2004 092   116    53     72     28    252    12   255   137  0.365  0.375  0.353  0.334  0.307  0.256  0.154  0.211  0.000  0.000
 2004 093   117    50     72     28    252    12   255   137  0.351  0.364  0.349  0.334  0.307  0.256  0.154  0.210  0.000  0.000
 2004 094   118    46     72     28    252    12   255   137  0.332  0.346  0.343  0.334  0.306  0.256  0.153  0.210  0.000  0.000
 2004 095   119    42     72     28    252    12   255   137  0.317  0.331  0.335  0.333  0.305  0.255  0.153  0.209  0.000  0.000
 2004 096   120    59     72     28    252    13   277   137  0.424  0.428  0.360  0.331  0.304  0.254  0.152  0.208  0.000  0.000
 2004 097   121    55     72     28    252    13   277   137  0.390  0.399  0.365  0.331  0.304  0.254  0.152  0.207  0.000  0.000
 2004 098   122    53     72     28    252    13   277   137  0.377  0.388  0.359  0.331  0.304  0.254  0.151  0.207  0.000  0.000
 2004 099   123    48     72     28    252    13   277   137  0.352  0.371  0.350  0.331  0.304  0.254  0.151  0.207  0.000  0.000
 2004 100   124    46     72     28    252    13   277   137  0.341  0.360  0.347  0.331  0.303  0.254  0.151  0.207  0.000  0.000
 2004 101   125    43     72     28    252    13   277   137  0.330  0.346  0.343  0.331  0.303  0.253  0.151  0.206  0.000  0.000
 2004 102   126    39     72     28    252    13   277   137  0.312  0.331  0.335  0.330  0.303  0.253  0.150  0.206  0.000  0.000
 2004 103   127    56     72     28    252    14   299   137  0.421  0.427  0.360  0.328  0.302  0.252  0.150  0.205  0.000  0.000
 2004 104   128    52     72     28    252    14   299   137  0.380  0.397  0.363  0.328  0.301  0.252  0.149  0.205  0.000  0.000
 2004 105   129    48     72     28    252    14   299   137  0.358  0.382  0.355  0.329  0.301  0.252  0.149  0.204  0.000  0.000

*DSSAT Cropping System Model Ver. 4.0.2.000               Aug 12, 2016; 12:55:24

*RUN   5        : UYMZ                    
 MODEL          : MZCER040 - Maize           
 EXPERIMENT     : UYMZ0198 MZ    late to create DSS                             
 TREATMENT  1   : UYMZ                    

@YEAR DOY   DAS  SWXD   ROFC   DRNC   PREC  IR#C  IRRC  DTWT   SW1D   SW2D   SW3D   SW4D   SW5D   SW6D   SW7D   SW8D   SW9D   SW10
 2004 341     0   153      0      0      0     0     0   137  0.267  0.360  0.367  0.387  0.383  0.373  0.252  0.336  0.000  0.000
 2004 342     1   160      0      0     10     0     0   137  0.386  0.371  0.367  0.387  0.384  0.372  0.252  0.336  0.000  0.000
 2004 343     2   156      0      0     10     0     0   137  0.299  0.372  0.367  0.388  0.384  0.372  0.252  0.336  0.000  0.000
 2004 344     3   153      0      0     10     0     0   137  0.249  0.368  0.367  0.388  0.385  0.372  0.252  0.336  0.000  0.000
 2004 345     4   152      0      0     10     0     0   137  0.228  0.364  0.368  0.388  0.385  0.371  0.252  0.336  0.000  0.000
 2004 346     5   151      0      0     10     0     0   137  0.213  0.360  0.368  0.388  0.386  0.371  0.252  0.336  0.000  0.000
 2004 347     6   150      0      0     10     0     0   137  0.201  0.357  0.368  0.389  0.386  0.371  0.252  0.336  0.000  0.000
 2004 348     7   169      0      0     10     1    20   137  0.420  0.419  0.381  0.389  0.386  0.370  0.252  0.336  0.000  0.000
 2004 349     8   163      0      0     10     1    20   137  0.290  0.408  0.391  0.389  0.387  0.370  0.252  0.336  0.000  0.000
 2004 350     9   180      0      0     33     1    20   137  0.341  0.430  0.442  0.424  0.387  0.370  0.252  0.336  0.000  0.000
 2004 351    10   176      0      0     33     1    20   137  0.273  0.410  0.425  0.426  0.411  0.370  0.252  0.336  0.000  0.000
 2004 352    11   175      0      0     33     1    20   137  0.259  0.398  0.416  0.427  0.413  0.373  0.252  0.336  0.000  0.000
 2004 353    12   173      0      1     33     1    20   137  0.252  0.391  0.412  0.427  0.413  0.373  0.252  0.336  0.000  0.000
 2004 354    13   175      0      1     39     1    20   137  0.310  0.386  0.409  0.429  0.413  0.373  0.252  0.336  0.000  0.000
 2004 355    14   174      0      1     39     1    20   137  0.291  0.382  0.408  0.429  0.413  0.373  0.252  0.336  0.000  0.000
 2004 356    15   173      0      1     39     1    20   137  0.279  0.378  0.407  0.429  0.413  0.373  0.252  0.336  0.000  0.000
 2004 357    16   172      0      1     39     1    20   137  0.270  0.374  0.406  0.429  0.413  0.373  0.252  0.336  0.000  0.000
 2004 358    17   171      0      1     39     1    20   137  0.263  0.370  0.405  0.429  0.413  0.373  0.252  0.336  0.000  0.000
 2004 359    18   182      0      1     54     1    20   137  0.360  0.415  0.411  0.430  0.415  0.374  0.252  0.336  0.000  0.000
 2004 360    19   175      0      2     54     1    20   137  0.269  0.402  0.409  0.430  0.415  0.374  0.252  0.336  0.000  0.000
 2004 361    20   173      0      2     54     1    20   137  0.254  0.392  0.408  0.430  0.415  0.374  0.252  0.336  0.000  0.000
 2004 362    21   172      0      2     54     1    20   137  0.243  0.383  0.406  0.430  0.415  0.374  0.252  0.336  0.000  0.000
 2004 363    22   170      0      2     54     1    20   137  0.235  0.375  0.404  0.430  0.415  0.374  0.252  0.336  0.000  0.000
 2004 364    23   169      0      2     54     1    20   137  0.227  0.369  0.402  0.430  0.415  0.374  0.252  0.336  0.000  0.000
 2004 365    24   167      0      2     54     1    20   137  0.220  0.361  0.398  0.429  0.415  0.374  0.252  0.336  0.000  0.000
 2004 366    25   165      0      2     54     1    20   137  0.212  0.352  0.393  0.429  0.415  0.374  0.252  0.336  0.000  0.000
 2005 001    26   163      0      2     54     1    20   137  0.205  0.345  0.387  0.428  0.415  0.374  0.252  0.336  0.000  0.000
 2005 002    27   161      0      2     54     1    20   137  0.197  0.339  0.379  0.427  0.415  0.374  0.252  0.336  0.000  0.000
 2005 003    28   196     37      2    108     2    41   137  0.454  0.436  0.435  0.442  0.422  0.376  0.255  0.336  0.000  0.000
 2005 004    29   182     37      9    108     2    41   137  0.323  0.408  0.414  0.434  0.417  0.376  0.255  0.336  0.000  0.000
 2005 005    30   174     37     10    108     2    41   137  0.269  0.386  0.401  0.429  0.415  0.376  0.255  0.336  0.000  0.000
 2005 006    31   169     37     10    108     2    41   137  0.251  0.368  0.390  0.428  0.415  0.376  0.255  0.336  0.000  0.000
 2005 007    32   164     37     10    108     2    41   137  0.237  0.351  0.376  0.424  0.415  0.376  0.255  0.336  0.000  0.000
 2005 008    33   170     37     10    120     2    41   137  0.387  0.361  0.365  0.420  0.415  0.376  0.255  0.336  0.000  0.000
 2005 009    34   168     37     10    120     2    41   137  0.359  0.357  0.361  0.418  0.415  0.376  0.255  0.336  0.000  0.000
 2005 010    35   162     37     10    120     2    41   137  0.311  0.344  0.352  0.413  0.414  0.376  0.255  0.336  0.000  0.000
 2005 011    36   155     37     10    120     2    41   137  0.266  0.331  0.342  0.403  0.412  0.376  0.255  0.336  0.000  0.000
 2005 012    37   170     37     10    120     3    64   137  0.393  0.427  0.358  0.387  0.407  0.376  0.255  0.336  0.000  0.000
 2005 013    38   164     37     10    120     3    64   137  0.352  0.396  0.359  0.384  0.404  0.376  0.255  0.336  0.000  0.000
 2005 014    39   157     37     10    120     3    64   137  0.312  0.372  0.349  0.381  0.400  0.375  0.255  0.336  0.000  0.000
 2005 015    40   153     37     10    120     3    64   137  0.304  0.352  0.344  0.378  0.396  0.375  0.255  0.336  0.000  0.000
 2005 016    41   146     37     10    120     3    64   137  0.280  0.330  0.336  0.372  0.389  0.375  0.255  0.336  0.000  0.000
 2005 017    42   162     37     10    120     4    87   137  0.414  0.427  0.358  0.364  0.374  0.374  0.255  0.336  0.000  0.000
 2005 018    43   155     37     10    120     4    87   137  0.364  0.392  0.358  0.361  0.368  0.373  0.255  0.336  0.000  0.000
 2005 019    44   148     37     10    120     4    87   137  0.330  0.370  0.348  0.359  0.364  0.372  0.255  0.336  0.000  0.000
 2005 020    45   142     37     10    120     4    87   137  0.313  0.344  0.340  0.356  0.358  0.370  0.255  0.336  0.000  0.000
 2005 021    46   155     37     10    120     5   107   137  0.421  0.421  0.363  0.352  0.350  0.367  0.255  0.336  0.000  0.000
 2005 022    47   149     37     10    120     5   107   137  0.379  0.392  0.361  0.351  0.347  0.364  0.255  0.336  0.000  0.000
 2005 023    48   141     37     10    120     5   107   137  0.345  0.370  0.348  0.349  0.343  0.360  0.254  0.336  0.000  0.000
 2005 024    49   134     37     10    120     5   107   137  0.324  0.346  0.341  0.348  0.340  0.355  0.254  0.336  0.000  0.000
 2005 025    50   127     37     10    120     5   107   137  0.311  0.330  0.334  0.345  0.337  0.347  0.254  0.336  0.000  0.000
 2005 026    51   143     37     10    120     6   129   137  0.427  0.430  0.362  0.343  0.333  0.337  0.254  0.336  0.000  0.000
 2005 027    52   137     37     10    120     6   129   137  0.389  0.398  0.366  0.342  0.332  0.331  0.254  0.336  0.000  0.000
 2005 028    53   130     37     10    120     6   129   137  0.368  0.381  0.354  0.342  0.331  0.325  0.254  0.336  0.000  0.000
 2005 029    54   123     37     10    120     6   129   137  0.343  0.361  0.346  0.341  0.329  0.317  0.253  0.336  0.000  0.000
 2005 030    55   131     37     10    130     6   129   137  0.435  0.400  0.348  0.341  0.329  0.315  0.253  0.336  0.000  0.000
 2005 031    56   155     39     10    158     6   129   137  0.467  0.431  0.443  0.380  0.329  0.314  0.253  0.336  0.000  0.000
 2005 032    57   151     39     10    158     6   129   137  0.420  0.407  0.415  0.416  0.329  0.311  0.252  0.336  0.000  0.000
 2005 033    58   145     39     10    158     6   129   137  0.394  0.394  0.401  0.414  0.329  0.308  0.252  0.336  0.000  0.000
 2005 034    59   139     39     10    158     6   129   137  0.377  0.383  0.390  0.402  0.330  0.306  0.251  0.336  0.000  0.000
 2005 035    60   133     39     10    158     6   129   137  0.362  0.373  0.380  0.391  0.330  0.304  0.250  0.336  0.000  0.000
 2005 036    61   126     39     10    158     6   129   137  0.345  0.360  0.368  0.383  0.329  0.301  0.249  0.336  0.000  0.000
 2005 037    62   120     39     10    158     6   129   137  0.335  0.346  0.355  0.377  0.329  0.299  0.248  0.336  0.000  0.000
 2005 038    63   118     39     10    158     6   129   137  0.333  0.342  0.352  0.374  0.329  0.298  0.247  0.336  0.000  0.000
 2005 039    64   138     39     10    179     6   129   137  0.435  0.435  0.392  0.371  0.329  0.297  0.246  0.336  0.000  0.000
 2005 040    65   136     39     10    180     6   129   137  0.419  0.417  0.401  0.370  0.328  0.297  0.245  0.335  0.000  0.000
 2005 041    66   130     39     10    180     6   129   137  0.390  0.394  0.393  0.369  0.328  0.295  0.243  0.335  0.000  0.000
 2005 042    67   129     39     10    184     6   129   137  0.421  0.395  0.386  0.368  0.327  0.294  0.242  0.335  0.000  0.000
 2005 043    68   126     39     10    185     6   129   137  0.408  0.393  0.377  0.366  0.327  0.293  0.240  0.335  0.000  0.000
 2005 044    69   120     39     10    185     6   129   137  0.385  0.382  0.365  0.363  0.326  0.291  0.239  0.335  0.000  0.000
 2005 045    70   116     39     10    185     6   129   137  0.368  0.370  0.355  0.361  0.325  0.290  0.237  0.335  0.000  0.000
[...]
 2010 087   111    99    250    179    803     2    43   137  0.347  0.369  0.377  0.386  0.344  0.288  0.205  0.251  0.000  0.000
 2010 088   112    95    250    179    803     2    43   137  0.338  0.361  0.370  0.382  0.343  0.287  0.202  0.247  0.000  0.000
 2010 089   113    91    250    179    803     2    43   137  0.331  0.353  0.363  0.379  0.342  0.287  0.199  0.244  0.000  0.000
 2010 090   114    86    250    179    803     2    43   137  0.322  0.346  0.357  0.376  0.341  0.285  0.196  0.241  0.000  0.000
 2010 091   115    82    250    179    803     2    43   137  0.314  0.340  0.351  0.372  0.340  0.284  0.193  0.239  0.000  0.000
 2010 092   116    80    250    179    805     2    43   137  0.347  0.336  0.347  0.369  0.338  0.283  0.189  0.237  0.000  0.000
 2010 093   117    79    250    179    805     2    43   137  0.341  0.335  0.346  0.368  0.338  0.283  0.188  0.236  0.000  0.000
 2010 094   118    75    250    179    805     2    43   137  0.326  0.333  0.343  0.366  0.337  0.282  0.184  0.234  0.000  0.000
 2010 095   119    91    250    179    805     3    64   137  0.426  0.435  0.367  0.363  0.335  0.280  0.181  0.232  0.000  0.000
 2010 096   120    88    250    179    805     3    64   137  0.397  0.409  0.377  0.362  0.334  0.280  0.180  0.231  0.000  0.000
 2010 097   121    83    250    179    805     3    64   137  0.377  0.394  0.372  0.361  0.333  0.279  0.179  0.230  0.000  0.000
 2010 098   122    81    250    179    805     3    64   137  0.370  0.387  0.368  0.361  0.333  0.279  0.178  0.229  0.000  0.000
 2010 099   123    77    250    179    805     3    64   137  0.353  0.377  0.361  0.360  0.332  0.278  0.177  0.228  0.000  0.000
 2010 100   124    73    250    179    805     3    64   137  0.336  0.366  0.355  0.358  0.331  0.277  0.176  0.227  0.000  0.000
 2010 101   125    70    250    179    805     3    64   137  0.322  0.353  0.350  0.357  0.330  0.276  0.174  0.226  0.000  0.000
 2010 102   126    66    250    179    805     3    64   137  0.309  0.343  0.345  0.355  0.329  0.276  0.173  0.225  0.000  0.000
 2010 103   127    63    250    179    805     3    64   137  0.296  0.335  0.341  0.354  0.328  0.275  0.172  0.224  0.000  0.000
 2010 104   128    89    250    179    811     4    85   137  0.435  0.435  0.407  0.353  0.328  0.274  0.171  0.224  0.000  0.000
 2010 105   129    87    250    179    811     4    85   137  0.408  0.415  0.404  0.370  0.327  0.274  0.171  0.223  0.000  0.000
 2010 106   130    85    250    179    812     4    85   137  0.392  0.405  0.403  0.369  0.327  0.274  0.171  0.223  0.000  0.000
 2010 107   131    84    250    179    813     4    85   137  0.398  0.400  0.401  0.370  0.327  0.274  0.170  0.223  0.000  0.000
 2010 108   132    82    250    179    814     4    85   137  0.387  0.397  0.394  0.369  0.327  0.273  0.170  0.222  0.000  0.000

*DSSAT Cropping System Model Ver. 4.0.2.000               Aug 12, 2016; 12:55:24

*RUN  11        : UYMZ                    
 MODEL          : MZCER040 - Maize           
 EXPERIMENT     : UYMZ0198 MZ    late to create DSS                             
 TREATMENT  1   : UYMZ                    

@YEAR DOY   DAS  SWXD   ROFC   DRNC   PREC  IR#C  IRRC  DTWT   SW1D   SW2D   SW3D   SW4D   SW5D   SW6D   SW7D   SW8D   SW9D   SW10
 2010 341     0   151      0      0      0     0     0   137  0.229  0.360  0.367  0.387  0.383  0.373  0.252  0.336  0.000  0.000
 2010 342     1   149      0      0      0     0     0   137  0.186  0.357  0.367  0.387  0.384  0.372  0.252  0.336  0.000  0.000
 2010 343     2   149      0      0      0     0     0   137  0.183  0.354  0.367  0.388  0.384  0.372  0.252  0.336  0.000  0.000
 2010 344     3   171      0      0      2     1    21   137  0.438  0.426  0.385  0.388  0.385  0.372  0.252  0.336  0.000  0.000
 2010 345     4   169      0      0      3     1    21   137  0.351  0.421  0.400  0.389  0.385  0.371  0.252  0.336  0.000  0.000
 2010 346     5   168      0      0      5     1    21   137  0.353  0.406  0.406  0.390  0.386  0.371  0.252  0.336  0.000  0.000
 2010 347     6   164      0      0      5     1    21   137  0.269  0.399  0.407  0.391  0.386  0.371  0.252  0.336  0.000  0.000
 2010 348     7   162      0      0      5     1    21   137  0.253  0.392  0.405  0.392  0.386  0.370  0.252  0.336  0.000  0.000
 2010 349     8   161      0      0      5     1    21   137  0.243  0.386  0.404  0.393  0.387  0.370  0.252  0.336  0.000  0.000
 2010 350     9   160      0      0      5     1    21   137  0.235  0.382  0.402  0.394  0.387  0.370  0.252  0.336  0.000  0.000
 2010 351    10   165      0      0     13     1    21   137  0.347  0.377  0.401  0.395  0.388  0.370  0.252  0.336  0.000  0.000
 2010 352    11   167      0      0     21     1    21   137  0.332  0.405  0.403  0.396  0.388  0.369  0.252  0.336  0.000  0.000
 2010 353    12   173      0      0     29     1    21   137  0.406  0.410  0.410  0.400  0.388  0.369  0.252  0.336  0.000  0.000
 2010 354    13   169      0      0     29     1    21   137  0.318  0.405  0.409  0.405  0.389  0.369  0.252  0.336  0.000  0.000
 2010 355    14   166      0      0     29     1    21   137  0.268  0.395  0.408  0.407  0.389  0.369  0.252  0.336  0.000  0.000
 2010 356    15   164      0      0     29     1    21   137  0.253  0.386  0.406  0.407  0.390  0.369  0.252  0.336  0.000  0.000
 2010 357    16   162      0      0     29     1    21   137  0.242  0.378  0.404  0.408  0.390  0.368  0.252  0.336  0.000  0.000
 2010 358    17   196     45      0    110     1    21   137  0.433  0.438  0.442  0.458  0.417  0.370  0.252  0.336  0.000  0.000
 2010 359    18   182     45      7    110     1    21   137  0.300  0.415  0.423  0.442  0.415  0.373  0.252  0.336  0.000  0.000
 2010 360    19   176     45     10    110     1    21   137  0.271  0.395  0.412  0.435  0.415  0.373  0.252  0.336  0.000  0.000
 2010 361    20   172     45     11    110     1    21   137  0.258  0.382  0.405  0.431  0.415  0.373  0.252  0.336  0.000  0.000
 2010 362    21   169     45     11    110     1    21   137  0.247  0.370  0.399  0.429  0.415  0.373  0.252  0.336  0.000  0.000
 2010 363    22   167     45     11    110     1    21   137  0.238  0.360  0.393  0.428  0.415  0.373  0.252  0.336  0.000  0.000
 2010 364    23   164     45     11    110     1    21   137  0.228  0.349  0.386  0.427  0.415  0.373  0.252  0.336  0.000  0.000
 2010 365    24   161     45     11    110     1    21   137  0.219  0.341  0.376  0.426  0.415  0.373  0.252  0.336  0.000  0.000
 2011 001    25   158     45     11    110     1    21   137  0.209  0.336  0.368  0.424  0.415  0.373  0.252  0.336  0.000  0.000
 2011 002    26   177     45     11    110     2    43   137  0.409  0.416  0.374  0.422  0.415  0.373  0.252  0.336  0.000  0.000
 2011 003    27   177     45     11    112     2    43   137  0.402  0.410  0.382  0.421  0.415  0.373  0.252  0.336  0.000  0.000
 2011 004    28   173     45     11    112     2    43   137  0.358  0.397  0.380  0.419  0.414  0.373  0.252  0.336  0.000  0.000
 2011 005    29   170     45     11    112     2    43   137  0.328  0.386  0.375  0.418  0.414  0.373  0.252  0.336  0.000  0.000
 2011 006    30   163     45     11    112     2    43   137  0.288  0.367  0.362  0.414  0.414  0.373  0.252  0.336  0.000  0.000
 2011 007    31   156     45     11    112     2    43   137  0.250  0.345  0.350  0.409  0.412  0.373  0.252  0.336  0.000  0.000
 2011 008    32   172     45     11    112     3    65   137  0.398  0.420  0.364  0.401  0.410  0.373  0.252  0.336  0.000  0.000
 2011 009    33   165     45     11    112     3    65   137  0.356  0.394  0.360  0.395  0.408  0.373  0.252  0.336  0.000  0.000
 2011 010    34   181     45     11    131     3    65   137  0.425  0.426  0.417  0.405  0.406  0.373  0.252  0.336  0.000  0.000
 2011 011    35   180     45     11    133     3    65   137  0.407  0.414  0.412  0.414  0.405  0.373  0.252  0.336  0.000  0.000
 2011 012    36   202     52     12    166     3    65   137  0.449  0.429  0.435  0.457  0.439  0.380  0.255  0.339  0.000  0.000
 2011 013    37   185     52     22    166     3    65   137  0.390  0.403  0.409  0.435  0.423  0.376  0.254  0.338  0.000  0.000
 2011 014    38   176     52     24    166     3    65   137  0.355  0.389  0.396  0.423  0.415  0.375  0.254  0.338  0.000  0.000
 2011 015    39   173     52     24    170     3    65   137  0.386  0.381  0.382  0.413  0.410  0.374  0.254  0.338  0.000  0.000
 2011 016    40   168     52     24    170     3    65   137  0.362  0.372  0.374  0.406  0.406  0.374  0.254  0.338  0.000  0.000
 2011 017    41   163     52     24    170     3    65   137  0.342  0.363  0.367  0.399  0.402  0.374  0.254  0.338  0.000  0.000
 2011 018    42   156     52     24    170     3    65   137  0.324  0.350  0.356  0.389  0.396  0.373  0.254  0.338  0.000  0.000
 2011 019    43   151     52     24    171     3    65   137  0.329  0.338  0.347  0.379  0.385  0.371  0.254  0.338  0.000  0.000
 2011 020    44   144     52     24    171     3    65   137  0.312  0.331  0.341  0.372  0.370  0.368  0.254  0.338  0.000  0.000
 2011 021    45   159     52     24    171     4    86   137  0.426  0.432  0.363  0.365  0.356  0.363  0.254  0.338  0.000  0.000
 2011 022    46   152     52     24    171     4    86   137  0.390  0.401  0.369  0.363  0.352  0.359  0.254  0.338  0.000  0.000
 2011 023    47   145     52     24    171     4    86   137  0.369  0.384  0.356  0.361  0.349  0.354  0.253  0.338  0.000  0.000
 2011 024    48   139     52     24    171     4    86   137  0.350  0.367  0.349  0.359  0.346  0.349  0.253  0.338  0.000  0.000
 2011 025    49   155     52     24    193     4    86   137  0.424  0.421  0.408  0.362  0.344  0.343  0.253  0.338  0.000  0.000
 2011 026    50   153     52     24    193     4    86   137  0.405  0.406  0.401  0.372  0.343  0.341  0.253  0.338  0.000  0.000
 2011 027    51   148     52     24    193     4    86   137  0.388  0.393  0.393  0.371  0.342  0.337  0.253  0.338  0.000  0.000
 2011 028    52   142     52     24    193     4    86   137  0.371  0.380  0.380  0.368  0.341  0.333  0.252  0.338  0.000  0.000
 2011 029    53   135     52     24    193     4    86   137  0.355  0.367  0.367  0.366  0.339  0.328  0.252  0.338  0.000  0.000
 2011 030    54   133     52     24    193     4    86   137  0.349  0.360  0.362  0.365  0.339  0.326  0.252  0.338  0.000  0.000
 2011 031    55   131     52     24    193     4    86   137  0.346  0.355  0.358  0.364  0.339  0.324  0.251  0.338  0.000  0.000
 2011 032    56   126     52     24    193     4    86   137  0.337  0.344  0.351  0.362  0.337  0.320  0.251  0.337  0.000  0.000
 2011 033    57   119     52     24    193     4    86   137  0.325  0.334  0.342  0.358  0.335  0.312  0.250  0.337  0.000  0.000
 2011 034    58   144     52     24    204     5   106   137  0.462  0.430  0.413  0.366  0.331  0.304  0.246  0.337  0.000  0.000
 2011 035    59   139     52     24    204     5   106   137  0.418  0.406  0.399  0.387  0.331  0.303  0.244  0.337  0.000  0.000
 2011 036    60   133     52     24    204     5   106   137  0.391  0.390  0.390  0.380  0.330  0.301  0.242  0.337  0.000  0.000
 2011 037    61   128     52     24    204     5   106   137  0.377  0.380  0.380  0.377  0.330  0.300  0.240  0.337  0.000  0.000
 2011 038    62   141     52     24    221     5   106   137  0.426  0.429  0.412  0.387  0.330  0.299  0.238  0.337  0.000  0.000
 2011 039    63   165     76     24    272     5   106   137  0.470  0.435  0.439  0.460  0.378  0.299  0.237  0.336  0.000  0.000
 2011 040    64   172     76     24    281     5   106   137  0.433  0.435  0.441  0.457  0.424  0.305  0.236  0.336  0.000  0.000
 2011 041    65   180     76     24    291     5   106   137  0.433  0.435  0.441  0.458  0.443  0.322  0.235  0.336  0.000  0.000
 2011 042    66   174     76     24    291     5   106   137  0.405  0.412  0.418  0.437  0.419  0.351  0.234  0.335  0.000  0.000
 2011 043    67   178     76     24    299     5   106   137  0.430  0.434  0.421  0.436  0.418  0.353  0.233  0.335  0.000  0.000
 2011 044    68   172     76     24    299     5   106   137  0.403  0.410  0.408  0.425  0.408  0.365  0.231  0.335  0.000  0.000
 2011 045    69   166     76     24    299     5   106   137  0.390  0.399  0.401  0.420  0.402  0.361  0.230  0.334  0.000  0.000
 2011 046    70   160     76     24    299     5   106   137  0.379  0.391  0.395  0.414  0.396  0.357  0.228  0.334  0.000  0.000
 2011 047    71   154     76     24    299     5   106   137  0.368  0.384  0.389  0.407  0.390  0.352  0.226  0.334  0.000  0.000
 2011 048    72   147     76     24    299     5   106   137  0.356  0.375  0.382  0.400  0.383  0.348  0.224  0.333  0.000  0.000
 2011 049    73   141     76     24    299     5   106   137  0.346  0.368  0.376  0.395  0.378  0.343  0.222  0.332  0.000  0.000
 2011 050    74   136     76     24    299     5   106   137  0.339  0.361  0.370  0.390  0.372  0.339  0.220  0.332  0.000  0.000
 2011 051    75   131     76     24    299     5   106   137  0.333  0.355  0.365  0.387  0.368  0.335  0.219  0.331  0.000  0.000
 2011 052    76   129     76     24    299     5   106   137  0.331  0.351  0.362  0.385  0.366  0.333  0.218  0.330  0.000  0.000
 2011 053    77   124     76     24    299     5   106   137  0.325  0.346  0.357  0.382  0.363  0.328  0.216  0.329  0.000  0.000
 2011 054    78   134     76     24    311     5   106   137  0.437  0.403  0.359  0.380  0.362  0.326  0.215  0.328  0.000  0.000
 2011 055    79   133     76     24    313     5   106   137  0.429  0.405  0.365  0.378  0.360  0.323  0.214  0.327  0.000  0.000
 2011 056    80   129     76     24    313     5   106   137  0.405  0.396  0.368  0.377  0.358  0.320  0.212  0.326  0.000  0.000
 2011 057    81   123     76     24    313     5   106   137  0.387  0.389  0.362  0.375  0.355  0.315  0.210  0.325  0.000  0.000
 2011 058    82   118     76     24    313     5   106   137  0.372  0.380  0.357  0.372  0.353  0.311  0.207  0.323  0.000  0.000
 2011 059    83   113     76     24    313     5   106   137  0.357  0.370  0.353  0.370  0.351  0.307  0.204  0.320  0.000  0.000
 2011 060    84   107     76     24    313     5   106   137  0.344  0.360  0.350  0.368  0.348  0.304  0.201  0.316  0.000  0.000
 2011 061    85   102     76     24    313     5   106   137  0.333  0.349  0.346  0.366  0.346  0.302  0.198  0.310  0.000  0.000
 2011 062    86    96     76     24    313     5   106   137  0.324  0.341  0.343  0.363  0.344  0.299  0.194  0.302  0.000  0.000
 2011 063    87    90     76     24    313     5   106   137  0.316  0.336  0.340  0.361  0.342  0.296  0.190  0.293  0.000  0.000
 2011 064    88   106     76     24    313     6   127   137  0.431  0.434  0.367  0.359  0.340  0.294  0.185  0.283  0.000  0.000
 2011 065    89   100     76     24    313     6   127   137  0.401  0.407  0.376  0.358  0.338  0.293  0.184  0.275  0.000  0.000
 2011 066    90    96     76     24    313     6   127   137  0.388  0.396  0.372  0.358  0.338  0.292  0.182  0.268  0.000  0.000
 2011 067    91    90     76     24    313     6   127   137  0.374  0.385  0.364  0.357  0.336  0.291  0.181  0.260  0.000  0.000
 2011 068    92    87     76     24    314     6   127   137  0.373  0.376  0.359  0.357  0.336  0.290  0.180  0.253  0.000  0.000
 2011 069    93    83     76     24    314     6   127   137  0.360  0.367  0.354  0.356  0.335  0.289  0.178  0.248  0.000  0.000
 2011 070    94    77     76     24    314     6   127   137  0.343  0.355  0.349  0.355  0.333  0.287  0.177  0.242  0.000  0.000
 2011 071    95    73     76     24    314     6   127   137  0.332  0.343  0.344  0.353  0.332  0.286  0.175  0.238  0.000  0.000
 2011 072    96    68     76     24    314     6   127   137  0.322  0.334  0.339  0.351  0.330  0.284  0.173  0.234  0.000  0.000
 2011 073    97    84     76     24    314     7   148   137  0.429  0.431  0.364  0.348  0.328  0.282  0.171  0.230  0.000  0.000
 2011 074    98    80     76     24    314     7   148   137  0.396  0.402  0.370  0.348  0.327  0.281  0.170  0.228  0.000  0.000
 2011 075    99    75     76     24    314     7   148   137  0.378  0.387  0.359  0.347  0.326  0.280  0.169  0.227  0.000  0.000
 2011 076   100    98     76     24    339     7   148   137  0.433  0.431  0.437  0.379  0.325  0.280  0.169  0.226  0.000  0.000
 2011 077   101    94     76     24    339     7   148   137  0.402  0.407  0.412  0.406  0.325  0.279  0.168  0.225  0.000  0.000
 2011 078   102    89     76     24    339     7   148   137  0.387  0.396  0.401  0.402  0.326  0.278  0.168  0.225  0.000  0.000
 2011 079   103    84     76     24    339     7   148   137  0.372  0.386  0.392  0.393  0.326  0.278  0.167  0.224  0.000  0.000
 2011 080   104    79     76     24    339     7   148   137  0.357  0.375  0.382  0.386  0.326  0.277  0.167  0.223  0.000  0.000
 2011 081   105    74     76     24    339     7   148   137  0.340  0.362  0.370  0.379  0.326  0.276  0.166  0.222  0.000  0.000
 2011 082   106    89     76     24    356     7   148   137  0.435  0.431  0.395  0.377  0.326  0.276  0.166  0.222  0.000  0.000
 2011 083   107    87     76     24    356     7   148   137  0.412  0.412  0.404  0.379  0.326  0.276  0.165  0.222  0.000  0.000
 2011 084   108   113    104     24    411     7   148   137  0.470  0.435  0.440  0.454  0.353  0.276  0.165  0.222  0.000  0.000
 2011 085   109   110    104     24    411     7   148   137  0.427  0.414  0.420  0.435  0.405  0.276  0.165  0.221  0.000  0.000
 2011 086   110   107    104     24    411     7   148   137  0.403  0.403  0.409  0.426  0.408  0.281  0.165  0.221  0.000  0.000
 2011 087   111   102    104     24    411     7   148   137  0.388  0.396  0.403  0.419  0.401  0.281  0.165  0.221  0.000  0.000
 2011 088   112    98    104     24    411     7   148   137  0.375  0.389  0.397  0.413  0.394  0.281  0.164  0.220  0.000  0.000
 2011 089   113    94    104     24    411     7   148   137  0.364  0.383  0.391  0.408  0.388  0.281  0.164  0.220  0.000  0.000
 2011 090   114    92    104     24    411     7   148   137  0.360  0.378  0.388  0.405  0.385  0.281  0.164  0.220  0.000  0.000
 2011 091   115    87    104     24    411     7   148   137  0.346  0.371  0.381  0.398  0.378  0.280  0.164  0.219  0.000  0.000
 2011 092   116    83    104     24    411     7   148   137  0.337  0.364  0.375  0.393  0.372  0.280  0.163  0.219  0.000  0.000
 2011 093   117    79    104     24    411     7   148   137  0.336  0.355  0.368  0.387  0.366  0.280  0.163  0.219  0.000  0.000
 2011 094   118    75    104     24    411     7   148   137  0.324  0.347  0.360  0.383  0.361  0.279  0.163  0.218  0.000  0.000
 2011 095   119    71    104     24    411     7   148   137  0.311  0.341  0.353  0.378  0.356  0.279  0.162  0.218  0.000  0.000
 2011 096   120    66    104     24    411     7   148   137  0.299  0.334  0.346  0.373  0.351  0.278  0.162  0.217  0.000  0.000
 2011 097   121    83    104     24    411     8   169   137  0.425  0.431  0.365  0.368  0.346  0.277  0.161  0.216  0.000  0.000
 2011 098   122    79    104     24    411     8   169   137  0.391  0.406  0.373  0.366  0.345  0.276  0.161  0.216  0.000  0.000
 2011 099   123    75    104     24    411     8   169   137  0.370  0.393  0.368  0.365  0.343  0.276  0.160  0.215  0.000  0.000
 2011 100   124    72    104     24    411     8   169   137  0.353  0.383  0.362  0.364  0.342  0.275  0.160  0.215  0.000  0.000
 2011 101   125    69    104     24    411     8   169   137  0.340  0.372  0.357  0.363  0.340  0.275  0.160  0.215  0.000  0.000
 2011 102   126    66    104     24    411     8   169   137  0.327  0.361  0.352  0.361  0.339  0.274  0.160  0.214  0.000  0.000
