*SOIL-PLANT-ATMOSPHERE MODULE OUTPUT FILE

*DSSAT Cropping System Model Ver. 4.0.2.000               Aug 11, 2016; 19:59:12

*RUN   1        : UYSB                    
 MODEL          : CRGRO040 - Soybean         
 EXPERIMENT     : UYSB0145 SB    late to create DSS                             
 TREATMENT  1   : UYSB                    

@YEAR DOY   DAS   SRAA   TMXA   TMNA   EOAA   ETAA   EPAA   ESAA   EFAD   ETAC   EPAC   ESAC   EFAC
 1990 220     0  12.90  25.00  12.80  3.035  2.881  0.000  2.881  0.000    2.9    0.0    2.9    0.0
 1990 221     1  14.70  20.50  10.30  3.198  2.627  0.000  2.627  0.000    5.5    0.0    5.5    0.0
 1990 222     2  15.10  22.30   8.90  3.323  2.746  0.000  2.746  0.000    8.3    0.0    8.3    0.0
 1990 223     3  15.40  28.00  11.90  3.730  1.926  0.000  1.926  0.000   10.2    0.0   10.2    0.0
 1990 224     4  15.30  28.40  12.10  3.729  3.729  0.000  3.729  0.000   13.9    0.0   13.9    0.0
 1990 225     5  14.50  28.00  12.80  3.537  2.260  0.000  2.260  0.000   16.2    0.0   16.2    0.0
 1990 226     6   5.20  25.80  14.90  1.256  1.256  0.000  1.256  0.000   17.4    0.0   17.4    0.0
 1990 227     7   7.50  15.80  10.50  1.533  1.533  0.000  1.533  0.000   19.0    0.0   19.0    0.0
 1990 228     8  14.80  18.90   8.50  3.101  3.101  0.000  3.101  0.000   22.1    0.0   22.1    0.0
 1990 229     9  16.80  21.40   7.70  3.615  2.715  0.000  2.715  0.000   24.8    0.0   24.8    0.0
 1990 230    10  16.20  20.80   6.00  3.405  2.401  0.000  2.401  0.000   27.2    0.0   27.2    0.0
 1990 231    11  12.80  20.80  10.40  2.797  1.391  0.011  1.379  0.000   28.6    0.0   28.6    0.0
 1990 232    12  17.30  21.00  10.30  3.787  1.097  0.017  1.080  0.000   29.7    0.0   29.6    0.0
 1990 233    13  14.80  20.90   6.70  3.133  0.933  0.015  0.918  0.000   30.6    0.0   30.6    0.0
 1990 234    14  13.00  18.40   8.30  2.699  0.826  0.014  0.813  0.000   31.4    0.1   31.4    0.0
 1990 235    15  17.00  15.60   4.40  3.265  0.754  0.017  0.737  0.000   32.2    0.1   32.1    0.0
 1990 236    16  11.20  18.10   3.70  2.217  0.691  0.012  0.679  0.000   32.9    0.1   32.8    0.0
 1990 237    17  13.00  24.60   9.60  2.962  0.650  0.017  0.633  0.000   33.5    0.1   33.4    0.0
 1990 238    18  16.40  25.50  11.70  3.845  0.619  0.023  0.595  0.000   34.1    0.1   34.0    0.0
 1990 239    19   6.80  17.60   5.50  1.359  1.359  0.005  1.354  0.000   35.5    0.1   35.4    0.0
 1990 240    20  18.80   9.70   2.00  3.205  3.205  0.013  3.192  0.000   38.7    0.1   38.6    0.0
 1990 241    21  17.80  14.60  -1.20  3.176  3.042  0.021  3.021  0.000   41.7    0.2   41.6    0.0
 1990 242    22  16.80  21.80   2.90  3.477  3.317  0.024  3.293  0.000   45.1    0.2   44.9    0.0
 1990 243    23   5.50  11.80   5.50  1.008  1.008  0.004  1.003  0.000   46.1    0.2   45.9    0.0
 1990 244    24  10.70  10.20   0.80  1.815  1.815  0.008  1.807  0.000   47.9    0.2   47.7    0.0
 1990 245    25  17.70  11.60  -2.30  2.969  1.527  0.021  1.505  0.000   49.4    0.2   49.2    0.0
 1990 246    26  19.80  16.80   2.50  3.802  1.136  0.000  1.136  0.000   50.5    0.2   50.3    0.0
 1990 247    27   5.60  16.40   7.10  1.118  0.952  0.000  0.952  0.000   51.5    0.2   51.3    0.0
 1990 248    28   6.00  18.60  13.40  1.308  0.836  0.000  0.836  0.000   52.3    0.2   52.1    0.0
 1990 249    29   5.70  15.40  13.40  1.191  0.800  0.000  0.800  0.000   53.1    0.2   52.9    0.0
 1990 250    30   5.80  15.90  12.80  1.213  0.909  0.000  0.909  0.000   54.0    0.2   53.8    0.0
 1990 251    31   5.80  14.30  10.30  1.159  1.159  0.000  1.159  0.000   55.2    0.2   55.0    0.0
 1990 252    32  19.70  23.50   7.80  4.362  4.362  0.000  4.362  0.000   59.6    0.2   59.3    0.0
 1990 253    33  15.20  27.50  11.60  3.651  2.382  0.000  2.382  0.000   61.9    0.2   61.7    0.0
 1990 254    34   9.60  23.10  10.70  2.168  2.168  0.000  2.168  0.000   64.1    0.2   63.9    0.0
 1990 255    35  17.10  13.80   5.20  3.224  3.224  0.000  3.224  0.000   67.3    0.2   67.1    0.0
 1990 256    36  18.80  11.80   2.70  3.347  2.251  0.000  2.251  0.000   69.6    0.2   69.4    0.0
 1990 257    37  20.40  14.20   0.50  3.686  2.223  0.000  2.223  0.000   71.8    0.2   71.6    0.0
 1990 258    38  21.40  18.40   3.40  4.244  1.349  0.000  1.349  0.000   73.2    0.2   72.9    0.0
 1990 259    39  17.80  21.60   7.90  3.847  1.066  0.000  1.066  0.000   74.2    0.2   74.0    0.0
 1990 260    40  10.60  17.70  10.60  2.227  0.909  0.000  0.909  0.000   75.1    0.2   74.9    0.0
 1990 261    41   9.30  17.90  11.00  1.966  1.966  0.000  1.966  0.000   77.1    0.2   76.9    0.0
 1990 262    42  13.80  17.70  10.00  2.884  2.884  0.000  2.884  0.000   80.0    0.2   79.8    0.0
 1990 263    43   6.40  17.90  13.30  1.381  1.289  0.000  1.289  0.000   81.3    0.2   81.1    0.0
 1990 264    44   6.40  20.50  15.80  1.460  1.460  0.000  1.460  0.000   82.7    0.2   82.5    0.0
 1990 265    45  20.10  18.60   9.20  4.221  2.249  0.000  2.249  0.000   85.0    0.2   84.8    0.0
 1990 266    46  18.60  13.50   5.40  3.498  1.354  0.000  1.354  0.000   86.3    0.2   86.1    0.0
 1990 267    47  22.30  15.00   3.20  4.196  1.068  0.000  1.068  0.000   87.4    0.2   87.2    0.0
 1990 268    48  23.20  16.30   3.10  4.448  0.911  0.000  0.911  0.000   88.3    0.2   88.1    0.0
 1990 269    49  23.40  20.50   5.10  4.858  0.808  0.000  0.808  0.000   89.1    0.2   88.9    0.0
 1990 270    50  21.30  24.00   8.90  4.792  0.733  0.000  0.733  0.000   89.9    0.2   89.6    0.0
 1990 271    51   6.80  21.70  12.20  1.528  0.676  0.000  0.676  0.000   90.5    0.2   90.3    0.0
 1990 272    52  19.30  22.00  11.30  4.319  0.631  0.000  0.631  0.000   91.2    0.2   90.9    0.0
 1990 273    53  19.30  25.20   8.90  4.408  0.593  0.000  0.593  0.000   91.8    0.2   91.5    0.0
 1990 274    54  21.70  28.10  12.90  5.304  0.562  0.000  0.562  0.000   92.3    0.2   92.1    0.0
 1990 275    55  24.20  24.00  11.90  5.583  0.535  0.000  0.535  0.000   92.9    0.2   92.6    0.0
 1990 276    56  21.80  26.60  13.30  5.251  0.512  0.000  0.512  0.000   93.4    0.2   93.1    0.0
 1990 277    57  17.90  30.10  17.50  4.636  0.491  0.000  0.491  0.000   93.9    0.2   93.6    0.0
 1990 278    58   7.10  19.10  17.30  1.611  0.473  0.000  0.473  0.000   94.3    0.2   94.1    0.0
 1990 279    59   9.40  22.70  17.20  2.229  1.443  0.000  1.443  0.000   95.8    0.2   95.5    0.0
 1990 280    60   7.20  21.60  17.70  1.691  1.691  0.000  1.691  0.000   97.5    0.2   97.2    0.0
 1990 281    61  11.50  20.40  13.70  2.574  2.574  0.000  2.574  0.000  100.0    0.2   99.8    0.0
 1990 282    62  23.40  22.30   9.50  5.177  4.476  0.000  4.476  0.000  104.5    0.2  104.3    0.0
 1990 283    63  21.00  22.30  11.30  4.718  2.604  0.000  2.604  0.000  107.1    0.2  106.9    0.0
 1990 284    64   9.00  22.10  14.50  2.072  1.406  0.000  1.406  0.000  108.5    0.2  108.3    0.0
 1990 285    65  25.50  19.40  11.30  5.517  4.642  0.000  4.642  0.000  113.2    0.2  112.9    0.0
 1990 286    66  26.10  21.60   7.60  5.626  3.919  0.000  3.919  0.000  117.1    0.2  116.9    0.0
 1990 287    67  24.80  22.60  11.50  5.603  1.776  0.000  1.776  0.000  118.9    0.2  118.6    0.0
 1990 288    68  25.50  20.10   8.90  5.451  1.236  0.000  1.236  0.000  120.1    0.2  119.9    0.0
 1990 289    69  26.40  20.50   5.00  5.476  1.008  0.000  1.008  0.000  121.1    0.2  120.9    0.0
 1990 290    70  15.20  21.40   8.90  3.306  0.873  0.000  0.873  0.000  122.0    0.2  121.8    0.0
 1990 291    71  24.50  24.40  14.30  5.793  0.781  0.000  0.781  0.000  122.8    0.2  122.5    0.0
 1990 292    72  17.30  24.00  15.30  4.104  4.104  0.000  4.104  0.000  126.9    0.2  126.6    0.0
 1990 293    73  16.40  23.70  15.70  3.889  2.598  0.000  2.598  0.000  129.5    0.2  129.2    0.0
 1990 294    74  22.20  24.00  14.20  5.220  2.064  0.000  2.064  0.000  131.5    0.2  131.3    0.0
 1990 295    75  27.10  24.80  13.10  6.377  1.315  0.000  1.315  0.000  132.8    0.2  132.6    0.0
 1990 296    76  21.10  25.60  13.10  5.013  1.049  0.000  1.049  0.000  133.9    0.2  133.7    0.0
 1990 297    77  20.80  22.20  13.80  4.767  0.899  0.000  0.899  0.000  134.8    0.2  134.6    0.0
 1990 298    78  14.30  24.70  11.80  3.325  0.799  0.000  0.799  0.000  135.6    0.2  135.4    0.0
 1990 299    79  25.10  27.10  16.30  6.226  0.727  0.000  0.727  0.000  136.3    0.2  136.1    0.0
 1990 300    80  19.60  28.30  17.00  4.956  0.671  0.000  0.671  0.000  137.0    0.2  136.8    0.0
 1990 301    81   8.80  23.80  18.50  2.136  0.627  0.000  0.627  0.000  137.6    0.2  137.4    0.0
 1990 302    82  12.20  27.40  20.40  3.133  3.132  0.000  3.132  0.000  140.7    0.2  140.5    0.0
 1990 303    83  26.40  28.80  17.90  6.758  6.455  0.000  6.455  0.000  147.2    0.2  147.0    0.0
 1990 304    84  26.50  23.20  15.80  6.251  3.075  0.000  3.075  0.000  150.3    0.2  150.0    0.0
 1990 305    85  23.10  24.10  16.70  5.548  1.600  0.000  1.600  0.000  151.9    0.2  151.6    0.0
 1990 306    86  20.10  27.00  14.30  4.903  1.566  0.000  1.566  0.000  153.4    0.2  153.2    0.0
 1990 307    87  11.80  28.10  20.80  3.063  1.161  0.000  1.161  0.000  154.6    0.2  154.4    0.0
 1990 308    88  21.00  22.20  10.80  4.692  4.178  0.000  4.178  0.000  158.8    0.2  158.6    0.0
 1990 309    89  28.80  19.00   6.40  5.927  4.285  0.000  4.285  0.000  163.1    0.2  162.8    0.0
 1990 310    90  17.40  21.20   9.80  3.804  1.817  0.000  1.817  0.000  164.9    0.2  164.7    0.0
 1990 311    91  23.40  23.50  13.50  5.437  1.600  0.000  1.600  0.000  166.5    0.2  166.3    0.0
 1990 312    92   8.40  18.40  11.30  1.793  1.345  0.000  1.345  0.000  167.8    0.2  167.6    0.0
 1990 313    93  16.20  22.30  15.10  3.758  1.064  0.000  1.064  0.000  168.9    0.2  168.7    0.0
 1990 314    94  21.20  24.80  13.70  5.013  1.408  0.000  1.408  0.000  170.3    0.2  170.1    0.0
 1990 315    95  23.60  27.00  15.30  5.802  0.806  0.000  0.806  0.000  171.1    0.2  170.9    0.0
 1990 316    96  12.20  24.60  14.20  2.889  0.732  0.000  0.732  0.000  171.8    0.2  171.6    0.0
 1990 317    97  26.70  34.90  18.50  7.334  0.675  0.000  0.675  0.000  172.5    0.2  172.3    0.0
 1990 318    98  15.90  33.00  20.80  4.351  1.600  0.000  1.600  0.000  174.1    0.2  173.9    0.0
 1990 319    99   8.60  23.20  17.30  2.053  0.656  0.000  0.656  0.000  174.8    0.2  174.5    0.0
 1990 320   100  17.60  22.10  12.20  3.974  3.848  0.000  3.848  0.000  178.6    0.2  178.4    0.0
 1990 321   101  28.70  26.10   9.30  6.652  4.851  0.000  4.851  0.000  183.5    0.2  183.2    0.0
 1990 322   102  27.80  29.70  16.50  7.114  1.720  0.000  1.720  0.000  185.2    0.2  185.0    0.0
 1990 323   103  27.10  33.40  21.80  7.498  1.218  0.000  1.218  0.000  186.4    0.2  186.2    0.0
 1990 324   104  12.20  28.00  21.10  3.170  0.998  0.000  0.998  0.000  187.4    0.2  187.2    0.0
 1990 325   105  30.70  28.70  18.80  7.903  1.200  0.000  1.200  0.000  188.6    0.2  188.4    0.0
 1990 326   106  28.10  28.00  15.30  6.989  0.902  0.000  0.902  0.000  189.5    0.2  189.3    0.0
 1990 327   107  29.80  28.20  14.20  7.366  0.802  0.000  0.802  0.000  190.3    0.2  190.1    0.0
 1990 328   108  25.60  28.70  16.80  6.492  0.729  0.000  0.729  0.000  191.0    0.2  190.8    0.0
 1990 329   109  20.10  29.20  18.20  5.180  0.673  0.000  0.673  0.000  191.7    0.2  191.5    0.0
 1990 330   110  22.90  24.90  15.80  5.514  4.209  0.000  4.209  0.000  195.9    0.2  195.7    0.0
 1990 331   111  30.40  21.20  10.00  6.658  4.711  0.000  4.711  0.000  200.6    0.2  200.4    0.0
 1990 332   112  30.90  24.60   9.00  7.010  1.638  0.000  1.638  0.000  202.3    0.2  202.0    0.0
 1990 333   113  31.00  27.10  12.20  7.446  1.189  0.000  1.189  0.000  203.5    0.2  203.2    0.0
 1990 334   114  14.90  26.80  14.90  3.643  0.982  0.000  0.982  0.000  204.4    0.2  204.2    0.0
 1990 335   115  23.40  26.40  14.70  5.685  0.856  0.000  0.856  0.000  205.3    0.2  205.1    0.0
 1990 336   116   9.00  23.50  14.10  2.101  0.769  0.000  0.769  0.000  206.1    0.2  205.8    0.0
 1990 337   117  30.10  22.90  11.40  6.820  2.799  0.000  2.799  0.000  208.9    0.2  208.6    0.0
 1990 338   118  28.70  27.90  10.60  6.871  2.533  0.000  2.533  0.000  211.4    0.2  211.2    0.0
 1990 339   119  16.80  32.30  20.30  4.547  1.397  0.000  1.397  0.000  212.8    0.2  212.6    0.0
 1990 340   120  16.80  25.60  17.50  4.133  4.133  0.000  4.133  0.000  216.9    0.2  216.7    0.0
 1990 341   121  26.90  25.20  16.00  6.510  6.306  0.000  6.306  0.000  223.2    0.2  223.0    0.0
 1990 342   122  30.30  25.00  12.00  7.083  3.207  0.000  3.207  0.000  226.4    0.2  226.2    0.0
 1990 343   123   9.00  19.70  14.20  2.005  1.446  0.000  1.446  0.000  227.9    0.2  227.7    0.0
 1990 344   124   9.10  19.50  15.90  2.051  2.051  0.000  2.051  0.000  229.9    0.2  229.7    0.0
 1990 345   125  24.70  25.00  14.70  5.902  5.121  0.000  5.121  0.000  235.1    0.2  234.8    0.0
 1990 346   126  14.70  22.00  10.50  3.267  2.519  0.000  2.519  0.000  237.6    0.2  237.3    0.0
 1990 347   127  19.00  24.00  14.30  4.471  1.396  0.000  1.396  0.000  239.0    0.2  238.7    0.0
 1990 348   128  29.20  21.90  10.30  6.471  1.088  0.000  1.088  0.000  240.1    0.2  239.8    0.0
 1990 349   129  31.80  27.30  10.90  7.577  0.923  0.000  0.923  0.000  241.0    0.2  240.8    0.0
 1990 350   130  28.70  30.20  13.70  7.232  0.816  0.000  0.816  0.000  241.8    0.2  241.6    0.0
 1990 351   131  14.40  30.10  18.00  3.743  0.739  0.000  0.739  0.000  242.5    0.2  242.3    0.0
 1990 352   132  27.40  25.60  17.30  6.731  3.226  0.000  3.226  0.000  245.8    0.2  245.5    0.0
 1990 353   133  31.40  25.60  14.40  7.539  5.633  0.000  5.633  0.000  251.4    0.2  251.2    0.0
 1990 354   134  31.60  27.10  14.00  7.699  1.660  0.000  1.660  0.000  253.1    0.2  252.8    0.0
 1990 355   135  25.60  29.80  15.90  6.529  1.197  0.000  1.197  0.000  254.3    0.2  254.0    0.0
 1990 356   136  10.00  25.70  19.00  2.492  2.492  0.000  2.492  0.000  256.7    0.2  256.5    0.0
 1990 357   137  19.50  28.40  17.80  4.966  4.383  0.000  4.383  0.000  261.1    0.2  260.9    0.0
 1990 358   138  13.10  24.40  15.50  3.128  3.128  0.000  3.128  0.000  264.3    0.2  264.0    0.0
 1990 359   139  29.40  25.70  12.70  6.971  5.332  0.000  5.332  0.000  269.6    0.2  269.4    0.0
 1990 360   140  31.40  31.30  15.30  8.108  1.818  0.000  1.818  0.000  271.4    0.2  271.2    0.0
 1990 361   141  31.40  31.50  18.00  8.288  1.249  0.000  1.249  0.000  272.7    0.2  272.4    0.0
 1990 362   142  31.40  21.00  13.30  7.058  1.015  0.000  1.015  0.000  273.7    0.2  273.4    0.0
 1990 363   143  29.60  23.30   9.40  6.628  0.877  0.000  0.877  0.000  274.5    0.2  274.3    0.0
 1990 364   144  30.80  27.20  11.40  7.360  0.784  0.000  0.784  0.000  275.3    0.2  275.1    0.0
 1990 365   145  31.50  29.40  14.80  7.931  0.715  0.000  0.715  0.000  276.0    0.2  275.8    0.0
 1991 001   146  24.30  31.60  17.10  6.379  0.662  0.000  0.662  0.000  276.7    0.2  276.5    0.0
 1991 002   147  24.10  29.20  20.30  6.308  0.619  0.000  0.619  0.000  277.3    0.2  277.1    0.0
 1991 003   148  26.70  29.10  17.40  6.833  0.584  0.000  0.584  0.000  277.9    0.2  277.7    0.0
 1991 004   149  31.30  28.60  13.40  7.725  0.554  0.000  0.554  0.000  278.5    0.2  278.2    0.0
 1991 005   150  31.30  28.20  13.80  7.713  0.528  0.000  0.528  0.000  279.0    0.2  278.8    0.0
 1991 006   151  31.30  30.20  13.00  7.845  0.505  0.000  0.505  0.000  279.5    0.2  279.3    0.0
 1991 007   152  29.60  32.40  17.10  7.838  0.486  0.000  0.486  0.000  280.0    0.2  279.8    0.0
 1991 008   153  29.90  34.30  19.30  8.207  0.468  0.000  0.468  0.000  280.5    0.2  280.2    0.0
 1991 009   154   9.90  24.30  21.30  2.471  0.452  0.000  0.452  0.000  280.9    0.2  280.7    0.0
 1991 010   155  27.90  30.80  19.20  7.372  1.280  0.000  1.280  0.000  282.2    0.2  282.0    0.0
 1991 011   156  25.10  27.80  15.90  6.257  0.653  0.000  0.653  0.000  282.8    0.2  282.6    0.0
 1991 012   157  29.50  26.40  13.00  7.072  0.612  0.000  0.612  0.000  283.4    0.2  283.2    0.0
 1991 013   158  19.30  27.00  12.90  4.656  0.577  0.000  0.577  0.000  284.0    0.2  283.8    0.0
 1991 014   159  30.50  28.00  14.60  7.545  0.548  0.000  0.548  0.000  284.6    0.2  284.3    0.0
 1991 015   160  29.90  31.70  14.10  7.686  0.523  0.000  0.523  0.000  285.1    0.2  284.9    0.0
 1991 016   161  22.10  22.50  13.00  5.050  0.501  0.000  0.501  0.000  285.6    0.2  285.4    0.0
 1991 017   162  30.40  24.40   7.10  6.769  0.482  0.000  0.482  0.000  286.1    0.2  285.9    0.0
 1991 018   163  30.70  27.70  11.00  7.356  0.465  0.000  0.465  0.000  286.5    0.2  286.3    0.0
 1991 019   164  27.80  29.60  11.80  6.856  0.449  0.000  0.449  0.000  287.0    0.2  286.8    0.0
 1991 020   165  22.10  32.20  11.60  5.607  0.435  0.000  0.435  0.000  287.4    0.2  287.2    0.0
 1991 021   166  10.90  24.10  18.70  2.660  2.660  0.000  2.660  0.000  290.1    0.2  289.9    0.0
 1991 022   167  30.70  28.90  15.50  7.727  7.036  0.000  7.036  0.000  297.1    0.2  296.9    0.0
 1991 023   168  25.20  29.20  16.90  6.432  2.614  0.000  2.614  0.000  299.7    0.2  299.5    0.0
 1991 024   169   8.80  23.90  18.90  2.146  1.407  0.000  1.407  0.000  301.1    0.2  300.9    0.0
 1991 025   170  27.00  26.60  16.70  6.679  1.093  0.000  1.093  0.000  302.2    0.2  302.0    0.0
 1991 026   171  28.30  26.40  13.90  6.833  0.926  0.000  0.926  0.000  303.2    0.2  302.9    0.0
 1991 027   172  29.80  25.50  12.60  7.043  0.818  0.000  0.818  0.000  304.0    0.2  303.8    0.0
 1991 028   173  29.30  28.80  13.70  7.265  0.741  0.000  0.741  0.000  304.7    0.2  304.5    0.0
 1991 029   174  13.70  25.20  16.10  3.318  0.682  0.000  0.682  0.000  305.4    0.2  305.2    0.0
 1991 030   175  24.30  22.80  16.10  5.718  2.189  0.000  2.189  0.000  307.6    0.2  307.4    0.0
 1991 031   176  16.40  23.60  16.80  3.919  3.876  0.000  3.876  0.000  311.5    0.2  311.2    0.0
 1991 032   177  29.60  27.80  14.90  7.322  3.436  0.000  3.436  0.000  314.9    0.2  314.7    0.0
 1991 033   178  27.70  30.20  14.10  7.001  1.450  0.000  1.450  0.000  316.4    0.2  316.1    0.0
 1991 034   179  27.20  32.30  17.30  7.206  1.112  0.000  1.112  0.000  317.5    0.2  317.2    0.0
 1991 035   180  29.00  31.60  17.70  7.646  0.938  0.000  0.938  0.000  318.4    0.2  318.2    0.0
 1991 036   181  28.90  30.00  18.90  7.553  0.826  0.000  0.826  0.000  319.2    0.2  319.0    0.0
 1991 037   182  20.60  28.00  18.60  5.254  0.747  0.000  0.747  0.000  320.0    0.2  319.8    0.0
 1991 038   183  28.80  29.30  15.90  7.304  0.687  0.000  0.687  0.000  320.7    0.2  320.4    0.0
 1991 039   184  22.20  29.60  17.50  5.717  0.639  0.000  0.639  0.000  321.3    0.2  321.1    0.0
 1991 040   185  19.10  29.60  18.50  4.955  0.600  0.000  0.600  0.000  321.9    0.2  321.7    0.0
 1991 041   186  27.50  31.50  15.60  7.132  0.568  0.000  0.568  0.000  322.5    0.2  322.2    0.0
 1991 042   187  22.30  29.80  20.20  5.871  0.540  0.000  0.540  0.000  323.0    0.2  322.8    0.0
 1991 043   188  25.90  25.60  16.30  6.313  0.516  0.000  0.516  0.000  323.5    0.2  323.3    0.0
 1991 044   189  24.60  24.30  10.00  5.607  0.495  0.000  0.495  0.000  324.0    0.2  323.8    0.0
 1991 045   190  27.50  21.00  10.30  6.023  0.476  0.000  0.476  0.000  324.5    0.2  324.3    0.0
 1991 046   191  26.90  23.50   7.90  5.961  0.460  0.000  0.460  0.000  325.0    0.2  324.7    0.0
 1991 047   192  27.70  27.40   7.10  6.406  0.445  0.000  0.445  0.000  325.4    0.2  325.2    0.0
 1991 048   193  27.30  31.50  12.50  6.918  0.431  0.000  0.431  0.000  325.8    0.2  325.6    0.0
 1991 049   194  23.40  29.50  15.30  5.921  0.418  0.000  0.418  0.000  326.3    0.2  326.0    0.0
 1991 050   195  25.30  30.90  12.00  6.343  0.407  0.000  0.407  0.000  326.7    0.2  326.4    0.0
 1991 051   196  18.50  32.20  16.90  4.881  0.642  0.000  0.642  0.000  327.3    0.2  327.1    0.0
 1991 052   197   8.20  28.10  18.90  2.098  1.300  0.000  1.300  0.000  328.6    0.2  328.4    0.0
 1991 053   198  21.70  28.70  14.60  5.412  3.501  0.000  3.501  0.000  332.1    0.2  331.9    0.0
 1991 054   199  27.10  24.60  10.90  6.247  1.393  0.000  1.393  0.000  333.5    0.2  333.3    0.0
 1991 055   200  27.10  29.80  13.50  6.787  1.087  0.000  1.087  0.000  334.6    0.2  334.4    0.0
 1991 056   201  27.00  34.20  13.50  7.103  0.922  0.000  0.922  0.000  335.5    0.2  335.3    0.0
 1991 057   202  25.80  35.90  16.50  7.351  0.816  0.000  0.816  0.000  336.3    0.2  336.1    0.0
 1991 058   203  14.80  34.40  20.50  4.101  0.739  0.000  0.739  0.000  337.1    0.2  336.8    0.0
 1991 059   204   9.70  25.00  20.80  2.431  0.681  0.000  0.681  0.000  337.7    0.2  337.5    0.0
 1991 060   205  13.10  28.00  20.20  3.381  3.381  0.000  3.381  0.000  341.1    0.2  340.9    0.0
 1991 061   206  12.10  27.40  18.20  3.056  2.881  0.000  2.881  0.000  344.0    0.2  343.8    0.0

*DSSAT Cropping System Model Ver. 4.0.2.000               Aug 11, 2016; 19:59:12

*RUN   2        : UYSB                    
 MODEL          : CRGRO040 - Soybean         
 EXPERIMENT     : UYSB0145 SB    late to create DSS                             
 TREATMENT  1   : UYSB                    

@YEAR DOY   DAS   SRAA   TMXA   TMNA   EOAA   ETAA   EPAA   ESAA   EFAD   ETAC   EPAC   ESAC   EFAC
 1991 220     0  11.00  16.70   7.50  2.214  2.214  0.000  2.214  0.000    2.2    0.0    2.2    0.0
 1991 221     1   5.10  15.70  10.40  1.040  0.633  0.000  0.633  0.000    2.8    0.0    2.8    0.0
 1991 222     2   4.80  11.90   8.10  0.906  0.906  0.000  0.906  0.000    3.8    0.0    3.8    0.0
 1991 223     3   7.80  13.10   5.60  1.461  1.461  0.000  1.461  0.000    5.2    0.0    5.2    0.0
 1991 224     4  12.50  15.80   1.50  2.340  2.340  0.000  2.340  0.000    7.6    0.0    7.6    0.0
 1991 225     5  11.60  18.50   7.30  2.391  2.314  0.000  2.314  0.000    9.9    0.0    9.9    0.0
 1991 226     6  15.20  25.70  10.80  3.549  3.387  0.000  3.387  0.000   13.3    0.0   13.3    0.0
 1991 227     7  10.70  25.30  15.40  2.580  1.449  0.000  1.449  0.000   14.7    0.0   14.7    0.0
 1991 228     8  12.60  27.30  14.40  3.087  1.112  0.000  1.112  0.000   15.8    0.0   15.8    0.0
 1991 229     9  16.10  24.70  11.80  3.744  0.938  0.000  0.938  0.000   16.8    0.0   16.8    0.0
 1991 230    10   9.30  23.80  13.60  2.171  0.826  0.000  0.826  0.000   17.6    0.0   17.6    0.0
 1991 231    11  12.70  26.00  10.90  2.979  0.747  0.000  0.747  0.000   18.3    0.0   18.3    0.0
 1991 232    12   9.30  26.00  11.80  2.197  0.687  0.000  0.687  0.000   19.0    0.0   19.0    0.0
 1991 233    13  14.70  26.00  11.60  3.467  0.639  0.000  0.639  0.000   19.7    0.0   19.7    0.0
 1991 234    14  13.80  26.40  14.60  3.349  0.614  0.014  0.600  0.000   20.3    0.0   20.3    0.0
 1991 235    15  16.70  21.60  14.50  3.819  0.586  0.018  0.568  0.000   20.9    0.0   20.8    0.0
 1991 236    16  16.20  20.70   9.90  3.520  0.558  0.018  0.540  0.000   21.4    0.0   21.4    0.0
 1991 237    17  14.10  24.70  11.10  3.258  0.534  0.018  0.516  0.000   21.9    0.1   21.9    0.0
 1991 238    18   5.40  16.90  11.90  1.135  0.589  0.007  0.582  0.000   22.5    0.1   22.5    0.0
 1991 239    19   5.30  16.20  10.20  1.086  1.086  0.004  1.082  0.000   23.6    0.1   23.5    0.0
 1991 240    20  10.80  21.40  12.10  2.413  2.413  0.010  2.404  0.000   26.0    0.1   25.9    0.0
 1991 241    21  10.70  22.80  14.40  2.481  2.481  0.011  2.470  0.000   28.5    0.1   28.4    0.0
 1991 242    22   7.30  24.20  16.00  1.744  1.072  0.013  1.059  0.000   29.6    0.1   29.5    0.0
 1991 243    23   5.50  16.80  11.00  1.145  1.086  0.009  1.077  0.000   30.7    0.1   30.6    0.0
 1991 244    24   9.40  16.10   8.10  1.885  1.885  0.010  1.875  0.000   32.6    0.1   32.4    0.0
 1991 245    25   5.50  17.90  11.20  1.164  1.164  0.006  1.158  0.000   33.7    0.1   33.6    0.0
 1991 246    26  10.50  22.80  14.00  2.426  2.426  0.013  2.413  0.000   36.1    0.1   36.0    0.0
 1991 247    27  18.10  25.80  13.20  4.309  2.955  0.044  2.911  0.000   39.1    0.2   38.9    0.0
 1991 248    28  18.40  27.20  13.90  4.478  2.056  0.053  2.003  0.000   41.2    0.2   40.9    0.0
 1991 249    29   5.70  22.50  16.00  1.333  1.319  0.018  1.300  0.000   42.5    0.3   42.2    0.0
 1991 250    30   5.80  17.20  12.80  1.232  1.232  0.012  1.221  0.000   43.7    0.3   43.4    0.0
 1991 251    31   6.40  17.10  10.50  1.330  1.220  0.022  1.197  0.000   44.9    0.3   44.6    0.0
 1991 252    32  15.60  20.00   8.40  3.308  3.308  0.036  3.272  0.000   48.2    0.3   47.9    0.0
 1991 253    33  17.50  22.00  10.20  3.871  1.537  0.072  1.464  0.000   49.8    0.4   49.4    0.0
 1991 254    34  20.20  25.00  10.80  4.664  1.215  0.096  1.119  0.000   51.0    0.5   50.5    0.0
 1991 255    35  19.90  27.80  14.10  4.879  1.054  0.112  0.942  0.000   52.0    0.6   51.4    0.0
 1991 256    36  15.40  30.70  16.10  3.961  0.932  0.103  0.829  0.000   53.0    0.7   52.3    0.0
 1991 257    37   6.10  21.00   7.80  1.302  0.787  0.039  0.749  0.000   53.8    0.8   53.0    0.0
 1991 258    38   6.20  12.30   8.20  1.174  1.174  0.023  1.151  0.000   54.9    0.8   54.2    0.0
 1991 259    39  11.50  23.50  12.40  2.638  2.638  0.052  2.585  0.000   57.6    0.8   56.7    0.0
 1991 260    40   6.30  21.10  17.10  1.458  1.458  0.032  1.426  0.000   59.0    0.9   58.2    0.0
 1991 261    41  18.90  19.70  13.10  4.151  4.151  0.102  4.049  0.000   63.2    1.0   62.2    0.0
 1991 262    42  21.70  17.30   8.80  4.437  3.560  0.189  3.372  0.000   66.7    1.2   65.6    0.0
 1991 263    43  13.10  22.60   8.30  2.864  2.485  0.128  2.357  0.000   69.2    1.3   67.9    0.0
 1991 264    44  11.00  27.50  12.60  2.648  1.498  0.126  1.372  0.000   70.7    1.4   69.3    0.0
 1991 265    45  20.40  20.30  10.30  4.400  1.307  0.230  1.077  0.000   72.0    1.6   70.4    0.0
 1991 266    46  21.60  16.90   3.20  4.155  1.146  0.229  0.916  0.000   73.2    1.9   71.3    0.0
 1991 267    47  22.30  19.00   4.90  4.495  1.065  0.254  0.811  0.000   74.2    2.1   72.1    0.0
 1991 268    48  20.30  21.10   8.70  4.359  0.992  0.256  0.736  0.000   75.2    2.4   72.9    0.0
 1991 269    49  21.70  23.40   7.80  4.763  0.975  0.297  0.678  0.000   76.2    2.7   73.5    0.0
 1991 270    50  17.70  27.80  13.80  4.307  0.918  0.286  0.632  0.000   77.1    3.0   74.2    0.0
 1991 271    51  22.20  16.10   9.00  4.456  0.919  0.324  0.595  0.000   78.0    3.3   74.8    0.0
 1991 272    52  21.80  18.00   7.50  4.430  0.897  0.333  0.563  0.000   78.9    3.6   75.3    0.0
 1991 273    53  21.10  20.20   9.70  4.507  0.887  0.351  0.536  0.000   79.8    4.0   75.9    0.0
 1991 274    54  19.70  18.40   7.00  4.004  0.839  0.326  0.513  0.000   80.7    4.3   76.4    0.0
 1991 275    55  22.00  18.40   5.70  4.416  0.863  0.371  0.492  0.000   81.5    4.7   76.9    0.0
 1991 276    56  23.00  19.80   3.80  4.624  0.873  0.400  0.473  0.000   82.4    5.1   77.3    0.0
 1991 277    57  19.10  21.70   6.30  4.031  0.826  0.369  0.457  0.000   83.2    5.4   77.8    0.0
 1991 278    58   7.10  13.60  10.60  1.392  0.580  0.137  0.442  0.000   83.8    5.6   78.2    0.0
 1991 279    59  13.30  12.50   7.00  2.474  2.327  0.250  2.077  0.000   86.1    5.8   80.3    0.0
 1991 280    60  14.80  14.20   4.00  2.740  2.740  0.184  2.556  0.000   88.9    6.0   82.9    0.0
 1991 281    61  23.60  16.90   3.90  4.544  4.398  0.482  3.916  0.000   93.3    6.5   86.8    0.0
 1991 282    62  20.30  20.90   7.30  4.267  3.530  0.470  3.060  0.000   96.8    7.0   89.8    0.0
 1991 283    63  24.30  23.10   7.20  5.250  2.063  0.623  1.441  0.000   98.9    7.6   91.3    0.0
 1991 284    64  24.30  25.00   8.70  5.443  1.814  0.706  1.108  0.000  100.7    8.3   92.4    0.0
 1991 285    65  24.40  29.20  12.20  5.906  1.786  0.851  0.935  0.000  102.5    9.1   93.3    0.0
 1991 286    66  21.90  33.00  20.00  5.843  1.793  0.969  0.825  0.000  104.3   10.1   94.2    0.0
 1991 287    67  11.80  32.00  21.10  3.128  3.125  0.613  2.512  0.000  107.4   10.7   96.7    0.0
 1991 288    68   7.50  23.50  17.60  1.753  1.753  0.279  1.475  0.000  109.1   11.0   98.1    0.0
 1991 289    69   7.60  17.80  11.60  1.565  1.565  0.283  1.283  0.000  110.7   11.3   99.4    0.0
 1991 290    70  15.50  16.00   8.40  3.019  3.019  0.572  2.447  0.000  113.7   11.9  101.9    0.0
 1991 291    71  26.30  21.50   8.40  5.519  5.080  1.510  3.569  0.000  118.8   13.4  105.4    0.0
 1991 292    72  26.30  24.60  11.00  5.861  4.140  1.706  2.434  0.000  122.9   15.1  107.9    0.0
 1991 293    73  26.30  24.90  12.50  5.937  3.270  1.886  1.384  0.000  126.2   17.0  109.3    0.0
 1991 294    74  24.40  29.60  14.20  5.880  3.134  2.052  1.082  0.000  129.3   19.0  110.3    0.0
 1991 295    75  20.20  29.90  19.80  5.068  2.887  1.967  0.920  0.000  132.2   21.0  111.3    0.0
 1991 296    76   8.30  19.10  12.60  1.718  1.718  0.602  1.115  0.000  134.0   21.6  112.4    0.0
 1991 297    77   7.90  17.40  10.20  1.560  1.560  0.578  0.983  0.000  135.5   22.2  113.4    0.0
 1991 298    78   7.90  21.30  15.40  1.716  1.714  0.797  0.917  0.000  137.2   23.0  114.3    0.0
 1991 299    79  22.70  24.90  16.30  5.175  3.352  2.540  0.812  0.000  140.6   25.5  115.1    0.0
 1991 300    80  12.20  23.30  14.70  2.680  2.162  1.425  0.737  0.000  142.7   26.9  115.8    0.0
 1991 301    81   8.00  20.10  14.90  1.685  1.626  0.948  0.679  0.000  144.4   27.9  116.5    0.0
 1991 302    82   8.00  16.80  15.20  1.614  1.573  0.940  0.633  0.000  145.9   28.8  117.1    0.0
 1991 303    83   8.10  18.00  14.60  1.649  1.649  0.757  0.892  0.000  147.6   29.6  118.0    0.0
 1991 304    84   8.10  20.70  14.60  1.705  1.705  0.801  0.904  0.000  149.3   30.4  118.9    0.0
 1991 305    85  17.90  22.30  13.70  3.807  3.807  1.843  1.964  0.000  153.1   32.2  120.9    0.0
 1991 306    86  25.50  22.30  12.20  5.341  5.341  2.681  2.660  0.000  158.4   34.9  123.6    0.0
 1991 307    87  20.80  22.80  12.80  4.397  4.397  2.935  1.462  0.000  162.8   37.8  125.0    0.0
 1991 308    88  27.90  25.00  11.90  6.002  5.999  3.352  2.648  0.000  168.8   41.2  127.7    0.0
 1991 309    89  20.90  25.90  13.20  4.583  4.583  3.173  1.410  0.000  173.4   44.3  129.1    0.0
 1991 310    90  11.60  24.30  16.20  2.550  2.550  1.455  1.095  0.000  176.0   45.8  130.2    0.0
 1991 311    91  21.40  22.80  13.70  4.514  4.514  2.661  1.853  0.000  180.5   48.5  132.0    0.0
 1991 312    92  20.00  21.40  12.40  4.093  4.093  2.715  1.378  0.000  184.6   51.2  133.4    0.0
 1991 313    93  27.20  23.90   9.20  5.586  5.586  3.426  2.160  0.000  190.2   54.6  135.6    0.0
 1991 314    94  17.60  25.70  11.30  3.760  3.760  2.324  1.436  0.000  193.9   56.9  137.0    0.0
 1991 315    95  18.50  19.00  10.10  3.584  3.584  2.256  1.328  0.000  197.5   59.2  138.3    0.0
 1991 316    96  27.30  19.00   6.40  5.109  5.109  3.249  1.860  0.000  202.6   62.4  140.2    0.0
 1991 317    97  18.50  21.00   8.40  3.621  3.621  2.322  1.298  0.000  206.2   64.8  141.5    0.0
 1991 318    98   8.50  19.90  12.10  1.693  1.693  1.304  0.388  0.000  207.9   66.1  141.9    0.0
 1991 319    99  11.90  22.20  14.00  2.479  2.479  1.623  0.856  0.000  210.4   67.7  142.7    0.0
 1991 320   100  19.50  23.20  12.10  4.044  4.044  2.688  1.356  0.000  214.5   70.4  144.1    0.0
 1991 321   101  21.50  23.00  11.30  4.413  4.413  2.977  1.436  0.000  218.9   73.3  145.5    0.0
 1991 322   102  23.70  27.00  13.30  5.189  5.188  3.863  1.325  0.000  224.1   77.2  146.8    0.0
 1991 323   103  29.90  21.30  13.80  6.123  6.123  4.253  1.870  0.000  230.2   81.5  148.7    0.0
 1991 324   104  24.60  24.40  13.00  5.198  5.198  3.650  1.548  0.000  235.4   85.1  150.3    0.0
 1991 325   105  29.40  28.60  12.50  6.501  6.501  4.624  1.877  0.000  241.9   89.7  152.1    0.0
 1991 326   106  28.60  33.30  13.80  6.732  6.732  5.319  1.412  0.000  248.6   95.1  153.6    0.0
 1991 327   107  24.90  35.20  18.50  6.237  6.237  4.550  1.686  0.000  254.8   99.6  155.2    0.0
 1991 328   108   8.80  19.10  13.80  1.745  1.745  1.290  0.455  0.000  256.6  100.9  155.7    0.0
 1991 329   109   8.80  18.80  14.20  1.743  1.743  1.295  0.449  0.000  258.3  102.2  156.1    0.0
 1991 330   110  14.10  20.20  12.60  2.805  2.805  2.092  0.713  0.000  261.1  104.3  156.9    0.0
 1991 331   111  22.40  24.20  10.70  4.613  4.613  3.458  1.154  0.000  265.8  107.7  158.0    0.0
 1991 332   112  22.30  29.00  14.90  5.028  5.028  3.794  1.234  0.000  270.8  111.5  159.2    0.0
 1991 333   113  16.00  25.60  19.00  3.578  3.578  2.723  0.855  0.000  274.4  114.3  160.1    0.0
 1991 334   114  30.00  28.20  17.50  6.830  6.830  5.240  1.589  0.000  281.2  119.5  161.7    0.0
 1991 335   115  24.30  27.80  14.60  5.383  5.383  4.162  1.221  0.000  286.6  123.7  162.9    0.0
 1991 336   116  29.40  30.10  14.90  6.700  6.700  5.213  1.488  0.000  293.3  128.9  164.4    0.0
 1991 337   117  15.40  27.50  18.00  3.487  3.487  2.729  0.758  0.000  296.8  131.6  165.2    0.0
 1991 338   118  29.90  31.50  16.10  6.980  6.980  6.050  0.930  0.000  303.7  137.7  166.1    0.0
 1991 339   119  14.60  27.30  18.30  3.304  3.304  2.611  0.693  0.000  307.0  140.3  166.8    0.0
 1991 340   120  29.40  31.80  18.90  7.024  7.024  5.571  1.452  0.000  314.1  145.8  168.2    0.0
 1991 341   121  16.80  27.80  19.00  3.842  3.842  3.060  0.783  0.000  317.9  148.9  169.0    0.0
 1991 342   122  28.30  29.80  17.70  6.554  6.554  5.234  1.320  0.000  324.5  154.1  170.3    0.0
 1991 343   123   9.00  22.80  18.90  1.940  1.940  1.554  0.387  0.000  326.4  155.7  170.7    0.0
 1991 344   124  24.70  27.00  18.80  5.588  5.588  4.480  1.108  0.000  332.0  160.2  171.8    0.0
 1991 345   125  19.50  27.60  17.30  4.391  4.391  3.527  0.863  0.000  336.4  163.7  172.7    0.0
 1991 346   126   9.40  23.80  16.60  2.013  2.013  1.620  0.394  0.000  338.4  165.3  173.1    0.0
 1991 347   127  29.90  28.40  15.10  6.681  6.681  5.375  1.306  0.000  345.1  170.7  174.4    0.0
 1991 348   128   9.40  21.90  16.70  1.969  1.969  1.586  0.383  0.000  347.0  172.3  174.8    0.0
 1991 349   129   9.10  23.50  16.70  1.943  1.943  1.565  0.379  0.000  349.0  173.8  175.2    0.0
 1991 350   130  20.20  26.90  17.10  4.505  4.505  3.624  0.880  0.000  353.5  177.5  176.0    0.0
 1991 351   131  27.60  27.80  17.90  6.257  6.257  5.034  1.223  0.000  359.8  182.5  177.3    0.0
 1991 352   132  26.20  31.10  17.80  6.158  6.158  4.954  1.204  0.000  365.9  187.4  178.5    0.0
 1991 353   133  21.60  31.20  17.50  5.071  5.071  4.078  0.993  0.000  371.0  191.5  179.5    0.0
 1991 354   134  28.80  31.00  18.00  6.772  6.772  5.441  1.331  0.000  377.8  197.0  180.8    0.0
 1991 355   135  23.90  32.40  19.90  5.784  5.784  4.643  1.140  0.000  383.5  201.6  181.9    0.0
 1991 356   136  11.20  27.10  20.30  2.566  2.566  2.057  0.509  0.000  386.1  203.7  182.4    0.0
 1991 357   137  23.80  30.00  19.50  5.597  5.597  4.480  1.118  0.000  391.7  208.1  183.6    0.0
 1991 358   138  27.30  30.80  20.60  6.529  6.529  5.216  1.313  0.000  398.2  213.4  184.9    0.0
 1991 359   139  21.00  25.60  17.40  4.626  4.626  3.689  0.937  0.000  402.9  217.1  185.8    0.0
 1991 360   140  23.90  22.70  13.40  4.923  4.923  3.919  1.003  0.000  407.8  221.0  186.8    0.0
 1991 361   141  29.90  25.20  12.40  6.300  6.300  5.009  1.292  0.000  414.1  226.0  188.1    0.0
 1991 362   142  28.80  26.60  14.90  6.296  6.296  4.999  1.297  0.000  420.4  231.0  189.4    0.0
 1991 363   143  30.80  29.30  14.60  6.933  6.933  5.495  1.437  0.000  427.3  236.5  190.8    0.0
 1991 364   144  23.60  30.40  17.40  5.493  5.493  4.417  1.076  0.000  432.8  240.9  191.9    0.0
 1991 365   145  19.50  33.00  21.10  4.794  4.794  3.786  1.008  0.000  437.6  244.7  192.9    0.0
 1992 001   146  10.80  28.00  20.30  2.501  2.501  1.971  0.530  0.000  440.1  246.6  193.4    0.0
 1992 002   147  19.00  28.60  19.10  4.391  4.391  3.452  0.939  0.000  444.5  250.1  194.4    0.0
 1992 003   148  28.00  23.20  14.20  5.846  5.846  4.587  1.260  0.000  450.3  254.7  195.6    0.0
 1992 004   149  31.30  26.80  14.90  6.864  6.864  5.377  1.487  0.000  457.2  260.1  197.1    0.0
 1992 005   150  30.40  28.90  13.10  6.738  6.738  5.270  1.468  0.000  463.9  265.3  198.6    0.0
 1992 006   151  20.50  27.20  15.70  4.546  4.546  3.609  0.937  0.000  468.5  268.9  199.5    0.0
 1992 007   152  25.30  29.60  15.90  5.776  5.776  4.499  1.277  0.000  474.3  273.4  200.8    0.0
 1992 008   153  27.90  31.00  20.10  6.673  6.663  5.176  1.487  0.000  480.9  278.6  202.3    0.0
 1992 009   154  23.60  31.00  20.00  5.641  5.641  4.375  1.266  0.000  486.6  283.0  203.6    0.0
 1992 010   155  21.00  30.00  20.90  4.999  4.999  3.867  1.132  0.000  491.6  286.9  204.7    0.0
 1992 011   156  31.30  27.00  14.90  6.886  6.886  5.312  1.575  0.000  498.4  292.2  206.3    0.0
 1992 012   157  26.60  28.30  13.80  5.892  5.892  4.536  1.356  0.000  504.3  296.7  207.6    0.0
 1992 013   158  31.20  28.00  15.60  6.984  6.984  5.744  1.240  0.000  511.3  302.5  208.9    0.0
 1992 014   159  22.70  28.00  15.50  5.078  5.078  3.891  1.188  0.000  516.4  306.3  210.1    0.0
 1992 015   160  29.40  20.20  10.40  5.728  5.728  4.375  1.353  0.000  522.1  310.7  211.4    0.0
 1992 016   161  29.40  23.40   8.90  5.896  5.896  4.492  1.404  0.000  528.0  315.2  212.8    0.0
 1992 017   162  30.40  27.50  12.20  6.592  6.592  5.011  1.581  0.000  534.6  320.2  214.4    0.0
 1992 018   163  29.50  30.30  13.40  6.672  6.672  5.058  1.614  0.000  541.3  325.3  216.0    0.0
 1992 019   164  22.50  31.20  16.00  5.243  5.243  4.456  0.787  0.000  546.5  329.7  216.8    0.0
 1992 020   165  29.40  33.30  18.00  7.113  7.113  5.360  1.753  0.000  553.6  335.1  218.5    0.0
 1992 021   166  25.10  30.40  19.40  5.947  5.942  4.460  1.482  0.000  559.6  339.6  220.0    0.0
 1992 022   167  26.60  30.00  17.80  6.203  6.203  4.638  1.564  0.000  565.8  344.2  221.6    0.0
 1992 023   168  26.70  28.00  15.80  5.997  5.997  4.467  1.530  0.000  571.8  348.7  223.1    0.0
 1992 024   169  18.90  27.80  16.90  4.272  4.272  3.170  1.102  0.000  576.1  351.8  224.2    0.0
 1992 025   170  15.20  28.30  20.60  3.554  3.554  2.626  0.928  0.000  579.6  354.5  225.2    0.0
 1992 026   171  23.20  29.20  20.50  5.475  5.475  4.028  1.447  0.000  585.1  358.5  226.6    0.0
 1992 027   172  21.30  28.50  19.40  4.949  4.949  3.625  1.324  0.000  590.0  362.1  227.9    0.0
 1992 028   173  17.60  30.00  20.90  4.205  4.205  3.066  1.139  0.000  594.2  365.2  229.1    0.0
 1992 029   174  16.40  29.30  21.50  3.906  3.906  2.835  1.072  0.000  598.1  368.0  230.1    0.0
 1992 030   175   9.60  29.00  21.90  2.287  2.287  1.651  0.636  0.000  600.4  369.7  230.8    0.0
 1992 031   176  17.50  31.00  22.10  4.266  4.266  3.066  1.200  0.000  604.7  372.7  232.0    0.0
 1992 032   177  18.70  31.00  21.00  4.525  4.525  3.235  1.290  0.000  609.2  376.0  233.3    0.0
 1992 033   178  23.00  30.80  22.90  5.631  5.631  4.005  1.626  0.000  614.9  380.0  234.9    0.0
 1992 034   179  14.10  27.30  21.30  3.286  3.286  2.324  0.962  0.000  618.1  382.3  235.9    0.0
 1992 035   180  20.10  28.10  19.90  4.679  4.679  3.292  1.388  0.000  622.8  385.6  237.2    0.0
 1992 036   181  22.50  29.20  20.90  5.343  5.343  3.738  1.605  0.000  628.2  389.3  238.8    0.0
 1992 037   182  23.50  29.50  20.00  5.564  5.564  3.871  1.693  0.000  633.7  393.2  240.5    0.0
 1992 038   183  24.60  31.40  20.40  5.966  5.966  4.721  1.244  0.000  639.7  397.9  241.8    0.0
 1992 039   184  22.80  33.20  20.90  5.658  5.658  3.891  1.767  0.000  645.4  401.8  243.5    0.0
 1992 040   185  11.50  29.00  20.30  2.717  2.716  1.856  0.860  0.000  648.1  403.7  244.4    0.0
 1992 041   186   8.60  25.60  19.60  1.946  1.946  1.323  0.624  0.000  650.0  405.0  245.0    0.0
 1992 042   187  12.70  26.10  19.10  2.881  2.881  1.947  0.934  0.000  652.9  406.9  246.0    0.0
 1992 043   188  25.00  27.10  19.10  5.739  5.739  3.855  1.884  0.000  658.6  410.8  247.8    0.0
 1992 044   189  12.00  29.30  20.20  2.847  2.847  1.901  0.946  0.000  661.5  412.7  248.8    0.0
 1992 045   190   8.10  24.30  19.60  1.809  1.809  1.201  0.608  0.000  663.3  413.9  249.4    0.0
 1992 046   191  22.80  30.10  20.00  5.454  5.454  3.601  1.853  0.000  668.7  417.5  251.3    0.0
 1992 047   192  25.60  30.90  19.90  6.228  6.228  4.388  1.839  0.000  675.0  421.9  253.1    0.0
 1992 048   193  26.40  30.10  19.80  6.425  6.417  3.869  2.548  0.000  681.4  425.7  255.6    0.0
 1992 049   194  27.40  32.50  20.00  6.922  5.398  3.999  1.399  0.000  686.8  429.7  257.0    0.0
 1992 050   195  26.50  33.40  22.90  6.964  4.542  3.453  1.090  0.000  691.3  433.2  258.1    0.0
 1992 051   196  27.40  33.90  23.20  7.318  4.904  3.072  1.832  0.000  696.2  436.3  260.0    0.0
 1992 052   197  15.50  28.60  15.30  3.723  3.723  0.990  2.733  0.000  700.0  437.3  262.7    0.0
 1992 053   198   7.80  19.00  14.40  1.666  1.666  0.353  1.313  0.000  701.6  437.6  264.0    0.0
 1992 054   199  19.40  26.20  17.40  4.667  4.667  0.791  3.876  0.000  706.3  438.4  267.9    0.0
 1992 055   200  26.60  26.40  16.30  6.393  5.429  1.263  4.166  0.000  711.7  439.7  272.1    0.0
 1992 056   201  26.30  25.40  14.60  6.190  3.007  0.997  2.010  0.000  714.7  440.7  274.1    0.0
 1992 057   202  24.50  29.20  14.30  6.036  2.093  0.791  1.302  0.000  716.8  441.5  275.4    0.0

*DSSAT Cropping System Model Ver. 4.0.2.000               Aug 11, 2016; 19:59:12

*RUN   3        : UYSB                    
 MODEL          : CRGRO040 - Soybean         
 EXPERIMENT     : UYSB0145 SB    late to create DSS                             
 TREATMENT  1   : UYSB                    

@YEAR DOY   DAS   SRAA   TMXA   TMNA   EOAA   ETAA   EPAA   ESAA   EFAD   ETAC   EPAC   ESAC   EFAC
 1992 220     0   4.50  21.40   8.20  0.973  0.973  0.000  0.973  0.000    1.0    0.0    1.0    0.0
 1992 221     1  14.50  10.40   1.40  2.487  1.920  0.000  1.920  0.000    2.9    0.0    2.9    0.0
 1992 222     2  10.20  13.40  -0.60  1.798  1.798  0.000  1.798  0.000    4.7    0.0    4.7    0.0
 1992 223     3   9.40  15.40   7.80  1.862  1.862  0.000  1.862  0.000    6.6    0.0    6.6    0.0
 1992 224     4  15.10  14.90   3.90  2.857  2.857  0.000  2.857  0.000    9.4    0.0    9.4    0.0
 1992 225     5  14.50  15.90   6.10  2.847  2.220  0.000  2.220  0.000   11.6    0.0   11.6    0.0
 1992 226     6  15.60  18.00   2.80  3.058  2.684  0.000  2.684  0.000   14.3    0.0   14.3    0.0
 1992 227     7  14.70  18.40   3.00  2.904  1.414  0.000  1.414  0.000   15.7    0.0   15.7    0.0
 1992 228     8   9.50  19.20   5.70  1.948  1.096  0.000  1.096  0.000   16.8    0.0   16.8    0.0
 1992 229     9  15.30  22.20   8.70  3.357  0.928  0.000  0.928  0.000   17.8    0.0   17.8    0.0
 1992 230    10  12.30  23.20   9.70  2.758  0.820  0.000  0.820  0.000   18.6    0.0   18.6    0.0
 1992 231    11  14.00  20.80   9.20  3.029  0.742  0.000  0.742  0.000   19.3    0.0   19.3    0.0
 1992 232    12  13.40  19.60   7.90  2.819  0.683  0.000  0.683  0.000   20.0    0.0   20.0    0.0
 1992 233    13  13.30  19.40   6.20  2.747  0.636  0.000  0.636  0.000   20.6    0.0   20.6    0.0
 1992 234    14  16.90  23.10   9.50  3.778  0.598  0.000  0.598  0.000   21.2    0.0   21.2    0.0
 1992 235    15   7.80  20.10  13.90  1.742  1.200  0.000  1.200  0.000   22.4    0.0   22.4    0.0
 1992 236    16  17.00  19.30   9.60  3.616  2.202  0.015  2.187  0.000   24.6    0.0   24.6    0.0
 1992 237    17  17.80  21.00   7.10  3.787  0.895  0.016  0.879  0.000   25.5    0.0   25.5    0.0
 1992 238    18  18.00  21.20   5.80  3.795  0.803  0.018  0.785  0.000   26.3    0.0   26.3    0.0
 1992 239    19  17.90  20.30   6.20  3.742  0.735  0.018  0.716  0.000   27.1    0.1   27.0    0.0
 1992 240    20  17.60  25.40   6.30  3.940  0.683  0.020  0.663  0.000   27.8    0.1   27.7    0.0
 1992 241    21  11.50  18.80  11.40  2.469  0.633  0.014  0.620  0.000   28.4    0.1   28.3    0.0
 1992 242    22  14.20  24.40  11.00  3.266  0.603  0.019  0.584  0.000   29.0    0.1   28.9    0.0
 1992 243    23   5.50  20.90  15.20  1.254  0.562  0.008  0.554  0.000   29.5    0.1   29.4    0.0
 1992 244    24   7.20  13.80   9.60  1.417  1.417  0.006  1.411  0.000   31.0    0.1   30.8    0.0
 1992 245    25   7.50  14.00   7.20  1.446  0.865  0.010  0.854  0.000   31.8    0.1   31.7    0.0
 1992 246    26   5.70  14.80   8.60  1.127  0.776  0.008  0.768  0.000   32.6    0.2   32.5    0.0
 1992 247    27  14.90  17.40   7.30  3.021  0.725  0.022  0.703  0.000   33.3    0.2   33.2    0.0
 1992 248    28  18.80  18.80   6.80  3.869  0.681  0.029  0.652  0.000   34.0    0.2   33.8    0.0
 1992 249    29  18.30  21.20   6.10  3.868  0.641  0.030  0.611  0.000   34.7    0.2   34.4    0.0
 1992 250    30  18.30  18.80   8.70  3.833  0.608  0.031  0.577  0.000   35.3    0.3   35.0    0.0
 1992 251    31  17.80  20.60   9.70  3.854  0.580  0.032  0.548  0.000   35.8    0.3   35.5    0.0
 1992 252    32   5.90  20.10  13.60  1.313  0.534  0.011  0.523  0.000   36.4    0.3   36.1    0.0
 1992 253    33  11.20  20.00  13.40  2.485  2.485  0.014  2.471  0.000   38.9    0.3   38.5    0.0
 1992 254    34  12.60  21.60  13.10  2.845  2.845  0.018  2.827  0.000   41.7    0.3   41.4    0.0
 1992 255    35   8.60  21.20  14.90  1.962  1.962  0.014  1.947  0.000   43.7    0.4   43.3    0.0
 1992 256    36  16.90  19.30  12.30  3.678  3.678  0.031  3.647  0.000   47.3    0.4   47.0    0.0
 1992 257    37  10.20  16.70   8.80  2.075  1.467  0.031  1.437  0.000   48.8    0.4   48.4    0.0
 1992 258    38  17.10  20.10   6.20  3.560  2.748  0.055  2.692  0.000   51.6    0.5   51.1    0.0
 1992 259    39  19.70  21.30   9.00  4.274  1.485  0.070  1.415  0.000   53.0    0.5   52.5    0.0
 1992 260    40  12.60  22.60  12.60  2.867  1.147  0.050  1.097  0.000   54.2    0.6   53.6    0.0
 1992 261    41  14.90  26.70  15.20  3.639  0.998  0.070  0.928  0.000   55.2    0.7   54.5    0.0
 1992 262    42  19.80  16.60   9.30  4.038  3.121  0.090  3.031  0.000   58.3    0.8   57.6    0.0
 1992 263    43  21.60  19.30   5.20  4.402  1.038  0.104  0.934  0.000   59.3    0.9   58.5    0.0
 1992 264    44  21.40  25.60   5.90  4.775  0.942  0.118  0.824  0.000   60.3    1.0   59.3    0.0
 1992 265    45  21.20  30.00  10.20  5.171  0.883  0.138  0.745  0.000   61.2    1.1   60.1    0.0
 1992 266    46   6.50  12.70   8.80  1.246  1.246  0.023  1.223  0.000   62.4    1.1   61.3    0.0
 1992 267    47  16.00  18.60   6.50  3.266  3.266  0.062  3.204  0.000   65.7    1.2   64.5    0.0
 1992 268    48   6.60  13.20  10.60  1.297  1.297  0.025  1.271  0.000   67.0    1.2   65.8    0.0
 1992 269    49  21.20  12.50   4.50  3.875  3.875  0.079  3.796  0.000   70.9    1.3   69.6    0.0
 1992 270    50  20.60  14.20   0.80  3.720  3.190  0.123  3.067  0.000   74.0    1.4   72.6    0.0
 1992 271    51  21.70  20.00   4.50  4.432  2.890  0.148  2.742  0.000   76.9    1.6   75.4    0.0
 1992 272    52  23.00  21.40   5.30  4.823  1.590  0.171  1.420  0.000   78.5    1.7   76.8    0.0
 1992 273    53  23.30  23.20   6.10  5.040  1.289  0.190  1.099  0.000   79.8    1.9   77.9    0.0
 1992 274    54  22.50  26.20  10.30  5.239  1.142  0.212  0.930  0.000   81.0    2.1   78.8    0.0
 1992 275    55  12.50  26.40  11.00  2.933  0.951  0.130  0.821  0.000   81.9    2.3   79.6    0.0
 1992 276    56  11.80  21.80  13.00  2.657  1.729  0.129  1.600  0.000   83.6    2.4   81.2    0.0
 1992 277    57  17.90  20.60  11.10  3.903  0.983  0.204  0.779  0.000   84.6    2.6   82.0    0.0
 1992 278    58  18.00  25.50  11.70  4.196  0.944  0.233  0.712  0.000   85.6    2.8   82.7    0.0
 1992 279    59   7.10  18.20  11.80  1.507  0.750  0.091  0.659  0.000   86.3    2.9   83.4    0.0
 1992 280    60  24.40  15.90   7.40  4.814  3.418  0.308  3.110  0.000   89.7    3.2   86.5    0.0
 1992 281    61  21.30  15.60   4.20  4.054  3.111  0.268  2.843  0.000   92.8    3.5   89.3    0.0
 1992 282    62  24.30  19.00   3.40  4.822  1.754  0.327  1.428  0.000   94.6    3.8   90.8    0.0
 1992 283    63  24.30  21.00   6.60  5.107  1.460  0.357  1.103  0.000   96.1    4.2   91.9    0.0
 1992 284    64  25.10  25.30   7.30  5.614  1.342  0.410  0.932  0.000   97.4    4.6   92.8    0.0
 1992 285    65  16.70  27.20   9.20  3.884  1.123  0.301  0.822  0.000   98.5    4.9   93.6    0.0
 1992 286    66  22.70  24.00  12.40  5.207  1.174  0.430  0.744  0.000   99.7    5.3   94.4    0.0
 1992 287    67  25.10  25.60   8.60  5.688  1.184  0.500  0.685  0.000  100.9    5.8   95.0    0.0
 1992 288    68  24.70  29.50  11.40  5.995  1.229  0.591  0.637  0.000  102.1    6.4   95.7    0.0
 1992 289    69   7.60  31.50  15.50  1.943  0.820  0.221  0.599  0.000  102.9    6.6   96.3    0.0
 1992 290    70   9.30  20.50  15.70  2.087  2.087  0.179  1.908  0.000  105.0    6.8   98.2    0.0
 1992 291    71  23.40  21.20  12.00  5.126  5.126  0.708  4.418  0.000  110.1    7.5  102.6    0.0
 1992 292    72  25.90  21.20   7.50  5.445  4.047  0.858  3.189  0.000  114.2    8.4  105.8    0.0
 1992 293    73   9.10  19.80  11.20  1.938  1.773  0.328  1.445  0.000  116.0    8.7  107.2    0.0
 1992 294    74  24.10  18.60  10.30  5.004  4.571  0.902  3.669  0.000  120.5    9.6  110.9    0.0
 1992 295    75  26.10  21.30   5.50  5.375  4.764  1.027  3.738  0.000  125.3   10.6  114.7    0.0
 1992 296    76  24.90  24.50   7.60  5.442  3.472  1.106  2.365  0.000  128.8   11.8  117.0    0.0
 1992 297    77  25.00  27.30  12.00  5.853  2.672  1.298  1.374  0.000  131.4   13.1  118.4    0.0
 1992 298    78  24.60  30.90  14.60  6.106  2.605  1.527  1.077  0.000  134.0   14.6  119.5    0.0
 1992 299    79   9.50  26.40  17.60  2.282  1.566  0.650  0.917  0.000  135.6   15.2  120.4    0.0
 1992 300    80  26.70  27.40  17.30  6.447  2.874  2.062  0.812  0.000  138.5   17.3  121.2    0.0
 1992 301    81  27.40  30.00  15.80  6.704  3.158  2.422  0.736  0.000  141.6   19.7  121.9    0.0
 1992 302    82  10.50  15.30   6.40  1.953  1.953  0.753  1.200  0.000  143.6   20.5  123.1    0.0
 1992 303    83  27.70  21.90   3.90  5.521  3.068  2.268  0.800  0.000  146.7   22.7  123.9    0.0
 1992 304    84  26.80  21.80   6.40  5.445  3.052  2.335  0.717  0.000  149.7   25.1  124.7    0.0
 1992 305    85  26.90  23.80   6.80  5.618  3.187  2.523  0.663  0.000  152.9   27.6  125.3    0.0
 1992 306    86  27.10  27.10   9.00  5.994  3.460  2.840  0.620  0.000  156.4   30.4  125.9    0.0
 1992 307    87  27.30  30.20  13.00  6.441  5.600  3.264  2.336  0.000  162.0   33.7  128.3    0.0
 1992 308    88  21.90  19.80   9.40  4.387  4.387  1.848  2.539  0.000  166.4   35.5  130.8    0.0
 1992 309    89  27.20  14.10   6.50  4.880  4.880  2.120  2.759  0.000  171.2   37.7  133.6    0.0
 1992 310    90  24.50  16.40   2.70  4.376  4.251  2.499  1.752  0.000  175.5   40.2  135.3    0.0
 1992 311    91  27.00  19.20   4.80  5.122  5.122  2.519  2.604  0.000  180.6   42.7  137.9    0.0
 1992 312    92  27.40  21.50   7.30  5.481  4.656  3.250  1.406  0.000  185.3   45.9  139.3    0.0
 1992 313    93  28.00  25.20   8.30  5.915  4.714  3.621  1.093  0.000  190.0   49.6  140.4    0.0
 1992 314    94  28.20  29.80  10.00  6.368  4.995  4.069  0.926  0.000  195.0   53.6  141.3    0.0
 1992 315    95   8.60  22.00  16.00  1.848  1.848  1.030  0.818  0.000  196.8   54.7  142.2    0.0
 1992 316    96  23.60  28.40  16.10  5.458  5.458  3.383  2.074  0.000  202.3   58.0  144.2    0.0
 1992 317    97  28.00  29.50  15.30  6.497  5.667  4.717  0.950  0.000  207.9   62.8  145.2    0.0
 1992 318    98  28.50  27.90  12.90  6.359  5.566  4.731  0.835  0.000  213.5   67.5  146.0    0.0
 1992 319    99  19.40  31.40  14.40  4.549  4.549  2.724  1.825  0.000  218.1   70.2  147.9    0.0
 1992 320   100  23.00  25.50  17.30  5.141  5.141  3.185  1.956  0.000  223.2   73.4  149.8    0.0
 1992 321   101  28.80  20.40  11.50  5.747  5.747  3.686  2.061  0.000  228.9   77.1  151.9    0.0
 1992 322   102  28.20  21.50   7.70  5.516  5.516  3.590  1.926  0.000  234.5   80.7  153.8    0.0
 1992 323   103  28.80  23.90   7.20  5.782  5.782  4.585  1.197  0.000  240.2   85.3  155.0    0.0
 1992 324   104  29.50  28.10  11.20  6.443  6.443  4.335  2.109  0.000  246.7   89.6  157.1    0.0
 1992 325   105  22.20  30.00  13.80  5.052  5.050  3.523  1.527  0.000  251.7   93.1  158.6    0.0
 1992 326   106   8.70  21.20  13.60  1.775  1.775  1.250  0.525  0.000  253.5   94.4  159.2    0.0
 1992 327   107  25.70  19.30  10.00  4.951  4.951  3.899  1.051  0.000  258.5   98.3  160.2    0.0
 1992 328   108  22.10  20.60   6.40  4.192  4.192  3.291  0.901  0.000  262.7  101.6  161.1    0.0
 1992 329   109  24.00  26.00  11.10  5.080  5.080  4.279  0.800  0.000  267.7  105.8  161.9    0.0
 1992 330   110  21.90  23.90  15.40  4.674  4.674  3.459  1.214  0.000  272.4  109.3  163.1    0.0
 1992 331   111  19.00  26.00  14.30  4.117  4.117  3.102  1.016  0.000  276.5  112.4  164.1    0.0
 1992 332   112  30.10  27.20  12.90  6.537  6.537  5.005  1.533  0.000  283.1  117.4  165.7    0.0
 1992 333   113  21.00  27.70  13.50  4.606  4.606  3.576  1.030  0.000  287.7  121.0  166.7    0.0
 1992 334   114  19.80  29.80  16.90  4.562  4.562  3.589  0.973  0.000  292.2  124.6  167.7    0.0
 1992 335   115  21.90  28.00  18.70  5.009  5.009  3.993  1.016  0.000  297.2  128.6  168.7    0.0
 1992 336   116  29.50  23.90  14.00  6.193  6.193  5.001  1.192  0.000  303.4  133.6  169.9    0.0
 1992 337   117  30.20  24.80   8.90  6.143  6.143  5.007  1.136  0.000  309.6  138.6  171.0    0.0
 1992 338   118  26.20  27.40   9.70  5.538  5.538  4.543  0.996  0.000  315.1  143.1  172.0    0.0
 1992 339   119  30.30  29.10  13.50  6.733  6.733  5.561  1.171  0.000  321.8  148.7  173.2    0.0
 1992 340   120  18.70  28.20  13.80  4.120  4.120  3.512  0.608  0.000  326.0  152.2  173.8    0.0
 1992 341   121  25.20  29.60  18.90  5.860  5.860  4.921  0.939  0.000  331.8  157.1  174.7    0.0
 1992 342   122  23.30  26.40  15.40  5.085  5.085  4.307  0.778  0.000  336.9  161.4  175.5    0.0
 1992 343   123  25.40  27.90  14.80  5.614  5.614  4.788  0.825  0.000  342.5  166.2  176.3    0.0
 1992 344   124  21.00  26.70  16.50  4.636  4.636  3.980  0.657  0.000  347.2  170.2  177.0    0.0
 1992 345   125  22.70  27.30  18.10  5.107  5.107  4.411  0.697  0.000  352.3  174.6  177.7    0.0
 1992 346   126  23.20  26.50  15.70  5.076  5.076  4.408  0.668  0.000  357.3  179.0  178.4    0.0
 1992 347   127  29.50  27.30  13.40  6.397  6.397  5.582  0.815  0.000  363.7  184.6  179.2    0.0
 1992 348   128  30.90  30.20  14.90  7.009  7.009  6.239  0.770  0.000  370.8  190.8  179.9    0.0
 1992 349   129  28.90  28.40  15.70  6.461  6.461  5.682  0.779  0.000  377.2  196.5  180.7    0.0
 1992 350   130  30.30  28.00  10.00  6.446  6.446  5.689  0.757  0.000  383.7  202.2  181.5    0.0
 1992 351   131  24.80  29.80  12.50  5.496  5.496  4.864  0.632  0.000  389.2  207.0  182.1    0.0
 1992 352   132  19.40  27.60  17.70  4.362  4.362  3.870  0.492  0.000  393.5  210.9  182.6    0.0
 1992 353   133  29.70  30.40  14.50  6.728  6.728  5.985  0.743  0.000  400.2  216.9  183.3    0.0
 1992 354   134  18.00  30.80  14.60  4.099  4.099  3.654  0.444  0.000  404.3  220.6  183.8    0.0
 1992 355   135  31.80  33.80  18.10  7.675  7.675  6.855  0.820  0.000  412.0  227.4  184.6    0.0
 1992 356   136  25.50  32.40  15.70  5.958  5.958  5.333  0.626  0.000  418.0  232.7  185.2    0.0
 1992 357   137  11.20  29.40  18.60  2.586  2.586  2.318  0.268  0.000  420.6  235.1  185.5    0.0
 1992 358   138  11.20  27.70  20.80  2.580  2.580  2.310  0.269  0.000  423.1  237.4  185.8    0.0
 1992 359   139  27.80  28.90  17.70  6.341  6.341  5.674  0.668  0.000  429.5  243.0  186.4    0.0
 1992 360   140  22.90  27.40  15.10  5.034  5.034  4.509  0.525  0.000  434.5  247.6  187.0    0.0
 1992 361   141  31.40  27.40  13.20  6.800  6.800  6.096  0.704  0.000  441.3  253.7  187.7    0.0
 1992 362   142  31.00  28.00  12.60  6.729  6.729  6.036  0.693  0.000  448.0  259.7  188.4    0.0
 1992 363   143  30.00  32.00  13.10  6.845  6.845  6.144  0.701  0.000  454.9  265.8  189.1    0.0
 1992 364   144   9.10  25.60  19.70  2.030  2.030  1.823  0.207  0.000  456.9  267.7  189.3    0.0
 1992 365   145   9.10  23.30  19.60  1.975  1.975  1.768  0.207  0.000  458.9  269.4  189.5    0.0
 1992 366   146   9.10  20.20  19.20  1.896  1.896  1.693  0.204  0.000  460.8  271.1  189.7    0.0
 1993 001   147   9.10  21.20  19.60  1.926  1.926  1.714  0.212  0.000  462.7  272.8  189.9    0.0
 1993 002   148   9.10  21.80  19.40  1.937  1.937  1.719  0.218  0.000  464.7  274.6  190.1    0.0
 1993 003   149   9.10  21.90  19.70  1.944  1.944  1.721  0.224  0.000  466.6  276.3  190.3    0.0
 1993 004   150  14.90  28.90  19.80  3.454  3.454  3.048  0.406  0.000  470.1  279.3  190.7    0.0
 1993 005   151  23.60  30.80  21.50  5.654  5.654  4.985  0.670  0.000  475.7  284.3  191.4    0.0
 1993 006   152  29.90  32.00  19.70  7.164  7.164  6.309  0.855  0.000  482.9  290.6  192.3    0.0
 1993 007   153  12.50  27.20  20.30  2.854  2.854  2.511  0.343  0.000  485.7  293.1  192.6    0.0
 1993 008   154  20.20  26.60  20.10  4.575  4.575  4.018  0.556  0.000  490.3  297.1  193.2    0.0
 1993 009   155  30.70  26.90  16.00  6.761  6.761  5.931  0.831  0.000  497.1  303.1  194.0    0.0
 1993 010   156  30.90  31.10  16.00  7.138  7.138  6.253  0.886  0.000  504.2  309.3  194.9    0.0
 1993 011   157  31.30  32.20  17.60  7.405  7.405  6.477  0.929  0.000  511.6  315.8  195.8    0.0
 1993 012   158  30.90  32.70  19.60  7.456  7.456  6.510  0.947  0.000  519.1  322.3  196.8    0.0
 1993 013   159  22.70  33.00  20.70  5.538  5.538  4.827  0.712  0.000  524.6  327.1  197.5    0.0
 1993 014   160  17.40  30.10  22.30  4.164  4.164  3.622  0.542  0.000  528.8  330.8  198.0    0.0
 1993 015   161  26.90  30.80  22.50  6.495  6.495  5.638  0.857  0.000  535.3  336.4  198.9    0.0
 1993 016   162  17.50  28.50  22.00  4.107  4.107  3.559  0.548  0.000  539.4  340.0  199.4    0.0
 1993 017   163  25.50  23.30  16.60  5.410  5.410  4.677  0.733  0.000  544.8  344.6  200.1    0.0
 1993 018   164  25.10  24.80  11.70  5.212  5.212  4.499  0.713  0.000  550.0  349.1  200.9    0.0
 1993 019   165  26.40  26.50  15.60  5.773  5.773  4.976  0.797  0.000  555.8  354.1  201.7    0.0
 1993 020   166  29.90  30.10  16.60  6.867  6.867  5.907  0.959  0.000  562.6  360.0  202.6    0.0
 1993 021   167  30.10  31.80  16.50  7.039  7.039  6.043  0.996  0.000  569.7  366.1  203.6    0.0
 1993 022   168  30.00  33.20  19.80  7.294  7.294  6.509  0.785  0.000  577.0  372.6  204.4    0.0
 1993 023   169  25.50  34.40  21.60  6.357  6.357  5.434  0.923  0.000  583.3  378.0  205.3    0.0
 1993 024   170  28.20  34.80  22.50  7.104  7.104  6.056  1.048  0.000  590.4  384.1  206.4    0.0
 1993 025   171  15.70  27.60  21.00  3.625  3.625  3.082  0.543  0.000  594.0  387.1  206.9    0.0
 1993 026   172  23.80  31.60  19.00  5.659  5.659  4.798  0.861  0.000  599.7  391.9  207.8    0.0
 1993 027   173   9.00  24.50  19.80  1.988  1.988  1.681  0.307  0.000  601.7  393.6  208.1    0.0
 1993 028   174  27.20  29.50  20.20  6.378  6.378  5.377  1.001  0.000  608.1  399.0  209.1    0.0
 1993 029   175  22.80  28.10  18.70  5.206  5.206  4.375  0.831  0.000  613.3  403.4  209.9    0.0
 1993 030   176  29.70  29.40  18.20  6.857  6.857  5.744  1.113  0.000  620.1  409.1  211.0    0.0
 1993 031   177  12.80  25.20  20.60  2.870  2.870  2.396  0.474  0.000  623.0  411.5  211.5    0.0
 1993 032   178  23.40  28.70  19.40  5.410  5.410  4.502  0.908  0.000  628.4  416.0  212.4    0.0
 1993 033   179  25.90  28.10  19.30  5.945  5.945  4.930  1.015  0.000  634.4  420.9  213.4    0.0
 1993 034   180  23.70  27.90  18.30  5.388  5.388  4.452  0.936  0.000  639.7  425.4  214.4    0.0
 1993 035   181  28.20  27.70  15.20  6.248  6.248  5.143  1.105  0.000  646.0  430.5  215.5    0.0
 1993 036   182  28.20  30.40  18.10  6.585  6.585  5.401  1.184  0.000  652.6  435.9  216.6    0.0
 1993 037   183  22.80  31.20  17.40  5.345  5.345  4.417  0.928  0.000  657.9  440.4  217.6    0.0
 1993 038   184  11.70  23.00  16.40  2.476  2.476  2.015  0.461  0.000  660.4  442.4  218.0    0.0
 1993 039   185   8.40  19.60  14.70  1.680  1.680  1.362  0.318  0.000  662.1  443.7  218.3    0.0
 1993 040   186  15.80  21.20  13.80  3.202  3.202  2.586  0.615  0.000  665.3  446.3  219.0    0.0
 1993 041   187  23.70  26.30  12.00  5.041  5.041  4.056  0.985  0.000  670.3  450.4  219.9    0.0
 1993 042   188  28.70  29.50  14.70  6.476  6.476  5.188  1.288  0.000  676.8  455.6  221.2    0.0
 1993 043   189  25.50  30.70  16.70  5.922  5.922  4.722  1.200  0.000  682.7  460.3  222.4    0.0
 1993 044   190  20.70  27.40  17.00  4.643  4.643  3.685  0.958  0.000  687.4  464.0  223.4    0.0
 1993 045   191  24.10  30.00  15.90  5.523  5.523  4.363  1.160  0.000  692.9  468.3  224.6    0.0
 1993 046   192  26.90  28.80  15.80  6.078  6.078  4.779  1.300  0.000  699.0  473.1  225.9    0.0
 1993 047   193   9.90  25.80  17.10  2.183  2.183  1.708  0.475  0.000  701.1  474.8  226.3    0.0
 1993 048   194   9.70  24.50  18.70  2.134  2.134  1.662  0.472  0.000  703.3  476.5  226.8    0.0
 1993 049   195  19.50  29.40  18.50  4.531  4.531  3.511  1.020  0.000  707.8  480.0  227.8    0.0
 1993 050   196  16.40  27.70  20.00  3.782  3.782  2.916  0.866  0.000  711.6  482.9  228.7    0.0
 1993 051   197  16.50  25.40  17.30  3.631  3.631  2.785  0.846  0.000  715.2  485.7  229.5    0.0
 1993 052   198  25.10  23.00  12.20  5.150  5.150  3.931  1.219  0.000  720.4  489.6  230.8    0.0
 1993 053   199  25.80  26.00  12.20  5.495  5.495  4.176  1.319  0.000  725.9  493.8  232.1    0.0
 1993 054   200  25.50  26.00  13.10  5.472  5.472  4.140  1.332  0.000  731.3  497.9  233.4    0.0
 1993 055   201  26.10  26.10  15.00  5.694  5.694  4.337  1.357  0.000  737.0  502.3  234.8    0.0
 1993 056   202  20.70  26.50  15.50  4.557  4.557  3.416  1.141  0.000  741.6  505.7  235.9    0.0
 1993 057   203  25.60  27.30  15.60  5.694  5.691  4.245  1.446  0.000  747.3  509.9  237.3    0.0
 1993 058   204  25.80  30.60  15.70  6.006  6.006  4.023  1.983  0.000  753.3  514.0  239.3    0.0
 1993 059   205  19.20  32.90  20.40  4.783  4.783  2.838  1.945  0.000  758.1  516.8  241.3    0.0
 1993 060   206  17.10  25.40  16.00  3.828  3.828  1.991  1.837  0.000  761.9  518.8  243.1    0.0
 1993 061   207  21.90  23.60  12.20  4.697  4.697  2.129  2.569  0.000  766.6  520.9  245.7    0.0
 1993 062   208  24.80  25.00  11.80  5.448  5.385  2.764  2.620  0.000  772.0  523.7  248.3    0.0
 1993 063   209  23.10  23.10  10.20  4.934  4.739  2.118  2.621  0.000  776.7  525.8  250.9    0.0
 1993 064   210  17.50  26.00  12.70  3.989  2.851  1.443  1.408  0.000  779.6  527.2  252.3    0.0
 1993 065   211  10.90  26.60  18.30  2.634  1.886  0.793  1.093  0.000  781.5  528.0  253.4    0.0
 1993 066   212   7.30  24.80  20.40  1.767  1.767  0.311  1.456  0.000  783.2  528.3  254.9    0.0
 1993 067   213  17.30  29.00  18.60  4.355  4.355  0.613  3.742  0.000  787.6  529.0  258.6    0.0
 1993 068   214  20.80  27.70  15.50  5.062  4.446  0.848  3.598  0.000  792.0  529.8  262.2    0.0

*DSSAT Cropping System Model Ver. 4.0.2.000               Aug 11, 2016; 19:59:12

*RUN   4        : UYSB                    
 MODEL          : CRGRO040 - Soybean         
 EXPERIMENT     : UYSB0145 SB    late to create DSS                             
 TREATMENT  1   : UYSB                    

@YEAR DOY   DAS   SRAA   TMXA   TMNA   EOAA   ETAA   EPAA   ESAA   EFAD   ETAC   EPAC   ESAC   EFAC
 1993 220     0   4.50  13.00   6.10  0.846  0.846  0.000  0.846  0.000    0.8    0.0    0.8    0.0
 1993 221     1  14.40  11.40   0.40  2.483  2.483  0.000  2.483  0.000    3.3    0.0    3.3    0.0
 1993 222     2  15.00  14.20   0.50  2.710  2.710  0.000  2.710  0.000    6.0    0.0    6.0    0.0
 1993 223     3  13.60  17.80   2.40  2.648  1.911  0.000  1.911  0.000    8.0    0.0    8.0    0.0
 1993 224     4   9.10  19.80   4.40  1.859  1.859  0.000  1.859  0.000    9.8    0.0    9.8    0.0
 1993 225     5  13.40  21.40   5.20  2.819  2.819  0.000  2.819  0.000   12.6    0.0   12.6    0.0
 1993 226     6   9.50  22.60   4.30  2.015  1.738  0.000  1.738  0.000   14.4    0.0   14.4    0.0
 1993 227     7  16.00  24.00   7.40  3.553  3.109  0.000  3.109  0.000   17.5    0.0   17.5    0.0
 1993 228     8  12.00  20.80   7.40  2.555  1.443  0.000  1.443  0.000   18.9    0.0   18.9    0.0
 1993 229     9  14.40  11.40   4.70  2.602  1.574  0.000  1.574  0.000   20.5    0.0   20.5    0.0
 1993 230    10  16.10  15.50  -0.20  2.948  2.283  0.000  2.283  0.000   22.8    0.0   22.8    0.0
 1993 231    11  16.70  18.70   1.60  3.269  1.360  0.000  1.360  0.000   24.1    0.0   24.1    0.0
 1993 232    12  16.40  19.00   2.00  3.237  1.071  0.000  1.071  0.000   25.2    0.0   25.2    0.0
 1993 233    13  15.00  18.60   2.30  2.952  0.913  0.000  0.913  0.000   26.1    0.0   26.1    0.0
 1993 234    14  11.80  20.00   6.40  2.462  0.809  0.000  0.809  0.000   26.9    0.0   26.9    0.0
 1993 235    15  11.00  20.00   5.50  2.276  0.734  0.000  0.734  0.000   27.7    0.0   27.7    0.0
 1993 236    16  17.00  22.60   6.10  3.663  0.692  0.015  0.677  0.000   28.4    0.0   28.3    0.0
 1993 237    17  16.20  24.20   8.80  3.649  0.647  0.016  0.631  0.000   29.0    0.0   29.0    0.0
 1993 238    18  15.20  26.40  10.40  3.566  0.611  0.017  0.594  0.000   29.6    0.0   29.6    0.0
 1993 239    19  14.70  29.20  12.50  3.626  0.581  0.019  0.562  0.000   30.2    0.1   30.1    0.0
 1993 240    20  13.50  31.30  18.70  3.571  0.556  0.021  0.535  0.000   30.7    0.1   30.7    0.0
 1993 241    21   5.40  19.00  15.40  1.203  0.520  0.008  0.512  0.000   31.3    0.1   31.2    0.0
 1993 242    22   5.40  16.30  13.10  1.138  1.138  0.005  1.133  0.000   32.4    0.1   32.3    0.0
 1993 243    23   5.50  12.20   9.20  1.053  1.053  0.005  1.048  0.000   33.5    0.1   33.4    0.0
 1993 244    24   6.30  13.60  10.20  1.244  1.244  0.006  1.238  0.000   34.7    0.1   34.6    0.0
 1993 245    25  14.50  13.00   8.40  2.787  2.787  0.013  2.774  0.000   37.5    0.1   37.4    0.0
 1993 246    26  19.30  17.00   4.50  3.787  3.581  0.030  3.552  0.000   41.1    0.2   40.9    0.0
 1993 247    27  19.40  24.10   5.80  4.251  3.223  0.034  3.189  0.000   44.3    0.2   44.1    0.0
 1993 248    28  19.60  22.00   7.00  4.221  1.481  0.035  1.445  0.000   45.8    0.2   45.6    0.0
 1993 249    29  17.90  23.50   6.30  3.908  1.144  0.034  1.110  0.000   46.9    0.3   46.7    0.0
 1993 250    30  18.40  15.80   7.90  3.666  0.970  0.033  0.937  0.000   47.9    0.3   47.6    0.0
 1993 251    31  19.70  16.90   4.60  3.863  0.861  0.036  0.825  0.000   48.7    0.3   48.4    0.0
 1993 252    32  20.00  19.90   3.90  4.067  0.785  0.038  0.746  0.000   49.5    0.4   49.2    0.0
 1993 253    33  20.10  21.50   4.90  4.218  0.729  0.042  0.686  0.000   50.3    0.4   49.9    0.0
 1993 254    34  17.10  15.00   5.20  3.279  0.675  0.036  0.639  0.000   50.9    0.4   50.5    0.0
 1993 255    35  19.80  19.10   4.00  3.984  0.645  0.045  0.600  0.000   51.6    0.5   51.1    0.0
 1993 256    36   7.30  18.00   5.60  1.468  0.585  0.018  0.568  0.000   52.2    0.5   51.7    0.0
 1993 257    37  13.10  18.20   9.90  2.750  0.575  0.035  0.540  0.000   52.7    0.5   52.2    0.0
 1993 258    38  15.70  22.40   9.20  3.463  0.563  0.047  0.516  0.000   53.3    0.6   52.7    0.0
 1993 259    39  20.70  25.60   7.80  4.700  0.565  0.070  0.495  0.000   53.9    0.7   53.2    0.0
 1993 260    40  21.10  23.00  10.90  4.758  0.554  0.077  0.476  0.000   54.4    0.7   53.7    0.0
 1993 261    41  11.60  24.00  12.20  2.677  0.507  0.047  0.460  0.000   54.9    0.8   54.2    0.0
 1993 262    42  15.70  23.00  10.90  3.539  0.513  0.069  0.444  0.000   55.4    0.8   54.6    0.0
 1993 263    43  16.50  19.10   8.80  3.467  0.597  0.075  0.522  0.000   56.0    0.9   55.1    0.0
 1993 264    44   8.70  11.40   4.10  1.558  0.659  0.036  0.623  0.000   56.7    1.0   55.7    0.0
 1993 265    45   6.50  12.20   4.50  1.184  0.614  0.028  0.587  0.000   57.3    1.0   56.3    0.0
 1993 266    46   6.50  14.90  10.00  1.302  0.587  0.031  0.556  0.000   57.9    1.0   56.9    0.0
 1993 267    47   7.00  17.00  12.00  1.471  0.567  0.037  0.530  0.000   58.5    1.1   57.4    0.0
 1993 268    48   7.80  19.00  12.10  1.685  0.552  0.045  0.507  0.000   59.0    1.1   57.9    0.0
 1993 269    49   9.00  14.90  10.60  1.812  1.812  0.032  1.780  0.000   60.8    1.1   59.7    0.0
 1993 270    50  18.40  21.50  10.30  4.042  4.042  0.075  3.967  0.000   64.9    1.2   63.7    0.0
 1993 271    51  21.60  22.10   8.50  4.707  3.731  0.149  3.581  0.000   68.6    1.4   67.2    0.0
 1993 272    52  15.50  19.80   7.80  3.254  2.388  0.109  2.279  0.000   71.0    1.5   69.5    0.0
 1993 273    53   7.70  20.60  14.30  1.729  1.421  0.062  1.359  0.000   72.4    1.5   70.9    0.0
 1993 274    54   9.30  23.30  15.60  2.183  1.157  0.086  1.071  0.000   73.6    1.6   72.0    0.0
 1993 275    55   6.90  18.60  16.00  1.531  1.531  0.042  1.489  0.000   75.1    1.7   73.4    0.0
 1993 276    56  11.30  19.80  13.40  2.489  2.489  0.075  2.414  0.000   77.6    1.7   75.9    0.0
 1993 277    57   7.30  19.40  12.80  1.591  1.591  0.051  1.539  0.000   79.2    1.8   77.4    0.0
 1993 278    58  22.90  17.40   9.50  4.713  3.806  0.256  3.549  0.000   83.0    2.0   80.9    0.0
 1993 279    59  24.10  20.10   5.30  4.952  2.587  0.280  2.306  0.000   85.6    2.3   83.3    0.0
 1993 280    60  24.80  23.70   7.20  5.438  1.686  0.322  1.364  0.000   87.3    2.6   84.6    0.0
 1993 281    61  19.60  27.50  12.30  4.699  1.369  0.297  1.073  0.000   88.6    2.9   85.7    0.0
 1993 282    62  18.00  29.20  13.10  4.427  1.220  0.306  0.914  0.000   89.8    3.2   86.6    0.0
 1993 283    63  24.70  31.80  17.30  6.450  1.298  0.488  0.810  0.000   91.1    3.7   87.4    0.0
 1993 284    64  23.70  33.30  17.60  6.297  1.261  0.526  0.735  0.000   92.4    4.3   88.1    0.0
 1993 285    65   7.40  23.60  17.20  1.753  0.852  0.175  0.677  0.000   93.3    4.4   88.8    0.0
 1993 286    66   7.40  18.30  16.80  1.633  1.633  0.121  1.512  0.000   94.9    4.6   90.3    0.0
 1993 287    67   9.00  22.10  16.40  2.074  2.074  0.168  1.906  0.000   97.0    4.7   92.2    0.0
 1993 288    68  18.60  24.90  13.90  4.338  4.338  0.398  3.940  0.000  101.3    5.1   96.2    0.0
 1993 289    69  25.30  31.60  14.90  6.413  4.514  1.011  3.503  0.000  105.8    6.1   99.7    0.0
 1993 290    70   9.20  25.70  13.30  2.145  2.145  0.265  1.880  0.000  108.0    6.4  101.6    0.0
 1993 291    71  18.70  21.10   8.70  3.947  3.947  0.551  3.396  0.000  111.9    6.9  105.0    0.0
 1993 292    72  18.30  22.60  12.30  4.056  4.037  0.879  3.158  0.000  115.9    7.8  108.1    0.0
 1993 293    73  16.80  24.50  16.60  3.939  3.939  0.655  3.284  0.000  119.9    8.5  111.4    0.0
 1993 294    74  18.20  26.80  17.30  4.391  4.391  1.177  3.213  0.000  124.3    9.7  114.6    0.0
 1993 295    75   7.80  18.50  12.60  1.626  1.626  0.364  1.262  0.000  125.9   10.0  115.9    0.0
 1993 296    76   7.80  16.40  12.10  1.571  1.571  0.371  1.200  0.000  127.5   10.4  117.1    0.0
 1993 297    77   8.20  17.30  11.60  1.663  1.663  0.409  1.254  0.000  129.1   10.8  118.3    0.0
 1993 298    78  12.90  17.90  10.80  2.614  2.614  0.670  1.944  0.000  131.8   11.5  120.3    0.0
 1993 299    79  27.40  20.00   6.30  5.476  4.985  1.943  3.042  0.000  136.7   13.4  123.3    0.0
 1993 300    80  24.90  22.00   9.00  5.227  4.275  1.929  2.345  0.000  141.0   15.3  125.7    0.0
 1993 301    81  28.20  28.00  11.50  6.498  3.912  2.542  1.370  0.000  144.9   17.9  127.0    0.0
 1993 302    82  15.30  28.40  17.40  3.692  2.651  1.575  1.076  0.000  147.6   19.5  128.1    0.0
 1993 303    83   8.10  22.30  17.50  1.811  1.811  0.707  1.105  0.000  149.4   20.2  129.2    0.0
 1993 304    84   8.10  20.70  15.10  1.734  1.734  0.744  0.990  0.000  151.1   20.9  130.2    0.0
 1993 305    85  25.40  19.10   9.80  5.071  5.071  2.065  3.006  0.000  156.2   23.0  133.2    0.0
 1993 306    86  28.60  24.90   9.40  6.125  6.125  2.791  3.334  0.000  162.3   25.8  136.5    0.0
 1993 307    87  28.20  28.70  12.90  6.486  6.486  3.309  3.176  0.000  168.8   29.1  139.7    0.0
 1993 308    88  28.70  29.00  14.90  6.701  5.465  4.020  1.445  0.000  174.3   33.1  141.2    0.0
 1993 309    89   8.90  21.20  13.80  1.867  1.867  0.911  0.957  0.000  176.1   34.0  142.1    0.0
 1993 310    90  12.90  16.60  10.70  2.472  2.472  1.245  1.227  0.000  178.6   35.3  143.4    0.0
 1993 311    91  28.50  22.70   8.50  5.805  4.723  3.846  0.877  0.000  183.3   39.1  144.2    0.0
 1993 312    92  29.10  27.70   8.60  6.307  5.060  4.276  0.784  0.000  188.4   43.4  145.0    0.0
 1993 313    93  28.70  30.00  12.90  6.596  5.333  4.618  0.715  0.000  193.7   48.0  145.7    0.0
 1993 314    94  22.60  32.30  16.20  5.447  4.614  3.952  0.662  0.000  198.3   51.9  146.4    0.0
 1993 315    95   9.80  28.20  20.20  2.318  2.318  1.364  0.954  0.000  200.7   53.3  147.3    0.0
 1993 316    96  18.70  26.00  17.50  4.216  4.216  2.571  1.645  0.000  204.9   55.9  149.0    0.0
 1993 317    97   8.50  23.70  15.30  1.829  1.829  1.145  0.684  0.000  206.7   57.0  149.7    0.0
 1993 318    98   8.50  19.10  14.90  1.718  1.718  1.100  0.618  0.000  208.4   58.1  150.3    0.0
 1993 319    99   8.60  21.10  15.90  1.796  1.796  1.165  0.631  0.000  210.2   59.3  150.9    0.0
 1993 320   100  10.60  21.80  17.60  2.262  2.262  1.492  0.770  0.000  212.5   60.8  151.7    0.0
 1993 321   101  10.60  20.40  13.50  2.145  2.145  1.444  0.700  0.000  214.6   62.2  152.4    0.0
 1993 322   102  18.70  20.80  12.20  3.758  3.758  2.560  1.198  0.000  218.4   64.8  153.6    0.0
 1993 323   103  29.60  25.10  11.00  6.214  6.214  4.276  1.937  0.000  224.6   69.1  155.5    0.0
 1993 324   104  30.00  27.20  11.70  6.494  6.494  4.507  1.987  0.000  231.1   73.6  157.5    0.0
 1993 325   105  29.90  30.00  13.50  6.779  6.779  5.491  1.288  0.000  237.9   79.1  158.8    0.0
 1993 326   106  28.60  27.40  15.70  6.394  6.387  4.533  1.854  0.000  244.3   83.6  160.7    0.0
 1993 327   107  20.70  28.20  13.80  4.599  4.599  3.313  1.285  0.000  248.9   86.9  161.9    0.0
 1993 328   108  16.20  27.20  19.00  3.699  3.699  2.704  0.995  0.000  252.6   89.6  162.9    0.0
 1993 329   109   9.20  25.20  18.30  2.040  2.040  1.513  0.527  0.000  254.6   91.1  163.5    0.0
 1993 330   110  16.40  21.20  16.40  3.411  3.411  2.560  0.851  0.000  258.0   93.7  164.3    0.0
 1993 331   111  12.80  20.50  14.80  2.602  2.602  1.970  0.632  0.000  260.6   95.7  164.9    0.0
 1993 332   112  23.50  22.20  13.00  4.806  4.806  3.663  1.143  0.000  265.4   99.3  166.1    0.0
 1993 333   113  27.20  26.10  10.30  5.708  5.708  4.378  1.330  0.000  271.1  103.7  167.4    0.0
 1993 334   114   9.80  18.00  14.60  1.923  1.923  1.485  0.438  0.000  273.0  105.2  167.9    0.0
 1993 335   115  29.40  21.90   9.30  5.797  5.797  4.491  1.306  0.000  278.8  109.7  169.2    0.0
 1993 336   116  31.10  28.30  10.40  6.703  6.703  5.215  1.487  0.000  285.5  114.9  170.7    0.0
 1993 337   117  16.80  28.50  19.10  3.879  3.879  3.038  0.841  0.000  289.4  117.9  171.5    0.0
 1993 338   118   9.00  24.80  16.90  1.957  1.957  1.545  0.413  0.000  291.4  119.5  171.9    0.0
 1993 339   119  27.20  21.00  13.50  5.489  5.489  4.354  1.135  0.000  296.9  123.8  173.0    0.0
 1993 340   120  10.90  24.40  13.50  2.295  2.295  1.827  0.468  0.000  299.2  125.7  173.5    0.0
 1993 341   121  20.10  28.00  19.00  4.607  4.607  3.682  0.925  0.000  303.8  129.3  174.4    0.0
 1993 342   122  21.40  28.50  17.80  4.887  4.887  3.926  0.961  0.000  308.7  133.3  175.4    0.0
 1993 343   123  30.00  29.90  16.00  6.864  6.864  5.540  1.324  0.000  315.5  138.8  176.7    0.0
 1993 344   124  26.90  28.00  18.10  6.119  6.119  4.959  1.161  0.000  321.6  143.8  177.9    0.0
 1993 345   125  30.40  30.30  15.50  6.958  6.958  6.168  0.790  0.000  328.6  149.9  178.7    0.0
 1993 346   126  28.20  32.20  19.90  6.804  6.804  5.552  1.252  0.000  335.4  155.5  179.9    0.0
 1993 347   127   9.40  25.40  20.00  2.105  2.105  1.723  0.382  0.000  337.5  157.2  180.3    0.0
 1993 348   128  22.00  27.20  20.30  5.039  5.039  4.130  0.909  0.000  342.5  161.3  181.2    0.0
 1993 349   129   9.10  21.50  15.80  1.881  1.881  1.544  0.336  0.000  344.4  162.9  181.5    0.0
 1993 350   130  28.10  23.10  14.90  5.879  5.879  4.830  1.049  0.000  350.3  167.7  182.6    0.0
 1993 351   131  31.30  28.30  12.90  6.860  6.860  5.643  1.217  0.000  357.2  173.3  183.8    0.0
 1993 352   132  26.60  29.10  16.40  6.044  6.044  4.978  1.066  0.000  363.2  178.3  184.9    0.0
 1993 353   133  29.30  29.90  16.50  6.722  6.722  5.541  1.181  0.000  369.9  183.9  186.1    0.0
 1993 354   134  27.60  21.40  13.60  5.591  5.591  4.612  0.980  0.000  375.5  188.5  187.0    0.0
 1993 355   135  31.80  23.30   8.40  6.314  6.314  5.447  0.868  0.000  381.8  193.9  187.9    0.0
 1993 356   136  29.40  29.30  12.90  6.518  6.518  5.374  1.144  0.000  388.4  199.3  189.1    0.0
 1993 357   137  29.30  32.50  16.50  6.918  6.911  5.696  1.214  0.000  395.3  205.0  190.3    0.0
 1993 358   138  30.60  31.80  18.50  7.275  7.275  5.996  1.278  0.000  402.5  211.0  191.5    0.0
 1993 359   139  20.10  32.40  21.00  4.896  4.896  4.034  0.862  0.000  407.4  215.0  192.4    0.0
 1993 360   140  23.00  29.20  20.60  5.397  5.397  4.443  0.954  0.000  412.8  219.5  193.4    0.0
 1993 361   141   9.10  23.20  19.30  1.975  1.975  1.624  0.351  0.000  414.8  221.1  193.7    0.0
 1993 362   142  23.00  26.50  15.70  5.045  5.045  4.142  0.903  0.000  419.9  225.2  194.6    0.0
 1993 363   143  22.50  21.30  14.60  4.592  4.592  3.766  0.826  0.000  424.4  229.0  195.4    0.0
 1993 364   144  31.30  25.40  11.00  6.526  6.526  5.343  1.182  0.000  431.0  234.3  196.6    0.0
 1993 365   145  31.30  27.90  13.10  6.840  6.840  5.594  1.247  0.000  437.8  239.9  197.9    0.0
 1994 001   146  31.50  28.20  15.80  7.055  7.055  5.760  1.295  0.000  444.9  245.7  199.2    0.0
 1994 002   147  30.40  24.20  12.90  6.345  6.345  5.422  0.923  0.000  451.2  251.1  200.1    0.0
 1994 003   148  31.50  24.90  10.40  6.497  6.497  5.287  1.209  0.000  457.7  256.4  201.3    0.0
 1994 004   149  30.10  27.50  12.70  6.528  6.523  5.301  1.223  0.000  464.2  261.7  202.5    0.0
 1994 005   150  29.60  30.00  15.20  6.738  6.738  5.467  1.271  0.000  471.0  267.2  203.8    0.0
 1994 006   151  12.50  31.30  18.80  2.965  2.965  2.401  0.564  0.000  473.9  269.6  204.4    0.0
 1994 007   152  18.50  30.30  18.80  4.341  4.341  3.507  0.833  0.000  478.3  273.1  205.2    0.0
 1994 008   153  19.30  25.50  18.50  4.280  4.280  3.452  0.828  0.000  482.6  276.5  206.0    0.0
 1994 009   154  30.40  23.60  16.40  6.485  6.485  5.220  1.265  0.000  489.0  281.8  207.3    0.0
 1994 010   155  31.30  24.20  11.20  6.446  6.446  5.181  1.265  0.000  495.5  286.9  208.5    0.0
 1994 011   156  31.30  28.20  11.50  6.785  6.785  5.445  1.340  0.000  502.3  292.4  209.9    0.0
 1994 012   157  28.90  29.20  14.40  6.484  6.484  5.194  1.290  0.000  508.8  297.6  211.2    0.0
[...]
 1995 231    11  16.40  13.20  -0.70  2.879  0.930  0.000  0.930  0.000   19.2    0.0   19.2    0.0
 1995 232    12  15.80  15.00  -1.10  2.843  0.821  0.000  0.821  0.000   20.0    0.0   20.0    0.0
 1995 233    13  11.10  19.70   3.20  2.239  0.743  0.000  0.743  0.000   20.8    0.0   20.8    0.0
 1995 234    14  16.60  23.00   6.30  3.604  0.684  0.000  0.684  0.000   21.4    0.0   21.4    0.0
 1995 235    15  16.70  31.80  14.30  4.304  0.637  0.000  0.637  0.000   22.1    0.0   22.1    0.0
 1995 236    16  14.60  30.40  19.30  3.844  0.598  0.000  0.598  0.000   22.7    0.0   22.7    0.0
 1995 237    17   8.70  29.00  18.30  2.239  0.566  0.000  0.566  0.000   23.2    0.0   23.2    0.0
 1995 238    18  11.70  30.40  18.30  3.057  0.551  0.012  0.539  0.000   23.8    0.0   23.8    0.0
 1995 239    19  12.20  28.30  15.20  3.041  0.793  0.015  0.778  0.000   24.6    0.0   24.6    0.0
 1995 240    20   7.90  20.00  13.40  1.753  1.753  0.006  1.748  0.000   26.3    0.0   26.3    0.0
 1995 241    21   6.50  24.60   9.70  1.482  1.482  0.005  1.477  0.000   27.8    0.0   27.8    0.0
 1995 242    22  17.50  20.00  11.00  3.803  3.096  0.024  3.072  0.000   30.9    0.1   30.9    0.0
 1995 243    23  12.20  25.30   9.40  2.800  2.605  0.018  2.587  0.000   33.5    0.1   33.4    0.0
 1995 244    24  13.10  20.60   6.00  2.744  1.423  0.019  1.404  0.000   34.9    0.1   34.8    0.0
 1995 245    25  19.80  15.20   3.00  3.726  1.119  0.027  1.092  0.000   36.1    0.1   35.9    0.0
 1995 246    26  18.60  18.10   1.60  3.605  0.952  0.027  0.925  0.000   37.0    0.2   36.9    0.0
 1995 247    27  14.80  22.20   7.00  3.196  0.842  0.024  0.818  0.000   37.9    0.2   37.7    0.0
 1995 248    28  18.00  28.80  13.60  4.456  0.776  0.035  0.741  0.000   38.6    0.2   38.4    0.0
 1995 249    29  19.60  30.80  14.20  4.986  0.724  0.042  0.682  0.000   39.4    0.3   39.1    0.0
 1995 250    30  19.10  32.00  13.60  4.903  0.680  0.045  0.635  0.000   40.0    0.3   39.7    0.0
 1995 251    31   8.00  24.30  15.80  1.910  1.190  0.021  1.169  0.000   41.2    0.3   40.9    0.0
 1995 252    32   5.90  18.40  12.90  1.276  1.276  0.010  1.265  0.000   42.5    0.3   42.2    0.0
 1995 253    33   5.90  16.90  12.90  1.250  1.250  0.011  1.239  0.000   43.8    0.3   43.4    0.0
 1995 254    34  12.10  20.00   9.10  2.583  2.583  0.024  2.558  0.000   46.3    0.4   46.0    0.0
 1995 255    35  20.20  12.30   3.30  3.641  3.183  0.059  3.124  0.000   49.5    0.4   49.1    0.0
 1995 256    36   6.10  10.10   7.50  1.110  1.110  0.011  1.099  0.000   50.6    0.4   50.2    0.0
 1995 257    37   7.50  13.90   7.40  1.445  1.445  0.015  1.430  0.000   52.1    0.5   51.6    0.0
 1995 258    38  20.00  19.00   6.60  4.115  3.902  0.071  3.831  0.000   56.0    0.5   55.4    0.0
 1995 259    39  21.50  21.80   7.40  4.629  3.242  0.084  3.159  0.000   59.2    0.6   58.6    0.0
 1995 260    40  18.90  26.00   8.80  4.347  1.529  0.085  1.444  0.000   60.7    0.7   60.1    0.0
 1995 261    41  21.10  24.40   8.60  4.746  1.214  0.104  1.110  0.000   62.0    0.8   61.2    0.0
 1995 262    42  19.10  13.80   5.50  3.602  1.022  0.086  0.936  0.000   63.0    0.9   62.1    0.0
 1995 263    43  21.30  14.10   1.50  3.872  0.920  0.095  0.825  0.000   63.9    1.0   62.9    0.0
 1995 264    44  21.40  18.00   3.10  4.195  0.851  0.105  0.746  0.000   64.8    1.1   63.7    0.0
 1995 265    45   6.50  14.50   8.10  1.271  1.271  0.021  1.250  0.000   66.0    1.1   64.9    0.0
 1995 266    46  14.50  17.90   8.90  2.998  1.050  0.080  0.970  0.000   67.1    1.2   65.9    0.0
 1995 267    47  18.90  22.20   8.10  4.111  0.964  0.116  0.848  0.000   68.0    1.3   66.7    0.0
 1995 268    48  19.80  23.30   9.00  4.402  3.332  0.132  3.200  0.000   71.4    1.4   69.9    0.0
 1995 269    49  18.90  23.00  12.90  4.326  0.981  0.139  0.843  0.000   72.4    1.6   70.8    0.0
 1995 270    50  10.40  17.60   8.30  2.127  0.834  0.075  0.759  0.000   73.2    1.6   71.5    0.0
 1995 271    51   6.90  15.20   7.90  1.358  0.747  0.051  0.696  0.000   73.9    1.7   72.2    0.0
 1995 272    52   6.80  13.70  11.10  1.351  1.351  0.033  1.318  0.000   75.3    1.7   73.6    0.0
 1995 273    53  17.50  19.40  11.40  3.771  0.833  0.153  0.680  0.000   76.1    1.9   74.2    0.0
 1995 274    54  17.60  20.80   8.50  3.764  0.798  0.164  0.634  0.000   76.9    2.0   74.9    0.0
 1995 275    55   6.90  22.50  12.80  1.565  0.668  0.072  0.596  0.000   77.6    2.1   75.5    0.0
 1995 276    56   7.00  18.00  12.60  1.495  1.495  0.047  1.448  0.000   79.1    2.2   76.9    0.0
 1995 277    57  11.50  22.00  14.20  2.621  2.621  0.088  2.533  0.000   81.7    2.3   79.4    0.0
 1995 278    58   8.40  21.80  15.40  1.928  1.928  0.070  1.859  0.000   83.6    2.3   81.3    0.0
 1995 279    59  12.40  23.80  16.50  2.941  2.941  0.117  2.825  0.000   86.6    2.4   84.1    0.0
 1995 280    60  20.30  22.60  13.60  4.630  4.245  0.318  3.927  0.000   90.8    2.8   88.1    0.0
 1995 281    61  24.00  21.10  10.70  5.236  4.280  0.387  3.893  0.000   95.1    3.1   91.9    0.0
 1995 282    62  24.90  18.30   7.80  5.094  2.621  0.398  2.223  0.000   97.7    3.5   94.2    0.0
 1995 283    63  25.70  20.20   7.10  5.360  1.782  0.433  1.349  0.000   99.5    4.0   95.5    0.0
 1995 284    64  22.80  22.00   7.20  4.875  1.474  0.409  1.066  0.000  101.0    4.4   96.6    0.0
 1995 285    65   7.40  16.80  11.50  1.532  1.532  0.086  1.446  0.000  102.5    4.5   98.0    0.0
 1995 286    66  21.40  15.00   6.90  4.133  4.133  0.244  3.890  0.000  106.6    4.7  101.9    0.0
 1995 287    67  25.90  20.90   4.40  5.312  3.649  0.503  3.146  0.000  110.3    5.2  105.1    0.0
 1995 288    68  25.80  26.30   9.70  5.942  2.296  0.600  1.696  0.000  112.6    5.8  106.8    0.0
 1995 289    69  25.60  23.00   9.90  5.657  1.856  0.646  1.210  0.000  114.4    6.5  108.0    0.0
 1995 290    70  16.60  19.00   6.00  3.353  1.417  0.423  0.993  0.000  115.9    6.9  109.0    0.0
 1995 291    71  26.30  22.20   7.10  5.600  1.609  0.745  0.863  0.000  117.5    7.6  109.8    0.0
 1995 292    72  19.20  22.80   8.30  4.159  1.374  0.600  0.774  0.000  118.8    8.2  110.6    0.0
 1995 293    73  25.20  22.10   8.80  5.424  1.561  0.854  0.708  0.000  120.4    9.1  111.3    0.0
 1995 294    74  25.70  23.00   6.00  5.453  1.588  0.932  0.656  0.000  122.0   10.0  112.0    0.0
 1995 295    75  26.90  26.10  11.10  6.189  1.759  1.145  0.614  0.000  123.7   11.2  112.6    0.0
 1995 296    76  26.20  30.10  12.80  6.389  1.908  1.328  0.580  0.000  125.7   12.5  113.2    0.0
 1995 297    77  24.80  31.00  15.20  6.200  2.020  1.470  0.550  0.000  127.7   14.0  113.7    0.0
 1995 298    78  10.30  24.70  18.10  2.439  1.509  0.662  0.846  0.000  129.2   14.6  114.6    0.0
 1995 299    79   7.90  18.30  10.80  1.616  1.616  0.364  1.252  0.000  130.8   15.0  115.8    0.0
 1995 300    80  11.40  14.40   9.10  2.170  2.170  0.513  1.657  0.000  133.0   15.5  117.5    0.0
 1995 301    81  27.50  18.00   5.80  5.337  5.337  1.298  4.039  0.000  138.3   16.8  121.5    0.0
 1995 302    82  27.50  17.40   5.30  5.258  4.256  1.779  2.476  0.000  142.6   18.6  124.0    0.0
 1995 303    83  27.70  19.70   6.20  5.511  3.870  1.923  1.947  0.000  146.4   20.5  125.9    0.0
 1995 304    84  27.80  23.80  10.10  6.034  3.484  2.197  1.286  0.000  149.9   22.7  127.2    0.0
 1995 305    85  27.90  27.00  12.10  6.382  3.536  2.502  1.034  0.000  153.4   25.2  128.2    0.0
 1995 306    86  27.80  28.20  14.70  6.554  3.705  2.815  0.890  0.000  157.2   28.0  129.1    0.0
 1995 307    87  27.30  30.10  15.70  6.593  3.907  3.114  0.793  0.000  161.1   31.1  129.9    0.0
 1995 308    88  27.90  33.00  18.10  7.041  4.362  3.640  0.722  0.000  165.4   34.8  130.7    0.0
 1995 309    89  28.20  33.20  21.00  7.239  4.750  4.082  0.667  0.000  170.2   38.9  131.3    0.0
 1995 310    90  18.70  31.50  19.50  4.639  3.468  2.830  0.638  0.000  173.6   41.7  132.0    0.0
 1995 311    91   8.40  22.80  18.90  1.870  1.870  0.942  0.928  0.000  175.5   42.6  132.9    0.0
 1995 312    92   8.70  22.80  18.60  1.925  1.925  1.019  0.906  0.000  177.4   43.6  133.8    0.0
 1995 313    93   8.80  24.10  18.00  1.962  1.962  1.086  0.876  0.000  179.4   44.7  134.7    0.0
 1995 314    94  21.60  23.10  14.80  4.623  4.623  2.665  1.958  0.000  184.0   47.4  136.6    0.0
 1995 315    95  27.10  25.00  11.80  5.777  5.777  3.456  2.321  0.000  189.8   50.8  138.9    0.0
 1995 316    96  18.50  22.40  11.70  3.807  3.807  2.585  1.222  0.000  193.6   53.4  140.2    0.0
 1995 317    97  26.90  24.80  11.70  5.696  5.696  3.569  2.127  0.000  199.3   57.0  142.3    0.0
 1995 318    98  23.50  25.80  15.80  5.202  5.201  3.401  1.800  0.000  204.5   60.4  144.1    0.0
 1995 319    99  21.10  25.60  16.20  4.670  4.670  2.997  1.672  0.000  209.2   63.4  145.8    0.0
 1995 320   100  13.80  23.80  13.80  2.927  2.927  1.921  1.006  0.000  212.1   65.3  146.8    0.0
 1995 321   101  20.50  22.90  12.70  4.254  4.254  2.854  1.400  0.000  216.3   68.2  148.2    0.0
 1995 322   102  27.80  22.50  13.00  5.747  5.747  3.927  1.821  0.000  222.1   72.1  150.0    0.0
 1995 323   103  29.10  24.30  11.30  6.060  6.060  4.209  1.850  0.000  228.2   76.3  151.8    0.0
 1995 324   104  29.80  25.00  13.00  6.342  6.342  4.843  1.499  0.000  234.5   81.2  153.3    0.0
 1995 325   105  20.50  28.20  13.90  4.560  4.560  3.257  1.303  0.000  239.1   84.4  154.6    0.0
 1995 326   106  12.90  26.90  19.20  2.941  2.941  2.140  0.801  0.000  242.0   86.6  155.4    0.0
 1995 327   107  18.70  24.30  17.20  4.068  4.068  3.016  1.052  0.000  246.1   89.6  156.5    0.0
 1995 328   108  22.60  25.10  13.80  4.825  4.824  3.636  1.188  0.000  250.9   93.2  157.7    0.0
 1995 329   109  22.30  26.00  12.20  4.748  4.748  3.629  1.119  0.000  255.6   96.8  158.8    0.0
 1995 330   110  27.10  28.60  17.50  6.196  6.196  4.775  1.421  0.000  261.8  101.6  160.2    0.0
 1995 331   111  28.80  20.10  12.30  5.691  5.691  4.444  1.246  0.000  267.5  106.1  161.5    0.0
 1995 332   112  30.10  24.40   7.40  6.026  6.026  4.736  1.290  0.000  273.6  110.8  162.8    0.0
 1995 333   113  31.00  27.00  12.80  6.699  6.699  5.301  1.397  0.000  280.3  116.1  164.2    0.0
 1995 334   114  28.80  32.10  13.30  6.623  6.623  5.289  1.334  0.000  286.9  121.4  165.5    0.0
 1995 335   115  12.70  26.80  18.10  2.851  2.851  2.297  0.553  0.000  289.7  123.7  166.0    0.0
 1995 336   116  22.60  29.80  17.60  5.225  5.225  4.336  0.890  0.000  294.9  128.0  166.9    0.0
 1995 337   117  27.90  29.50  16.20  6.360  6.360  5.213  1.147  0.000  301.3  133.2  168.1    0.0
 1995 338   118  30.30  31.00  16.30  7.026  7.026  5.801  1.225  0.000  308.3  139.0  169.3    0.0
 1995 339   119  27.00  32.70  17.20  6.419  6.419  5.334  1.084  0.000  314.8  144.4  170.4    0.0
 1995 340   120  30.30  33.40  18.30  7.312  7.312  6.114  1.199  0.000  322.1  150.5  171.6    0.0
 1995 341   121  23.00  33.80  14.20  5.411  5.411  4.550  0.861  0.000  327.5  155.0  172.5    0.0
 1995 342   122  30.30  23.70  13.40  6.300  6.300  5.321  0.979  0.000  333.8  160.3  173.4    0.0
 1995 343   123  31.20  25.50   8.40  6.363  6.363  5.520  0.843  0.000  340.1  165.9  174.3    0.0
 1995 344   124  31.20  29.50   9.50  6.742  6.742  5.728  1.014  0.000  346.9  171.6  175.3    0.0
 1995 345   125  25.30  30.90  10.80  5.613  5.613  4.784  0.829  0.000  352.5  176.4  176.1    0.0
 1995 346   126  31.40  26.40   9.20  6.517  6.517  5.571  0.947  0.000  359.0  181.9  177.1    0.0
 1995 347   127  31.10  32.00  11.50  7.024  7.024  6.017  1.006  0.000  366.0  188.0  178.1    0.0
 1995 348   128  30.60  29.70  13.30  6.824  6.824  5.861  0.963  0.000  372.9  193.8  179.0    0.0
 1995 349   129  28.90  32.90  10.10  6.523  6.523  5.616  0.907  0.000  379.4  199.4  179.9    0.0
 1995 350   130  26.30  37.20  18.40  7.259  7.259  6.263  0.996  0.000  386.6  205.7  180.9    0.0
 1995 351   131  31.20  34.70  16.80  7.542  7.542  6.523  1.020  0.000  394.2  212.2  182.0    0.0
 1995 352   132  28.80  38.30  20.80  8.538  8.538  7.398  1.140  0.000  402.7  219.6  183.1    0.0
 1995 353   133  31.40  33.40  18.90  7.597  7.597  6.597  1.000  0.000  410.3  226.2  184.1    0.0
 1995 354   134  31.40  34.90  14.30  7.471  7.471  6.496  0.975  0.000  417.8  232.7  185.1    0.0
 1995 355   135  24.20  36.30  22.10  6.532  6.532  5.686  0.846  0.000  424.3  238.4  185.9    0.0
 1995 356   136  18.80  29.20  20.00  4.381  4.381  3.817  0.564  0.000  428.7  242.2  186.5    0.0
 1995 357   137  10.20  22.70  19.50  2.198  2.198  1.916  0.282  0.000  430.9  244.1  186.8    0.0
 1995 358   138   9.30  23.40  20.00  2.029  2.029  1.767  0.261  0.000  432.9  245.9  187.0    0.0
 1995 359   139  10.90  25.50  18.10  2.401  2.401  2.089  0.312  0.000  435.3  248.0  187.3    0.0
 1995 360   140  31.90  27.60  16.00  7.085  7.085  6.161  0.925  0.000  442.4  254.2  188.3    0.0
 1995 361   141  31.10  27.00  14.60  6.785  6.785  5.899  0.886  0.000  449.2  260.1  189.1    0.0
 1995 362   142  31.40  27.90  14.80  6.934  6.934  6.026  0.908  0.000  456.1  266.1  190.1    0.0
 1995 363   143  30.70  29.00  15.10  6.882  6.882  5.978  0.904  0.000  463.0  272.1  191.0    0.0
 1995 364   144  31.30  28.90  14.90  6.998  6.998  6.074  0.924  0.000  470.0  278.1  191.9    0.0
 1995 365   145  29.60  28.00  15.00  6.555  6.555  5.685  0.870  0.000  476.6  283.8  192.8    0.0
 1996 001   146  31.30  29.40  14.00  6.990  6.990  6.057  0.934  0.000  483.6  289.9  193.7    0.0
 1996 002   147  31.30  33.00  17.60  7.473  7.473  6.467  1.005  0.000  491.0  296.3  194.7    0.0
 1996 003   148  30.40  35.00  20.90  7.586  7.586  6.556  1.030  0.000  498.6  302.9  195.7    0.0
 1996 004   149  15.90  28.20  21.90  3.718  3.718  3.208  0.510  0.000  502.3  306.1  196.2    0.0
 1996 005   150  29.60  28.70  19.20  6.823  6.823  5.876  0.946  0.000  509.2  312.0  197.2    0.0
 1996 006   151  31.50  26.00  14.60  6.795  6.795  5.845  0.950  0.000  516.0  317.8  198.1    0.0
 1996 007   152  31.30  28.50  12.90  6.862  6.862  5.894  0.968  0.000  522.8  323.7  199.1    0.0
 1996 008   153  31.30  29.20  15.10  7.036  7.036  6.036  1.001  0.000  529.9  329.8  200.1    0.0
 1996 009   154  21.90  29.60  15.80  4.972  4.972  4.259  0.714  0.000  534.8  334.0  200.8    0.0
 1996 010   155  30.60  33.20  16.90  7.288  7.288  6.231  1.057  0.000  542.1  340.2  201.9    0.0
 1996 011   156   9.70  25.90  18.30  2.152  2.152  1.837  0.315  0.000  544.3  342.1  202.2    0.0
 1996 012   157  27.00  29.10  20.00  6.291  6.291  5.359  0.932  0.000  550.6  347.4  203.1    0.0
 1996 013   158  22.00  30.10  18.10  5.111  5.111  4.347  0.765  0.000  555.7  351.8  203.9    0.0
 1996 014   159  30.40  26.70  14.50  6.611  6.611  5.611  1.000  0.000  562.3  357.4  204.9    0.0
 1996 015   160  26.00  28.40  12.90  5.697  5.697  4.828  0.869  0.000  568.0  362.2  205.7    0.0
 1996 016   161  18.30  29.60  18.90  4.254  4.254  3.599  0.655  0.000  572.2  365.8  206.4    0.0
 1996 017   162  18.10  24.60  18.70  3.970  3.970  3.351  0.619  0.000  576.2  369.2  207.0    0.0
 1996 018   163  27.30  27.70  16.70  6.112  6.112  5.148  0.963  0.000  582.3  374.3  208.0    0.0
 1996 019   164  25.20  27.30  16.50  5.608  5.608  4.713  0.894  0.000  587.9  379.0  208.9    0.0
 1996 020   165  21.90  26.20  16.40  4.808  4.808  4.032  0.777  0.000  592.7  383.1  209.7    0.0
 1996 021   166  23.30  29.30  16.90  5.322  5.322  4.451  0.871  0.000  598.0  387.5  210.5    0.0
 1996 022   167  24.20  29.80  20.30  5.700  5.700  4.755  0.945  0.000  603.7  392.3  211.5    0.0
 1996 023   168  24.00  30.10  18.00  5.578  5.578  4.640  0.938  0.000  609.3  396.9  212.4    0.0
 1996 024   169   8.80  21.00  16.80  1.821  1.821  1.511  0.311  0.000  611.1  398.4  212.7    0.0
 1996 025   170   9.60  25.40  21.10  2.167  2.167  1.793  0.374  0.000  613.3  400.2  213.1    0.0
 1996 026   171   8.70  21.60  17.60  1.827  1.827  1.507  0.320  0.000  615.1  401.7  213.4    0.0
 1996 027   172  22.20  29.30  16.50  5.059  5.059  4.162  0.897  0.000  620.2  405.9  214.3    0.0
 1996 028   173  25.70  30.30  17.20  5.955  5.955  4.883  1.072  0.000  626.2  410.8  215.4    0.0
 1996 029   174   8.80  24.00  20.60  1.948  1.948  1.592  0.356  0.000  628.1  412.4  215.7    0.0
 1996 030   175  25.50  29.90  21.90  6.090  6.090  4.961  1.129  0.000  634.2  417.3  216.9    0.0
 1996 031   176  16.20  27.50  20.10  3.720  3.720  3.019  0.701  0.000  637.9  420.3  217.6    0.0
 1996 032   177  22.20  27.40  18.80  5.043  5.043  4.078  0.965  0.000  643.0  424.4  218.5    0.0
 1996 033   178  18.00  26.50  15.20  3.937  3.937  3.172  0.765  0.000  646.9  427.6  219.3    0.0
 1996 034   179  27.20  28.90  17.20  6.211  6.211  4.986  1.225  0.000  653.1  432.6  220.5    0.0
 1996 035   180  18.80  29.90  19.20  4.407  4.407  3.524  0.883  0.000  657.5  436.1  221.4    0.0
 1996 036   181  28.60  30.00  17.50  6.630  6.630  5.687  0.942  0.000  664.1  441.8  222.4    0.0
 1996 037   182  29.00  28.90  12.60  6.398  6.398  5.075  1.323  0.000  670.5  446.9  223.7    0.0
 1996 038   183  26.10  33.00  15.60  6.169  6.169  4.875  1.295  0.000  676.7  451.7  225.0    0.0
 1996 039   184  20.70  32.60  18.30  4.969  4.969  3.909  1.060  0.000  681.7  455.6  226.0    0.0
 1996 040   185  10.20  28.00  19.20  2.344  2.344  1.836  0.508  0.000  684.0  457.5  226.5    0.0
 1996 041   186  21.90  28.10  17.00  4.957  4.957  3.864  1.092  0.000  689.0  461.3  227.6    0.0
 1996 042   187  28.90  22.30  11.30  5.827  5.827  4.522  1.304  0.000  694.8  465.9  228.9    0.0
 1996 043   188  28.30  23.60   7.40  5.612  5.612  4.552  1.061  0.000  700.4  470.4  230.0    0.0
 1996 044   189  28.30  26.60  11.70  6.042  6.042  4.653  1.389  0.000  706.5  475.1  231.4    0.0
 1996 045   190  17.30  27.00  13.70  3.772  3.772  2.893  0.879  0.000  710.2  478.0  232.3    0.0
 1996 046   191  27.10  30.50  16.50  6.286  6.286  4.798  1.488  0.000  716.5  482.8  233.7    0.0
 1996 047   192  26.90  30.40  16.70  6.243  6.243  4.742  1.502  0.000  722.8  487.5  235.3    0.0
 1996 048   193  19.90  29.60  19.80  4.685  4.685  3.701  0.984  0.000  727.4  491.2  236.2    0.0
 1996 049   194  21.00  29.10  17.20  4.825  4.825  3.626  1.198  0.000  732.3  494.8  237.4    0.0
 1996 050   195  21.40  30.60  18.20  5.038  5.038  3.767  1.271  0.000  737.3  498.6  238.7    0.0
 1996 051   196  12.00  27.30  18.90  2.738  2.738  2.036  0.702  0.000  740.0  500.6  239.4    0.0
 1996 052   197  22.80  31.80  14.60  5.300  5.300  3.921  1.379  0.000  745.3  504.6  240.8    0.0
 1996 053   198  22.00  32.00  21.20  5.378  5.378  3.958  1.420  0.000  750.7  508.5  242.2    0.0
 1996 054   199  17.60  32.30  20.20  4.317  4.317  2.846  1.471  0.000  755.0  511.4  243.7    0.0
 1996 055   200   7.80  22.70  19.00  1.717  1.717  1.001  0.716  0.000  756.8  512.4  244.4    0.0
 1996 056   201  11.70  26.70  19.70  2.740  2.740  1.400  1.340  0.000  759.5  513.8  245.7    0.0
 1996 057   202  23.90  29.30  15.60  5.644  5.644  2.509  3.135  0.000  765.1  516.3  248.9    0.0
 1996 058   203  24.10  29.90  20.10  5.982  5.656  2.969  2.688  0.000  770.8  519.2  251.6    0.0
 1996 059   204   7.90  25.30  19.50  1.871  1.871  0.627  1.244  0.000  772.7  519.9  252.8    0.0
 1996 060   205  22.90  27.80  18.50  5.583  5.583  1.495  4.088  0.000  778.3  521.4  256.9    0.0
 1996 061   206  25.60  25.30  15.90  5.985  4.848  1.756  3.092  0.000  783.1  523.1  260.0    0.0
 1996 062   207  25.20  26.00  13.00  5.841  3.243  1.409  1.833  0.000  786.3  524.5  261.8    0.0
 1996 063   208  21.50  26.20  15.00  5.102  2.265  1.011  1.254  0.000  788.6  525.5  263.1    0.0
 1996 064   209  23.00  27.20  14.90  5.542  1.915  0.897  1.017  0.000  790.5  526.4  264.1    0.0
