*PLANT N OUTPUT FILE

*DSSAT Cropping System Model Ver. 4.0.2.000               Aug 11, 2016; 19:59:12

*RUN   1        : UYSB                    
 MODEL          : CRGRO040 - Soybean         
 EXPERIMENT     : UYSB0145 SB    late to create DSS                             
 TREATMENT  1   : UYSB                    

@YEAR DOY   DAS   DAP    CNAD    GNAD    VNAD    GN%D    VN%D     NFXC    NUPC    LNAD    SNAD    LN%D    SN%D    SHND   RN%D   NFXD   SNN0C   SNN1C
 1990 223     3     0     0.0     0.0     0.0    0.00    0.00      0.0     0.0     0.0     0.0    0.00    0.00     0.0    0.0    0.0    0.00    0.00
 1990 224     4     1     0.0     0.0     0.0    0.00    0.00      0.0     0.0     0.0     0.0    0.00    0.00     0.0    0.0    0.0    0.00    0.00
 1990 225     5     2     0.0     0.0     0.0    0.00    0.00      0.0     0.0     0.0     0.0    0.00    0.00     0.0    0.0    0.0    0.00    0.00
 1990 226     6     3     0.0     0.0     0.0    0.00    0.00      0.0     0.0     0.0     0.0    0.00    0.00     0.0    0.0    0.0    0.00    0.00
 1990 227     7     4     0.0     0.0     0.0    0.00    0.00      0.0     0.0     0.0     0.0    0.00    0.00     0.0    0.0    0.0    0.00    0.00
 1990 228     8     5     0.0     0.0     0.0    0.00    0.00      0.0     0.0     0.0     0.0    0.00    0.00     0.0    0.0    0.0    0.00    0.00
 1990 229     9     6     0.0     0.0     0.0    0.00    0.00      0.0     0.0     0.0     0.0    0.00    0.00     0.0    0.0    0.0    0.00    0.00
 1990 230    10     7     0.2     0.0     0.2    0.00    5.15      0.0     0.0     0.2     0.0    5.70    2.64     0.0    1.5    0.0    0.00    0.00
 1990 231    11     8     0.2     0.0     0.2    0.00    5.15      0.0     0.0     0.2     0.0    5.70    2.64     0.0    1.5    0.0    0.00    0.01
 1990 232    12     9     0.2     0.0     0.2    0.00    5.13      0.0     0.0     0.2     0.0    5.70    2.64     0.0    1.5    0.0    0.00    0.01
 1990 233    13    10     0.2     0.0     0.2    0.00    5.12      0.0     0.1     0.2     0.0    5.70    2.65     0.0    1.5    0.0    0.00    0.01
 1990 234    14    11     0.2     0.0     0.2    0.00    5.11      0.0     0.1     0.2     0.0    5.70    2.65     0.0    1.5    0.0    0.00    0.01
 1990 235    15    12     0.3     0.0     0.3    0.00    5.10      0.1     0.1     0.2     0.0    5.70    2.65     0.0    1.5    0.0    0.00    0.01
 1990 236    16    13     0.3     0.0     0.3    0.00    5.09      0.1     0.1     0.2     0.0    5.71    2.65     0.0    1.5    0.0    0.00    0.01
 1990 237    17    14     0.3     0.0     0.3    0.00    5.06      0.1     0.1     0.2     0.0    5.71    2.65     0.0    1.5    0.0    0.00    0.02
 1990 238    18    15     0.3     0.0     0.3    0.00    5.03      0.1     0.2     0.3     0.0    5.71    2.65     0.0    1.5    0.0    0.00    0.02
 1990 239    19    16     0.3     0.0     0.3    0.00    5.02      0.1     0.2     0.3     0.0    5.71    2.65     0.0    1.5    0.0    0.00    0.02
 1990 240    20    17     0.3     0.0     0.3    0.00    5.00      0.1     0.2     0.3     0.0    5.71    2.65     0.0    1.5    0.0    0.00    0.02
 1990 241    21    18     0.3     0.0     0.3    0.00    4.99      0.1     0.2     0.3     0.0    5.71    2.65     0.0    1.5    0.0    0.00    0.02
 1990 242    22    19     0.3     0.0     0.3    0.00    4.96      0.1     0.2     0.3     0.0    5.71    2.65     0.0    1.5    0.0    0.00    0.02
 1990 243    23    20     0.3     0.0     0.3    0.00    4.96      0.1     0.2     0.3     0.0    5.71    2.65     0.0    1.5    0.0    0.00    0.02
 1990 244    24    21     0.3     0.0     0.3    0.00    4.95      0.1     0.2     0.3     0.0    5.71    2.65     0.0    1.5    0.0    0.00    0.03
 1990 245    25    22     0.1     0.0     0.1    0.00    2.76      0.1     0.2     0.0     0.0    5.72    2.65     0.0    1.5    0.0    0.29    0.03
 1990 246    26    23     0.1     0.0     0.1    0.00    2.76      0.1     0.2     0.0     0.0    5.72    2.65     0.0    1.5    0.0    0.29    0.03
 1990 247    27    24     0.1     0.0     0.1    0.00    2.76      0.1     0.2     0.0     0.0    5.72    2.65     0.0    1.5    0.0    0.29    0.03
 1990 248    28    25     0.1     0.0     0.1    0.00    2.76      0.1     0.2     0.0     0.0    5.72    2.65     0.0    1.5    0.0    0.29    0.03
 1990 249    29    26     0.1     0.0     0.1    0.00    2.77      0.1     0.2     0.0     0.0    5.72    2.66     0.0    1.5    0.0    0.29    0.04
 1990 250    30    27     0.1     0.0     0.1    0.00    2.77      0.1     0.2     0.0     0.0    5.72    2.66     0.0    1.5    0.0    0.29    0.04
 1990 251    31    28     0.1     0.0     0.1    0.00    2.77      0.1     0.2     0.0     0.0    5.73    2.66     0.0    1.5    0.0    0.29    0.04
 1990 252    32    29     0.1     0.0     0.1    0.00    2.77      0.1     0.2     0.0     0.0    5.73    2.66     0.0    1.5    0.0    0.29    0.04
 1990 253    33    30     0.1     0.0     0.1    0.00    2.77      0.1     0.2     0.0     0.0    5.73    2.66     0.0    1.5    0.0    0.29    0.04
 1990 254    34    31     0.1     0.0     0.1    0.00    2.78      0.1     0.2     0.0     0.0    5.73    2.67     0.0    1.5    0.0    0.29    0.05
 1990 255    35    32     0.1     0.0     0.1    0.00    2.78      0.1     0.2     0.0     0.0    5.73    2.67     0.0    1.5    0.0    0.29    0.05
 1990 256    36    33     0.1     0.0     0.1    0.00    2.78      0.1     0.2     0.0     0.0    5.73    2.67     0.0    1.5    0.0    0.29    0.05
 1990 257    37    34     0.1     0.0     0.1    0.00    2.78      0.1     0.2     0.0     0.0    5.73    2.67     0.0    1.5    0.0    0.29    0.05
 1990 258    38    35     0.1     0.0     0.1    0.00    2.78      0.1     0.2     0.0     0.0    5.73    2.67     0.0    1.5    0.0    0.29    0.05
 1990 259    39    36     0.1     0.0     0.1    0.00    2.78      0.1     0.2     0.0     0.0    5.74    2.67     0.0    1.5    0.0    0.29    0.05
 1990 260    40    37     0.1     0.0     0.1    0.00    2.78      0.1     0.2     0.0     0.0    5.74    2.67     0.0    1.5    0.0    0.29    0.05
 1990 261    41    38     0.1     0.0     0.1    0.00    2.78      0.1     0.2     0.0     0.0    5.74    2.67     0.0    1.5    0.0    0.29    0.06
 1990 262    42    39     0.1     0.0     0.1    0.00    2.78      0.1     0.2     0.0     0.0    5.74    2.67     0.0    1.5    0.0    0.29    0.06
 1990 263    43    40     0.1     0.0     0.1    0.00    2.79      0.1     0.2     0.0     0.0    5.74    2.68     0.0    1.5    0.0    0.29    0.06
 1990 264    44    41     0.1     0.0     0.1    0.00    2.79      0.1     0.2     0.0     0.0    5.75    2.68     0.0    1.5    0.0    0.29    0.06
 1990 265    45    42     0.1     0.0     0.1    0.00    2.79      0.1     0.2     0.0     0.0    5.75    2.68     0.0    1.5    0.0    0.29    0.06
 1990 266    46    43     0.1     0.0     0.1    0.00    2.79      0.1     0.2     0.0     0.0    5.75    2.68     0.0    1.5    0.0    0.29    0.06
 1990 267    47    44     0.1     0.0     0.1    0.00    2.79      0.1     0.2     0.0     0.0    5.75    2.68     0.0    1.5    0.0    0.29    0.06
 1990 268    48    45     0.1     0.0     0.1    0.00    2.79      0.1     0.2     0.0     0.0    5.75    2.68     0.0    1.5    0.0    0.29    0.06
 1990 269    49    46     0.1     0.0     0.1    0.00    2.79      0.1     0.2     0.0     0.0    5.75    2.68     0.0    1.5    0.0    0.29    0.06
 1990 270    50    47     0.1     0.0     0.1    0.00    2.79      0.1     0.2     0.0     0.0    5.75    2.69     0.0    1.5    0.0    0.29    0.06
 1990 271    51    48     0.1     0.0     0.1    0.00    2.80      0.1     0.2     0.0     0.0    5.75    2.69     0.0    1.5    0.0    0.29    0.06
 1990 272    52    49     0.1     0.0     0.1    0.00    2.80      0.1     0.2     0.0     0.0    5.76    2.69     0.0    1.5    0.0    0.29    0.07
 1990 273    53    50     0.1     0.0     0.1    0.00    2.80      0.1     0.2     0.0     0.0    5.76    2.69     0.0    1.5    0.0    0.29    0.07
 1990 274    54    51     0.1     0.0     0.1    0.00    2.80      0.1     0.2     0.0     0.0    5.76    2.69     0.0    1.5    0.0    0.29    0.07
 1990 275    55    52     0.1     0.0     0.1    0.00    2.81      0.1     0.2     0.0     0.0    5.76    2.70     0.0    1.5    0.0    0.29    0.07
 1990 276    56    53     0.1     0.0     0.1    0.00    2.81      0.1     0.2     0.0     0.0    5.77    2.70     0.0    1.5    0.0    0.29    0.07
 1990 277    57    54     0.1     0.0     0.1    0.00    2.81      0.1     0.2     0.0     0.0    5.77    2.70     0.0    1.5    0.0    0.29    0.07
 1990 278    58    55     0.1     0.0     0.1    0.00    2.81      0.1     0.2     0.0     0.0    5.77    2.70     0.0    1.5    0.0    0.29    0.07
 1990 279    59    56     0.1     0.0     0.1    0.00    2.82      0.1     0.2     0.0     0.0    5.77    2.71     0.0    1.5    0.0    0.29    0.07
 1990 280    60    57     0.1     0.0     0.1    0.00    2.82      0.1     0.2     0.0     0.0    5.78    2.71     0.0    1.5    0.0    0.29    0.07
 1990 281    61    58     0.1     0.0     0.1    0.00    2.82      0.1     0.2     0.0     0.0    5.78    2.71     0.0    1.5    0.0    0.29    0.07
 1990 282    62    59     0.1     0.0     0.1    0.00    2.82      0.1     0.2     0.0     0.0    5.78    2.71     0.0    1.5    0.0    0.29    0.07
 1990 283    63    60     0.1     0.0     0.1    0.00    2.82      0.1     0.2     0.0     0.0    5.78    2.71     0.0    1.5    0.0    0.29    0.07
 1990 284    64    61     0.1     0.0     0.1    0.00    2.82      0.1     0.2     0.0     0.0    5.78    2.71     0.0    1.5    0.0    0.29    0.08
 1990 285    65    62     0.1     0.0     0.1    0.00    2.83      0.1     0.2     0.0     0.0    5.78    2.72     0.0    1.5    0.0    0.29    0.08
 1990 286    66    63     0.1     0.0     0.1    0.00    2.83      0.1     0.2     0.0     0.0    5.79    2.72     0.0    1.5    0.0    0.29    0.08
 1990 287    67    64     0.1     0.0     0.1    0.00    2.83      0.1     0.2     0.0     0.0    5.79    2.72     0.0    1.5    0.0    0.29    0.08
 1990 288    68    65     0.1     0.0     0.1    0.00    2.83      0.1     0.2     0.0     0.0    5.79    2.72     0.0    1.5    0.0    0.29    0.08
 1990 289    69    66     0.1     0.0     0.1    0.00    2.83      0.1     0.2     0.0     0.0    5.79    2.72     0.0    1.5    0.0    0.29    0.08
 1990 290    70    67     0.1     0.0     0.1    0.00    2.83      0.1     0.2     0.0     0.0    5.79    2.72     0.0    1.5    0.0    0.29    0.08
 1990 291    71    68     0.1     0.0     0.1    0.00    2.83      0.1     0.2     0.0     0.0    5.79    2.72     0.0    1.5    0.0    0.29    0.08
 1990 292    72    69     0.1     0.0     0.1    0.00    2.84      0.1     0.2     0.0     0.0    5.79    2.73     0.0    1.5    0.0    0.29    0.08
 1990 293    73    70     0.1     0.0     0.1    0.00    2.84      0.1     0.2     0.0     0.0    5.80    2.73     0.0    1.5    0.0    0.29    0.08
 1990 294    74    71     0.1     0.0     0.1    0.00    2.84      0.1     0.2     0.0     0.0    5.80    2.73     0.0    1.5    0.0    0.29    0.08
 1990 295    75    72     0.1     0.0     0.1    0.00    2.84      0.1     0.2     0.0     0.0    5.80    2.73     0.0    1.5    0.0    0.29    0.08
 1990 296    76    73     0.1     0.0     0.1    0.00    2.84      0.1     0.2     0.0     0.0    5.80    2.73     0.0    1.5    0.0    0.29    0.08
 1990 297    77    74     0.1     0.0     0.1    0.00    2.85      0.1     0.2     0.0     0.0    5.80    2.73     0.0    1.5    0.0    0.29    0.08
 1990 298    78    75     0.1     0.0     0.1    0.00    2.85      0.1     0.2     0.0     0.0    5.81    2.74     0.0    1.5    0.0    0.29    0.08
 1990 299    79    76     0.1     0.0     0.1    0.00    2.85      0.1     0.2     0.0     0.0    5.81    2.74     0.0    1.5    0.0    0.29    0.08
 1990 300    80    77     0.1     0.0     0.1    0.00    2.85      0.1     0.2     0.0     0.0    5.81    2.74     0.0    1.5    0.0    0.29    0.09
 1990 301    81    78     0.1     0.0     0.1    0.00    2.85      0.1     0.2     0.0     0.0    5.81    2.74     0.0    1.5    0.0    0.29    0.09
 1990 302    82    79     0.1     0.0     0.1    0.00    2.86      0.1     0.2     0.0     0.0    5.81    2.75     0.0    1.5    0.0    0.29    0.09
 1990 303    83    80     0.1     0.0     0.1    0.00    2.86      0.1     0.2     0.0     0.0    5.82    2.75     0.0    1.5    0.0    0.29    0.09
 1990 304    84    81     0.1     0.0     0.1    0.00    2.86      0.1     0.2     0.0     0.0    5.82    2.75     0.0    1.5    0.0    0.29    0.09
 1990 305    85    82     0.1     0.0     0.1    0.00    2.86      0.1     0.2     0.0     0.0    5.82    2.75     0.0    1.5    0.0    0.29    0.09
 1990 306    86    83     0.1     0.0     0.1    0.00    2.86      0.1     0.2     0.0     0.0    5.82    2.75     0.0    1.5    0.0    0.29    0.09
 1990 307    87    84     0.1     0.0     0.1    0.00    2.87      0.1     0.2     0.0     0.0    5.82    2.75     0.0    1.5    0.0    0.29    0.09
 1990 308    88    85     0.1     0.0     0.1    0.00    2.87      0.1     0.2     0.0     0.0    5.83    2.76     0.0    1.5    0.0    0.29    0.09
 1990 309    89    86     0.1     0.0     0.1    0.00    2.87      0.1     0.2     0.0     0.0    5.83    2.76     0.0    1.5    0.0    0.29    0.09
 1990 310    90    87     0.1     0.0     0.1    0.00    2.87      0.1     0.2     0.0     0.0    5.83    2.76     0.0    1.5    0.0    0.29    0.09
 1990 311    91    88     0.1     0.0     0.1    0.00    2.87      0.1     0.2     0.0     0.0    5.83    2.76     0.0    1.5    0.0    0.29    0.09
 1990 312    92    89     0.1     0.0     0.1    0.00    2.87      0.1     0.2     0.0     0.0    5.83    2.76     0.0    1.5    0.0    0.29    0.09
 1990 313    93    90     0.1     0.0     0.1    0.00    2.87      0.1     0.2     0.0     0.0    5.83    2.76     0.0    1.5    0.0    0.29    0.09
 1990 314    94    91     0.1     0.0     0.1    0.00    2.87      0.1     0.2     0.0     0.0    5.83    2.76     0.0    1.5    0.0    0.29    0.09
 1990 315    95    92     0.1     0.0     0.1    0.00    2.87      0.1     0.2     0.0     0.0    5.83    2.76     0.0    1.5    0.0    0.29    0.09
 1990 316    96    93     0.1     0.0     0.1    0.00    2.88      0.1     0.2     0.0     0.0    5.84    2.77     0.0    1.5    0.0    0.29    0.10
 1990 317    97    94     0.1     0.0     0.1    0.00    2.88      0.1     0.2     0.0     0.0    5.84    2.77     0.0    1.5    0.0    0.29    0.10
 1990 318    98    95     0.1     0.0     0.1    0.00    2.88      0.1     0.2     0.0     0.0    5.84    2.77     0.0    1.5    0.0    0.29    0.10
 1990 319    99    96     0.1     0.0     0.1    0.00    2.88      0.1     0.2     0.0     0.0    5.84    2.77     0.0    1.5    0.0    0.29    0.10
 1990 320   100    97     0.1     0.0     0.1    0.00    2.88      0.1     0.2     0.0     0.0    5.84    2.77     0.0    1.5    0.0    0.29    0.10
 1990 321   101    98     0.1     0.0     0.1    0.00    2.88      0.1     0.2     0.0     0.0    5.84    2.77     0.0    1.5    0.0    0.29    0.10
 1990 322   102    99     0.1     0.0     0.1    0.00    2.89      0.1     0.2     0.0     0.0    5.85    2.77     0.0    1.5    0.0    0.29    0.10
 1990 323   103   100     0.1     0.0     0.1    0.00    2.89      0.1     0.2     0.0     0.0    5.85    2.78     0.0    1.5    0.0    0.29    0.10
 1990 324   104   101     0.1     0.0     0.1    0.00    2.89      0.1     0.2     0.0     0.0    5.85    2.78     0.0    1.5    0.0    0.29    0.10
 1990 325   105   102     0.1     0.0     0.1    0.00    2.89      0.1     0.2     0.0     0.0    5.85    2.78     0.0    1.5    0.0    0.29    0.10
 1990 326   106   103     0.1     0.0     0.1    0.00    2.89      0.1     0.2     0.0     0.0    5.85    2.78     0.0    1.5    0.0    0.29    0.10
 1990 327   107   104     0.1     0.0     0.1    0.00    2.89      0.1     0.2     0.0     0.0    5.85    2.78     0.0    1.5    0.0    0.29    0.10
 1990 328   108   105     0.1     0.0     0.1    0.00    2.89      0.1     0.2     0.0     0.0    5.85    2.78     0.0    1.5    0.0    0.29    0.10
 1990 329   109   106     0.1     0.0     0.1    0.00    2.90      0.1     0.2     0.0     0.0    5.86    2.78     0.0    1.5    0.0    0.29    0.10
 1990 330   110   107     0.1     0.0     0.1    0.00    2.90      0.1     0.2     0.0     0.0    5.86    2.79     0.0    1.5    0.0    0.29    0.10
 1990 331   111   108     0.1     0.0     0.1    0.00    2.90      0.1     0.2     0.0     0.0    5.86    2.79     0.0    1.5    0.0    0.29    0.10
 1990 332   112   109     0.1     0.0     0.1    0.00    2.90      0.1     0.2     0.0     0.0    5.86    2.79     0.0    1.5    0.0    0.29    0.11
 1990 333   113   110     0.1     0.0     0.1    0.00    2.90      0.1     0.2     0.0     0.0    5.86    2.79     0.0    1.5    0.0    0.29    0.11
 1990 334   114   111     0.1     0.0     0.1    0.00    2.90      0.1     0.2     0.0     0.0    5.86    2.79     0.0    1.5    0.0    0.29    0.11
 1990 335   115   112     0.1     0.0     0.1    0.00    2.90      0.1     0.2     0.0     0.0    5.86    2.79     0.0    1.5    0.0    0.29    0.11
 1990 336   116   113     0.1     0.0     0.1    0.00    2.90      0.1     0.2     0.0     0.0    5.86    2.79     0.0    1.5    0.0    0.29    0.11
 1990 337   117   114     0.1     0.0     0.1    0.00    2.90      0.1     0.2     0.0     0.0    5.86    2.79     0.0    1.5    0.0    0.29    0.11
 1990 338   118   115     0.1     0.0     0.1    0.00    2.90      0.1     0.2     0.0     0.0    5.87    2.79     0.0    1.5    0.0    0.29    0.11
 1990 339   119   116     0.1     0.0     0.1    0.00    2.91      0.1     0.2     0.0     0.0    5.87    2.79     0.0    1.5    0.0    0.29    0.11
 1990 340   120   117     0.1     0.0     0.1    0.00    2.91      0.1     0.2     0.0     0.0    5.87    2.80     0.0    1.5    0.0    0.29    0.11
 1990 341   121   118     0.1     0.0     0.1    0.00    2.91      0.1     0.2     0.0     0.0    5.87    2.80     0.0    1.5    0.0    0.29    0.11
 1990 342   122   119     0.1     0.0     0.1    0.00    2.91      0.1     0.2     0.0     0.0    5.87    2.80     0.0    1.5    0.0    0.29    0.11
 1990 343   123   120     0.1     0.0     0.1    0.00    2.91      0.1     0.2     0.0     0.0    5.87    2.80     0.0    1.5    0.0    0.29    0.11
 1990 344   124   121     0.1     0.0     0.1    0.00    2.91      0.1     0.2     0.0     0.0    5.87    2.80     0.0    1.5    0.0    0.29    0.11
 1990 345   125   122     0.1     0.0     0.1    0.00    2.91      0.1     0.2     0.0     0.0    5.87    2.80     0.0    1.5    0.0    0.29    0.11
 1990 346   126   123     0.1     0.0     0.1    0.00    2.91      0.1     0.2     0.0     0.0    5.87    2.80     0.0    1.5    0.0    0.29    0.11
 1990 347   127   124     0.1     0.0     0.1    0.00    2.91      0.1     0.2     0.0     0.0    5.87    2.80     0.0    1.5    0.0    0.29    0.11
 1990 348   128   125     0.1     0.0     0.1    0.00    2.91      0.1     0.2     0.0     0.0    5.87    2.80     0.0    1.5    0.0    0.29    0.11
 1990 349   129   126     0.1     0.0     0.1    0.00    2.91      0.1     0.2     0.0     0.0    5.87    2.80     0.0    1.5    0.0    0.29    0.11
 1990 350   130   127     0.1     0.0     0.1    0.00    2.92      0.1     0.2     0.0     0.0    5.88    2.80     0.0    1.5    0.0    0.29    0.11
 1990 351   131   128     0.1     0.0     0.1    0.00    2.92      0.1     0.2     0.0     0.0    5.88    2.80     0.0    1.5    0.0    0.29    0.11
 1990 352   132   129     0.1     0.0     0.1    0.00    2.92      0.1     0.2     0.0     0.0    5.88    2.80     0.0    1.5    0.0    0.29    0.11
 1990 353   133   130     0.1     0.0     0.1    0.00    2.92      0.1     0.2     0.0     0.0    5.88    2.81     0.0    1.5    0.0    0.29    0.12
 1990 354   134   131     0.1     0.0     0.1    0.00    2.92      0.1     0.2     0.0     0.0    5.88    2.81     0.0    1.5    0.0    0.29    0.12
 1990 355   135   132     0.1     0.0     0.1    0.00    2.92      0.1     0.2     0.0     0.0    5.88    2.81     0.0    1.5    0.0    0.29    0.12
 1990 356   136   133     0.1     0.0     0.1    0.00    2.92      0.1     0.2     0.0     0.0    5.88    2.81     0.0    1.5    0.0    0.29    0.12
 1990 357   137   134     0.1     0.0     0.1    0.00    2.92      0.1     0.2     0.0     0.0    5.88    2.81     0.0    1.5    0.0    0.29    0.12
 1990 358   138   135     0.1     0.0     0.1    0.00    2.92      0.1     0.2     0.0     0.0    5.88    2.81     0.0    1.5    0.0    0.29    0.12
 1990 359   139   136     0.1     0.0     0.1    0.00    2.92      0.1     0.2     0.0     0.0    5.89    2.81     0.0    1.5    0.0    0.29    0.12
 1990 360   140   137     0.1     0.0     0.1    0.00    2.92      0.1     0.2     0.0     0.0    5.89    2.81     0.0    1.5    0.0    0.29    0.12
 1990 361   141   138     0.1     0.0     0.1    0.00    2.93      0.1     0.2     0.0     0.0    5.89    2.81     0.0    1.5    0.0    0.29    0.12
 1990 362   142   139     0.1     0.0     0.1    0.00    2.93      0.1     0.2     0.0     0.0    5.89    2.81     0.0    1.5    0.0    0.29    0.12
 1990 363   143   140     0.1     0.0     0.1    0.00    2.93      0.1     0.2     0.0     0.0    5.89    2.81     0.0    1.5    0.0    0.29    0.12
 1990 364   144   141     0.1     0.0     0.1    0.00    2.93      0.1     0.2     0.0     0.0    5.89    2.81     0.0    1.5    0.0    0.29    0.12
 1990 365   145   142     0.1     0.0     0.1    0.00    2.93      0.1     0.2     0.0     0.0    5.89    2.81     0.0    1.5    0.0    0.29    0.12
 1991 001   146   143     0.1     0.0     0.1    0.00    2.93      0.1     0.2     0.0     0.0    5.89    2.82     0.0    1.5    0.0    0.29    0.12
 1991 002   147   144     0.1     0.0     0.1    0.00    2.93      0.1     0.2     0.0     0.0    5.89    2.82     0.0    1.5    0.0    0.29    0.12
 1991 003   148   145     0.1     0.0     0.1    0.00    2.93      0.1     0.2     0.0     0.0    5.89    2.82     0.0    1.5    0.0    0.29    0.12
 1991 004   149   146     0.1     0.0     0.1    0.00    2.93      0.1     0.2     0.0     0.0    5.89    2.82     0.0    1.5    0.0    0.29    0.12
 1991 005   150   147     0.1     0.0     0.1    0.00    2.93      0.1     0.2     0.0     0.0    5.89    2.82     0.0    1.5    0.0    0.29    0.12
 1991 006   151   148     0.1     0.0     0.1    0.00    2.93      0.1     0.2     0.0     0.0    5.89    2.82     0.0    1.5    0.0    0.29    0.12
 1991 007   152   149     0.1     0.0     0.1    0.00    2.93      0.1     0.2     0.0     0.0    5.90    2.82     0.0    1.5    0.0    0.29    0.12
 1991 008   153   150     0.1     0.0     0.1    0.00    2.94      0.1     0.2     0.0     0.0    5.90    2.82     0.0    1.5    0.0    0.29    0.13
 1991 009   154   151     0.1     0.0     0.1    0.00    2.94      0.1     0.2     0.0     0.0    5.90    2.82     0.0    1.5    0.0    0.29    0.13
 1991 010   155   152     0.1     0.0     0.1    0.00    2.94      0.1     0.2     0.0     0.0    5.90    2.82     0.0    1.5    0.0    0.29    0.13
 1991 011   156   153     0.1     0.0     0.1    0.00    2.94      0.1     0.2     0.0     0.0    5.90    2.82     0.0    1.5    0.0    0.29    0.13
 1991 012   157   154     0.1     0.0     0.1    0.00    2.94      0.1     0.2     0.0     0.0    5.90    2.82     0.0    1.5    0.0    0.29    0.13
 1991 013   158   155     0.1     0.0     0.1    0.00    2.94      0.1     0.2     0.0     0.0    5.90    2.82     0.0    1.5    0.0    0.29    0.13
 1991 014   159   156     0.1     0.0     0.1    0.00    2.94      0.1     0.2     0.0     0.0    5.90    2.83     0.0    1.5    0.0    0.29    0.13
 1991 015   160   157     0.1     0.0     0.1    0.00    2.94      0.1     0.2     0.0     0.0    5.90    2.83     0.0    1.5    0.0    0.29    0.13
 1991 016   161   158     0.1     0.0     0.1    0.00    2.94      0.1     0.2     0.0     0.0    5.90    2.83     0.0    1.5    0.0    0.29    0.13
 1991 017   162   159     0.1     0.0     0.1    0.00    2.94      0.1     0.2     0.0     0.0    5.90    2.83     0.0    1.5    0.0    0.29    0.13
 1991 018   163   160     0.1     0.0     0.1    0.00    2.94      0.1     0.2     0.0     0.0    5.90    2.83     0.0    1.5    0.0    0.29    0.13
 1991 019   164   161     0.1     0.0     0.1    0.00    2.94      0.1     0.2     0.0     0.0    5.90    2.83     0.0    1.5    0.0    0.29    0.13
 1991 020   165   162     0.1     0.0     0.1    0.00    2.94      0.1     0.2     0.0     0.0    5.90    2.83     0.0    1.5    0.0    0.29    0.13
 1991 021   166   163     0.1     0.0     0.1    0.00    2.94      0.1     0.2     0.0     0.0    5.90    2.83     0.0    1.5    0.0    0.29    0.13
 1991 022   167   164     0.1     0.0     0.1    0.00    2.94      0.1     0.2     0.0     0.0    5.90    2.83     0.0    1.5    0.0    0.29    0.13
 1991 023   168   165     0.1     0.0     0.1    0.00    2.95      0.1     0.2     0.0     0.0    5.90    2.83     0.0    1.5    0.0    0.29    0.13
 1991 024   169   166     0.1     0.0     0.1    0.00    2.95      0.1     0.2     0.0     0.0    5.90    2.83     0.0    1.5    0.0    0.29    0.13
 1991 025   170   167     0.1     0.0     0.1    0.00    2.95      0.1     0.2     0.0     0.0    5.90    2.83     0.0    1.5    0.0    0.29    0.13
 1991 026   171   168     0.1     0.0     0.1    0.00    2.95      0.1     0.2     0.0     0.0    5.90    2.83     0.0    1.5    0.0    0.29    0.13
 1991 027   172   169     0.1     0.0     0.1    0.00    2.95      0.1     0.2     0.0     0.0    5.90    2.83     0.0    1.5    0.0    0.29    0.13
 1991 028   173   170     0.1     0.0     0.1    0.00    2.95      0.1     0.2     0.0     0.0    5.90    2.83     0.0    1.5    0.0    0.29    0.13
 1991 029   174   171     0.1     0.0     0.1    0.00    2.95      0.1     0.2     0.0     0.0    5.90    2.83     0.0    1.5    0.0    0.29    0.13
 1991 030   175   172     0.1     0.0     0.1    0.00    2.95      0.1     0.2     0.0     0.0    5.90    2.83     0.0    1.5    0.0    0.29    0.13
 1991 031   176   173     0.1     0.0     0.1    0.00    2.95      0.1     0.2     0.0     0.0    5.90    2.83     0.0    1.5    0.0    0.29    0.13
 1991 032   177   174     0.1     0.0     0.1    0.00    2.95      0.1     0.2     0.0     0.0    5.90    2.83     0.0    1.5    0.0    0.29    0.13
 1991 033   178   175     0.1     0.0     0.1    0.00    2.95      0.1     0.2     0.0     0.0    5.90    2.83     0.0    1.5    0.0    0.29    0.13
 1991 034   179   176     0.1     0.0     0.1    0.00    2.95      0.1     0.2     0.0     0.0    5.91    2.83     0.0    1.5    0.0    0.29    0.14
 1991 035   180   177     0.1     0.0     0.1    0.00    2.95      0.1     0.2     0.0     0.0    5.91    2.83     0.0    1.5    0.0    0.29    0.14
 1991 036   181   178     0.1     0.0     0.1    0.00    2.95      0.1     0.2     0.0     0.0    5.91    2.83     0.0    1.5    0.0    0.29    0.14
 1991 037   182   179     0.1     0.0     0.1    0.00    2.95      0.1     0.2     0.0     0.0    5.91    2.84     0.0    1.5    0.0    0.29    0.14
 1991 038   183   180     0.1     0.0     0.1    0.00    2.95      0.1     0.2     0.0     0.0    5.91    2.84     0.0    1.5    0.0    0.29    0.14
 1991 039   184   181     0.1     0.0     0.1    0.00    2.96      0.1     0.2     0.0     0.0    5.91    2.84     0.0    1.5    0.0    0.29    0.14
 1991 040   185   182     0.1     0.0     0.1    0.00    2.96      0.1     0.2     0.0     0.0    5.91    2.84     0.0    1.5    0.0    0.29    0.14
 1991 041   186   183     0.1     0.0     0.1    0.00    2.96      0.1     0.2     0.0     0.0    5.91    2.84     0.0    1.5    0.0    0.29    0.14
 1991 042   187   184     0.1     0.0     0.1    0.00    2.96      0.1     0.2     0.0     0.0    5.91    2.84     0.0    1.5    0.0    0.29    0.14
 1991 043   188   185     0.1     0.0     0.1    0.00    2.96      0.1     0.2     0.0     0.0    5.91    2.84     0.0    1.5    0.0    0.29    0.14
 1991 044   189   186     0.1     0.0     0.1    0.00    2.96      0.1     0.2     0.0     0.0    5.91    2.84     0.0    1.5    0.0    0.29    0.14
 1991 045   190   187     0.1     0.0     0.1    0.00    2.96      0.1     0.2     0.0     0.0    5.91    2.84     0.0    1.5    0.0    0.29    0.14
 1991 046   191   188     0.1     0.0     0.1    0.00    2.96      0.1     0.2     0.0     0.0    5.90    2.83     0.0    1.5    0.0    0.29    0.14
 1991 047   192   189     0.1     0.0     0.1    0.00    2.96      0.1     0.2     0.0     0.0    5.90    2.83     0.0    1.5    0.0    0.29    0.14
 1991 048   193   190     0.1     0.0     0.1    0.00    2.96      0.1     0.2     0.0     0.0    5.90    2.83     0.0    1.5    0.0    0.29    0.14
 1991 049   194   191     0.1     0.0     0.1    0.00    2.96      0.1     0.2     0.0     0.0    5.90    2.83     0.0    1.5    0.0    0.29    0.14
 1991 050   195   192     0.1     0.0     0.1    0.00    2.94      0.1     0.2     0.0     0.0    5.90    2.83     0.0    1.5    0.0    0.29    0.14
 1991 051   196   193     0.0     0.0     0.0    0.00    2.92      0.1     0.2     0.0     0.0    5.91    2.84     0.0    1.5    0.0    0.30    0.14
 1991 052   197   194     0.0     0.0     0.0    0.00    2.90      0.1     0.2     0.0     0.0    5.91    2.84     0.0    1.5    0.0    0.30    0.14
 1991 053   198   195     0.0     0.0     0.0    0.00    2.89      0.1     0.2     0.0     0.0    5.91    2.84     0.0    1.5    0.0    0.30    0.14
 1991 054   199   196     0.0     0.0     0.0    0.00    2.88      0.1     0.2     0.0     0.0    5.91    2.84     0.0    1.5    0.0    0.30    0.14
 1991 055   200   197     0.0     0.0     0.0    0.00    2.87      0.1     0.2     0.0     0.0    5.91    2.84     0.0    1.5    0.0    0.30    0.14
 1991 056   201   198     0.0     0.0     0.0    0.00    2.87      0.1     0.2     0.0     0.0    5.91    2.84     0.0    1.5    0.0    0.30    0.14
 1991 057   202   199     0.0     0.0     0.0    0.00    2.86      0.1     0.2     0.0     0.0    5.91    2.84     0.0    1.5    0.0    0.30    0.14
 1991 058   203   200     0.0     0.0     0.0    0.00    2.86      0.1     0.2     0.0     0.0    5.91    2.84     0.0    1.5    0.0    0.30    0.14
 1991 059   204   201     0.0     0.0     0.0    0.00    2.85      0.1     0.2     0.0     0.0    5.92    2.84     0.0    1.5    0.0    0.30    0.14
 1991 060   205   202     0.0     0.0     0.0    0.00    2.85      0.1     0.2     0.0     0.0    5.92    2.84     0.0    1.5    0.0    0.30    0.14
 1991 061   206   203     0.0     0.0     0.0    0.00    2.85      0.1     0.2     0.0     0.0    5.92    2.84     0.0    1.5    0.0    0.30    0.14

*DSSAT Cropping System Model Ver. 4.0.2.000               Aug 11, 2016; 19:59:12

*RUN   2        : UYSB                    
 MODEL          : CRGRO040 - Soybean         
 EXPERIMENT     : UYSB0145 SB    late to create DSS                             
 TREATMENT  1   : UYSB                    

@YEAR DOY   DAS   DAP    CNAD    GNAD    VNAD    GN%D    VN%D     NFXC    NUPC    LNAD    SNAD    LN%D    SN%D    SHND   RN%D   NFXD   SNN0C   SNN1C
 1991 223     3     0     0.0     0.0     0.0    0.00    0.00      0.0     0.0     0.0     0.0    0.00    0.00     0.0    0.0    0.0    0.00    0.00
 1991 224     4     1     0.0     0.0     0.0    0.00    0.00      0.0     0.0     0.0     0.0    0.00    0.00     0.0    0.0    0.0    0.00    0.00
 1991 225     5     2     0.0     0.0     0.0    0.00    0.00      0.0     0.0     0.0     0.0    0.00    0.00     0.0    0.0    0.0    0.00    0.00
 1991 226     6     3     0.0     0.0     0.0    0.00    0.00      0.0     0.0     0.0     0.0    0.00    0.00     0.0    0.0    0.0    0.00    0.00
 1991 227     7     4     0.0     0.0     0.0    0.00    0.00      0.0     0.0     0.0     0.0    0.00    0.00     0.0    0.0    0.0    0.00    0.00
 1991 228     8     5     0.0     0.0     0.0    0.00    0.00      0.0     0.0     0.0     0.0    0.00    0.00     0.0    0.0    0.0    0.00    0.00
 1991 229     9     6     0.0     0.0     0.0    0.00    0.00      0.0     0.0     0.0     0.0    0.00    0.00     0.0    0.0    0.0    0.00    0.00
 1991 230    10     7     0.0     0.0     0.0    0.00    0.00      0.0     0.0     0.0     0.0    0.00    0.00     0.0    0.0    0.0    0.00    0.00
 1991 231    11     8     0.0     0.0     0.0    0.00    0.00      0.0     0.0     0.0     0.0    0.00    0.00     0.0    0.0    0.0    0.00    0.00
 1991 232    12     9     0.0     0.0     0.0    0.00    0.00      0.0     0.0     0.0     0.0    0.00    0.00     0.0    0.0    0.0    0.00    0.00
 1991 233    13    10     0.2     0.0     0.2    0.00    5.15      0.0     0.0     0.2     0.0    5.70    2.64     0.0    1.5    0.0    0.00    0.00
 1991 234    14    11     0.2     0.0     0.2    0.00    5.13      0.0     0.0     0.2     0.0    5.70    2.65     0.0    1.5    0.0    0.00    0.01
 1991 235    15    12     0.2     0.0     0.2    0.00    5.11      0.0     0.0     0.2     0.0    5.70    2.65     0.0    1.5    0.0    0.00    0.01
 1991 236    16    13     0.2     0.0     0.2    0.00    5.09      0.1     0.1     0.2     0.0    5.71    2.65     0.0    1.5    0.0    0.00    0.01
 1991 237    17    14     0.3     0.0     0.3    0.00    5.06      0.1     0.1     0.2     0.0    5.71    2.65     0.0    1.5    0.0    0.00    0.01
 1991 238    18    15     0.3     0.0     0.3    0.00    5.07      0.1     0.1     0.2     0.0    5.71    2.65     0.0    1.5    0.0    0.00    0.01
 1991 239    19    16     0.3     0.0     0.3    0.00    5.07      0.1     0.1     0.2     0.0    5.71    2.65     0.0    1.5    0.0    0.00    0.02
 1991 240    20    17     0.3     0.0     0.3    0.00    5.05      0.1     0.1     0.3     0.0    5.71    2.65     0.0    1.5    0.0    0.00    0.02
 1991 241    21    18     0.3     0.0     0.3    0.00    5.02      0.1     0.2     0.3     0.0    5.71    2.65     0.0    1.5    0.0    0.00    0.02
 1991 242    22    19     0.3     0.0     0.3    0.00    4.99      0.1     0.2     0.3     0.0    5.72    2.66     0.0    1.5    0.0    0.00    0.02
 1991 243    23    20     0.3     0.0     0.3    0.00    4.99      0.1     0.2     0.3     0.0    5.72    2.66     0.0    1.5    0.0    0.00    0.02
 1991 244    24    21     0.3     0.0     0.3    0.00    4.97      0.1     0.2     0.3     0.0    5.72    2.66     0.0    1.5    0.0    0.00    0.02
 1991 245    25    22     0.3     0.0     0.3    0.00    4.97      0.1     0.2     0.3     0.0    5.72    2.66     0.0    1.5    0.0    0.00    0.03
 1991 246    26    23     0.4     0.0     0.4    0.00    4.98      0.1     0.3     0.3     0.0    5.72    2.66     0.0    1.5    0.0    0.00    0.03
 1991 247    27    24     0.4     0.0     0.4    0.00    4.99      0.1     0.3     0.4     0.1    5.72    2.66     0.0    1.5    0.0    0.00    0.03
 1991 248    28    25     0.5     0.0     0.5    0.00    4.97      0.1     0.4     0.4     0.1    5.72    2.66     0.0    1.5    0.0    0.00    0.03
 1991 249    29    26     0.5     0.0     0.5    0.00    4.97      0.1     0.5     0.5     0.1    5.72    2.66     0.0    1.5    0.0    0.00    0.03
 1991 250    30    27     0.6     0.0     0.6    0.00    4.99      0.1     0.5     0.5     0.1    5.72    2.66     0.0    1.5    0.0    0.00    0.03
 1991 251    31    28     0.6     0.0     0.6    0.00    5.00      0.1     0.5     0.5     0.1    5.72    2.66     0.0    1.5    0.0    0.00    0.04
 1991 252    32    29     0.6     0.0     0.6    0.00    4.96      0.1     0.6     0.6     0.1    5.72    2.66     0.0    1.5    0.0    0.00    0.04
 1991 253    33    30     0.7     0.0     0.7    0.00    4.95      0.1     0.7     0.6     0.1    5.72    2.66     0.0    1.5    0.0    0.00    0.04
 1991 254    34    31     0.8     0.0     0.8    0.00    4.91      0.1     0.8     0.7     0.1    5.72    2.66     0.0    1.5    0.0    0.00    0.04
 1991 255    35    32     0.9     0.0     0.9    0.00    4.85      0.1     1.0     0.8     0.1    5.72    2.66     0.0    1.5    0.0    0.00    0.04
 1991 256    36    33     1.1     0.0     1.1    0.00    4.79      0.1     1.1     0.9     0.2    5.72    2.66     0.0    1.5    0.0    0.00    0.04
 1991 257    37    34     1.1     0.0     1.1    0.00    4.78      0.1     1.2     0.9     0.2    5.72    2.66     0.0    1.5    0.0    0.00    0.04
 1991 258    38    35     1.1     0.0     1.1    0.00    4.79      0.1     1.3     0.9     0.2    5.72    2.66     0.0    1.5    0.0    0.00    0.05
 1991 259    39    36     1.2     0.0     1.2    0.00    4.75      0.1     1.4     1.0     0.2    5.72    2.66     0.0    1.5    0.0    0.00    0.05
 1991 260    40    37     1.3     0.0     1.3    0.00    4.75      0.1     1.5     1.1     0.2    5.72    2.66     0.0    1.5    0.0    0.00    0.05
 1991 261    41    38     1.5     0.0     1.5    0.00    4.72      0.1     1.7     1.2     0.3    5.72    2.66     0.0    1.5    0.0    0.00    0.05
 1991 262    42    39     1.7     0.0     1.7    0.00    4.70      0.1     1.9     1.4     0.3    5.72    2.66     0.0    1.5    0.0    0.00    0.05
 1991 263    43    40     1.8     0.0     1.8    0.00    4.66      0.1     2.1     1.4     0.4    5.72    2.66     0.0    1.5    0.0    0.00    0.06
 1991 264    44    41     2.0     0.0     2.0    0.00    4.60      0.1     2.3     1.6     0.4    5.72    2.66     0.0    1.5    0.0    0.00    0.06
 1991 265    45    42     2.2     0.0     2.2    0.00    4.55      0.1     2.6     1.7     0.5    5.72    2.66     0.0    1.5    0.0    0.00    0.06
 1991 266    46    43     2.3     0.0     2.3    0.00    4.52      0.1     2.8     1.8     0.5    5.72    2.66     0.0    1.5    0.0    0.00    0.06
 1991 267    47    44     2.5     0.0     2.5    0.00    4.49      0.1     3.0     1.9     0.6    5.72    2.65     0.0    1.5    0.0    0.00    0.06
 1991 268    48    45     2.8     0.0     2.8    0.00    4.46      0.1     3.3     2.1     0.7    5.72    2.65     0.0    1.5    0.0    0.00    0.07
 1991 269    49    46     3.0     0.0     3.0    0.00    4.41      0.1     3.7     2.3     0.8    5.72    2.65     0.0    1.5    0.0    0.00    0.07
 1991 270    50    47     3.3     0.0     3.3    0.00    4.35      0.2     4.1     2.4     0.9    5.72    2.66     0.0    1.5    0.0    0.00    0.08
 1991 271    51    48     3.6     0.0     3.6    0.00    4.34      0.2     4.4     2.6     1.0    5.72    2.65     0.0    1.5    0.0    0.00    0.08
 1991 272    52    49     3.9     0.0     3.9    0.00    4.31      0.2     4.7     2.8     1.1    5.72    2.65     0.0    1.5    0.0    0.00    0.08
 1991 273    53    50     4.2     0.0     4.2    0.00    4.28      0.2     5.1     3.0     1.2    5.72    2.65     0.0    1.5    0.0    0.00    0.08
 1991 274    54    51     4.4     0.0     4.4    0.00    4.25      0.2     5.4     3.1     1.3    5.72    2.65     0.0    1.5    0.0    0.00    0.09
 1991 275    55    52     4.7     0.0     4.7    0.00    4.21      0.2     5.8     3.2     1.5    5.72    2.65     0.0    1.5    0.0    0.00    0.09
 1991 276    56    53     5.1     0.0     5.1    0.00    4.23      0.2     6.3     3.5     1.6    5.72    2.65     0.0    1.5    0.0    0.00    0.09
 1991 277    57    54     5.6     0.0     5.6    0.00    4.25      0.2     6.8     3.9     1.7    5.72    2.66     0.0    1.5    0.0    0.00    0.10
 1991 278    58    55     5.7     0.0     5.7    0.00    4.25      0.2     7.0     4.0     1.7    5.72    2.66     0.0    1.5    0.0    0.00    0.11
 1991 279    59    56     6.0     0.0     6.0    0.00    4.26      0.2     7.2     4.2     1.8    5.72    2.66     0.0    1.5    0.0    0.00    0.11
 1991 280    60    57     6.2     0.0     6.2    0.00    4.27      0.2     7.5     4.4     1.8    5.72    2.66     0.0    1.5    0.0    0.00    0.12
 1991 281    61    58     6.6     0.0     6.6    0.00    4.27      0.2     8.0     4.7     1.9    5.72    2.66     0.0    1.5    0.0    0.00    0.12
 1991 282    62    59     7.2     0.0     7.2    0.00    4.28      0.2     8.7     5.1     2.1    5.72    2.66     0.0    1.5    0.0    0.00    0.13
 1991 283    63    60     7.9     0.0     7.9    0.00    4.29      0.2     9.5     5.7     2.3    5.72    2.66     0.0    1.5    0.0    0.00    0.14
 1991 284    64    61     8.9     0.0     8.9    0.00    4.30      0.3    10.6     6.3     2.5    5.72    2.66     0.0    1.5    0.0    0.00    0.14
 1991 285    65    62    10.0     0.0    10.0    0.00    4.31      0.3    11.9     7.2     2.8    5.72    2.66     0.0    1.5    0.0    0.00    0.15
 1991 286    66    63    11.2     0.0    11.2    0.00    4.31      0.3    13.2     8.0     3.2    5.72    2.66     0.0    1.5    0.0    0.00    0.17
 1991 287    67    64    12.1     0.0    12.1    0.00    4.32      0.3    14.3     8.7     3.4    5.72    2.66     0.0    1.5    0.0    0.00    0.19
 1991 288    68    65    12.8     0.0    12.8    0.00    4.32      0.3    15.1     9.2     3.6    5.72    2.66     0.0    1.5    0.0    0.00    0.20
 1991 289    69    66    13.4     0.0    13.4    0.00    4.31      0.4    15.8     9.6     3.8    5.72    2.66     0.0    1.5    0.0    0.00    0.23
 1991 290    70    67    14.3     0.0    14.3    0.00    4.31      0.4    16.8    10.2     4.1    5.72    2.66     0.0    1.5    0.0    0.00    0.23
 1991 291    71    68    15.9     0.0    15.9    0.00    4.30      0.4    18.7    11.4     4.6    5.72    2.66     0.0    1.5    0.0    0.00    0.24
 1991 292    72    69    18.1     0.0    18.1    0.00    4.29      0.4    21.2    12.8     5.2    5.72    2.66     0.0    1.5    0.0    0.00    0.25
 1991 293    73    70    20.5     0.0    20.5    0.00    4.28      0.5    23.9    14.5     6.0    5.72    2.66     0.0    1.5    0.0    0.00    0.27
 1991 294    74    71    23.1     0.0    23.1    0.00    4.27      0.5    27.0    16.3     6.8    5.72    2.66     0.0    1.5    0.0    0.00    0.29
 1991 295    75    72    25.7     0.0    25.7    0.00    4.26      0.6    29.9    18.1     7.7    5.72    2.66     0.0    1.5    0.0    0.01    0.33
 1991 296    76    73    26.9     0.0    26.9    0.00    4.25      0.6    31.3    18.9     8.0    5.72    2.66     0.0    1.5    0.0    0.01    0.34
 1991 297    77    74    28.0     0.0    28.0    0.00    4.25      0.6    32.5    19.6     8.4    5.72    2.66     0.0    1.5    0.0    0.01    0.37
 1991 298    78    75    29.4     0.0    29.4    0.00    4.25      0.7    34.1    20.5     8.9    5.72    2.66     0.0    1.5    0.0    0.02    0.39
 1991 299    79    76    32.9     0.0    32.9    0.00    4.22      0.7    38.1    22.8    10.1    5.72    2.65     0.0    1.5    0.0    0.04    0.42
 1991 300    80    77    35.2     0.0    35.2    0.00    4.20      0.8    40.8    24.3    10.9    5.72    2.64     0.0    1.5    0.0    0.06    0.45
 1991 301    81    78    36.8     0.0    36.8    0.00    4.19      0.8    42.6    25.3    11.4    5.71    2.64     0.0    1.5    0.0    0.08    0.48
 1991 302    82    79    38.2     0.0    38.2    0.00    4.18      0.8    44.3    26.2    11.9    5.71    2.63     0.0    1.5    0.0    0.09    0.51
 1991 303    83    80    39.7     0.0    39.7    0.00    4.18      0.8    46.1    27.2    12.5    5.72    2.63     0.0    1.5    0.0    0.11    0.54
 1991 304    84    81    41.3     0.0    41.3    0.00    4.16      0.9    47.9    28.2    13.1    5.71    2.62     0.0    1.5    0.0    0.15    0.57
 1991 305    85    82    44.5     0.0    44.5    0.00    4.12      0.9    51.7    30.2    14.2    5.68    2.60     0.0    1.5    0.0    0.17    0.59
 1991 306    86    83    48.5     0.0    48.5    0.00    4.07      1.7    55.5    32.8    15.7    5.66    2.57     0.0    1.5    0.7    0.20    0.62
 1991 307    87    84    52.0     0.0    52.0    0.00    4.00      2.6    58.7    35.0    17.0    5.60    2.53     0.0    1.4    0.8    0.23    0.66
 1991 308    88    85    55.3     0.0    55.3    0.00    3.83      3.7    61.6    37.2    18.1    5.44    2.38     0.0    1.4    0.9    0.27    0.70
 1991 309    89    86    58.6     0.0    58.6    0.00    3.71      4.9    64.2    39.4    19.2    5.33    2.28     0.0    1.4    1.1    0.31    0.74
 1991 310    90    87    61.6     0.0    61.6    0.00    3.70      5.7    67.0    41.2    20.3    5.33    2.28     0.0    1.4    0.7    0.35    0.79
 1991 311    91    88    64.2     0.0    64.2    0.00    3.59      7.2    68.8    43.0    21.2    5.23    2.19     0.0    1.3    1.3    0.39    0.83
 1991 312    92    89    66.9     0.0    66.9    0.00    3.50      9.0    70.3    44.7    22.1    5.16    2.12     0.0    1.3    1.5    0.43    0.87
 1991 313    93    90    68.3     0.0    68.3    0.00    3.34     11.1    70.8    45.7    22.6    5.03    1.99     0.0    1.3    1.8    0.46    0.91
 1991 314    94    91    70.7     0.0    70.7    0.00    3.27     13.4    71.8    47.3    23.4    4.96    1.94     0.0    1.3    2.0    0.51    0.96
 1991 315    95    92    73.5     0.0    73.5    0.00    3.25     16.0    72.7    48.9    24.5    4.93    1.93     0.0    1.3    2.2    0.54    1.00
 1991 316    96    93    76.4     0.0    76.4    0.00    3.21     18.9    73.5    50.8    25.6    4.89    1.90     0.0    1.2    2.5    0.56    1.03
 1991 317    97    94    79.7     0.0    79.7    0.00    3.21     22.1    74.4    52.8    26.9    4.90    1.91     0.0    1.2    2.8    0.59    1.07
 1991 318    98    95    81.5     0.0    81.5    0.00    3.20     23.9    74.9    53.9    27.6    4.90    1.91     0.0    1.3    1.6    0.63    1.11
 1991 319    99    96    84.2     0.0    84.2    0.00    3.20     26.6    75.7    55.5    28.7    4.89    1.92     0.0    1.3    2.3    0.67    1.17
 1991 320   100    97    87.6     0.0    87.6    0.00    3.16     30.6    76.1    57.5    30.1    4.85    1.90     0.0    1.2    3.5    0.72    1.23
 1991 321   101    98    92.0     0.0    92.0    0.00    3.17     35.2    77.1    60.1    31.9    4.86    1.92     0.0    1.3    4.1    0.76    1.30
 1991 322   102    99    96.4     0.0    96.4    0.00    3.13     40.6    77.4    62.6    33.8    4.81    1.90     0.0    1.2    4.7    0.82    1.39
 1991 323   103   100   101.5     0.0   101.5    0.00    3.13     46.6    77.9    65.6    35.9    4.82    1.91     0.0    1.3    5.4    0.87    1.45
 1991 324   104   101   107.3     0.0   107.3    0.00    3.14     52.7    78.5    69.0    38.3    4.85    1.93     0.0    1.3    5.9    0.92    1.53
 1991 325   105   102   113.1     0.0   113.1    0.00    3.14     59.8    78.9    72.3    40.8    4.85    1.93     4.0    1.3    6.3    0.98    1.62
 1991 326   106   103   119.6     0.0   119.5    0.00    3.15     66.8    79.4    76.0    43.5    4.88    1.95     4.0    1.3    6.9    1.05    1.73
 1991 327   107   104   125.4     0.0   125.1    0.00    3.16     72.9    79.8    79.2    45.9    4.89    1.96     4.0    1.3    6.2    1.13    1.87
 1991 328   108   105   127.5     0.0   127.0    0.00    3.16     74.4    80.8    80.2    46.7    4.89    1.96     4.0    1.3    1.5    1.18    1.95
 1991 329   109   106   129.5     0.0   128.7    0.00    3.16     76.1    81.5    81.2    47.5    4.89    1.96     4.0    1.3    1.7    1.23    2.07
 1991 330   110   107   133.0     0.0   131.9    0.00    3.16     79.0    82.5    83.0    48.9    4.90    1.97     3.9    1.3    2.9    1.29    2.15
 1991 331   111   108   138.3     0.0   137.0    0.00    3.16     85.0    82.8    85.8    51.1    4.91    1.98     3.9    1.3    5.8    1.35    2.24
 1991 332   112   109   143.9     0.0   142.2    0.00    3.16     90.3    84.0    88.7    53.5    4.92    1.98     3.9    1.3    5.0    1.43    2.36
 1991 333   113   110   148.2     0.0   146.1    0.00    3.15     94.9    84.5    90.9    55.2    4.92    1.98     3.9    1.3    4.5    1.51    2.49
 1991 334   114   111   154.9     0.0   152.4    0.00    3.15    102.0    85.1    94.3    58.1    4.93    1.99     3.9    1.3    7.0    1.60    2.63
 1991 335   115   112   161.1     0.0   158.0    0.00    3.15    108.8    85.3    97.4    60.6    4.94    1.99     3.9    1.3    6.8    1.69    2.76
 1991 336   116   113   167.9     0.0   164.1    0.00    3.15    115.8    86.0   100.7    63.4    4.95    2.00     3.9    1.3    6.9    1.78    2.91
 1991 337   117   114   172.0     0.0   167.4    0.00    3.14    120.3    86.3   102.4    65.0    4.95    2.00     3.9    1.3    4.5    1.88    3.06
 1991 338   118   115   178.7     0.0   173.2    0.00    3.14    127.6    86.5   105.5    67.7    4.96    2.00     3.9    1.3    7.3    1.97    3.22
 1991 339   119   116   182.6     0.0   176.0    0.00    3.13    130.6    87.9   107.0    69.1    4.95    1.99     3.9    1.3    3.0    2.07    3.38
 1991 340   120   117   189.0     0.0   181.3    0.00    3.12    137.6    88.1   109.7    71.6    4.95    2.00     3.9    1.4    7.0    2.18    3.56
 1991 341   121   118   193.2     0.0   184.2    0.00    3.11    141.7    88.8   111.2    73.0    4.95    1.99     3.9    1.4    4.1    2.29    3.73
 1991 342   122   119   199.6     0.0   189.1    0.00    3.10    147.7    89.9   113.7    75.4    4.95    1.99     3.9    1.4    6.0    2.40    3.91
 1991 343   123   120   201.7     0.0   189.7    0.00    3.09    149.5    90.6   113.9    75.7    4.93    1.98     3.9    1.4    1.8    2.49    4.06
 1991 344   124   121   207.6     0.0   194.0    0.00    3.08    155.7    91.0   116.1    77.9    4.93    1.98     3.9    1.4    6.2    2.60    4.23
 1991 345   125   122   212.5     0.0   197.2    0.00    3.07    160.9    91.3   117.7    79.5    4.92    1.97     3.9    1.4    5.2    2.71    4.40
 1991 346   126   123   214.5     0.0   197.5    0.00    3.05    162.9    91.6   117.7    79.8    4.90    1.96     3.8    1.4    2.0    2.82    4.55
 1991 347   127   124   220.7     0.0   202.3    0.00    3.04    169.6    92.3   120.1    82.2    4.90    1.96     3.8    1.4    6.7    3.37    4.72
 1991 348   128   125   221.9     0.0   202.2    6.11    3.02    171.2    92.6   119.9    82.3    4.88    1.94     3.8    1.3    1.7    4.08    4.86
 1991 349   129   126   222.6     0.1   202.2    6.10    3.01    173.2    92.9   119.8    82.4    4.86    1.93     3.8    1.3    1.9    5.42    5.01
 1991 350   130   127   227.6     0.3   205.0    6.13    2.99    177.7    94.0   121.1    83.9    4.86    1.93     3.8    1.3    4.4    5.54    5.18
 1991 351   131   128   232.2     0.4   208.8    6.16    2.98    184.0    94.3   122.9    85.9    4.85    1.92     3.8    1.3    6.3    7.03    5.36
 1991 352   132   129   237.5     0.7   212.1    6.23    2.97    189.1    95.4   124.4    87.7    4.84    1.92     3.8    1.3    5.1    7.37    5.56
 1991 353   133   130   242.0     0.9   214.6    6.26    2.96    194.2    95.7   125.5    89.1    4.83    1.91     3.8    1.3    5.1    7.83    5.76
 1991 354   134   131   247.5     1.2   218.2    6.28    2.94    200.4    96.1   127.1    91.1    4.83    1.91     3.8    1.3    6.2    8.52    5.96
 1991 355   135   132   252.4     1.6   220.6    6.32    2.93    205.4    96.7   128.1    92.5    4.82    1.90     3.8    1.3    4.9    8.65    6.18
 1991 356   136   133   253.4     2.0   220.1    6.31    2.91    207.2    97.3   127.7    92.4    4.80    1.89     3.8    1.3    1.9   10.08    6.39
 1991 357   137   134   256.3     2.4   222.5    6.32    2.90    210.4    99.9   128.7    93.8    4.79    1.88     3.7    1.3    3.2   12.49    6.60
 1991 358   138   135   260.6     3.1   225.2    6.35    2.89    215.6   100.8   129.8    95.4    4.78    1.88     3.7    1.3    5.2   13.87    6.82
 1991 359   139   136   264.3     3.8   227.3    6.30    2.88    221.1   101.2   130.7    96.7    4.78    1.88     3.7    1.3    5.5   15.64    7.00
 1991 360   140   137   269.6     4.7   229.4    6.27    2.87    226.1   101.9   131.5    97.9    4.77    1.87     3.7    1.3    5.0   15.77    7.14
 1991 361   141   138   275.1     5.6   232.9    6.25    2.87    233.3   102.1   133.0    99.9    4.77    1.87     3.7    1.3    7.1   17.06    7.29
 1991 362   142   139   279.9     6.5   236.1    6.23    2.86    240.3   102.3   134.4   101.7    4.77    1.87     3.7    1.3    7.0   18.95    7.47
 1991 363   143   140   284.7     7.6   239.1    6.22    2.85    246.4   103.2   135.7   103.4    4.76    1.87     3.7    1.3    6.1   20.71    7.66
 1991 364   144   141   288.4     8.9   240.7    6.23    2.84    251.2   104.2   136.3   104.4    4.75    1.86     3.7    1.3    4.7   22.43    7.88
 1991 365   145   142   291.4    10.4   241.4    6.27    2.83    255.8   104.4   136.4   104.9    4.75    1.86     3.7    1.3    4.6   23.94    8.13
 1992 001   146   143   292.6    11.9   239.5    6.28    2.82    258.5   104.6   135.3   104.2    4.73    1.85     3.7    1.3    2.7   24.99    8.37
 1992 002   147   144   296.7    13.6   240.1    6.28    2.81    261.9   106.3   135.4   104.7    4.72    1.84     3.6    1.3    3.4   25.77    8.59
 1992 003   148   145   302.3    15.2   242.4    6.26    2.80    268.6   106.6   136.4   106.0    4.72    1.84     3.6    1.3    6.7   26.74    8.74
 1992 004   149   146   308.4    16.9   245.4    6.24    2.80    276.2   106.9   137.7   107.7    4.72    1.84     3.6    1.3    7.6   28.00    8.93
 1992 005   150   147   313.9    18.6   247.7    6.23    2.79    281.5   108.6   138.6   109.1    4.71    1.84     3.6    1.3    5.3   29.10    9.11
 1992 006   151   148   317.8    20.6   248.4    6.22    2.78    286.9   108.8   138.8   109.6    4.71    1.83     3.6    1.3    5.4   30.51    9.31
 1992 007   152   149   322.3    22.6   249.6    6.22    2.77    292.4   109.6   139.2   110.4    4.70    1.83     3.6    1.3    5.5   31.92    9.53
 1992 008   153   150   327.0    24.8   250.9    6.24    2.77    298.3   110.2   139.6   111.3    4.70    1.83     3.6    1.3    5.9   33.39    9.80
 1992 009   154   151   330.6    27.1   251.2    6.25    2.76    303.1   110.9   139.6   111.6    4.69    1.82     3.6    1.3    4.9   35.09   10.04
 1992 010   155   152   331.0    29.6   249.6    6.27    2.74    308.6   111.2   138.6   111.0    4.66    1.81     3.5    1.3    5.4   38.34   10.28
 1992 011   156   153   337.2    32.3   251.8    6.26    2.74    316.0   111.8   139.5   112.3    4.67    1.81     3.5    1.3    7.4   39.76   10.47
 1992 012   157   154   343.4    35.0   252.8    6.24    2.73    321.6   113.1   139.8   113.0    4.66    1.81     3.5    1.3    5.6   39.95   10.66
 1992 013   158   155   348.5    37.8   253.2    6.24    2.72    329.3   113.3   139.8   113.4    4.65    1.80     3.5    1.3    7.7   40.95   10.86
 1992 014   159   156   351.4    40.7   251.7    6.23    2.70    335.3   113.5   138.9   112.8    4.62    1.78     3.5    1.3    6.1   42.28   11.08
 1992 015   160   157   353.7    43.4   250.6    6.24    2.68    340.9   114.2   138.2   112.4    4.60    1.77     3.5    1.3    5.5   43.99   11.19
 1992 016   161   158   357.6    46.0   251.4    6.24    2.67    346.1   115.3   138.4   113.0    4.59    1.76     3.5    1.3    5.2   45.81   11.32
 1992 017   162   159   362.1    49.2   252.1    6.23    2.66    352.4   115.9   138.5   113.6    4.58    1.76     3.4    1.3    6.2   47.91   11.50
 1992 018   163   160   366.9    52.5   252.4    6.22    2.65    358.6   116.0   138.5   113.9    4.57    1.75     3.4    1.3    6.3   49.18   11.69
 1992 019   164   161   370.8    56.1   251.1    6.23    2.63    363.4   116.3   137.6   113.4    4.55    1.74     3.4    1.3    4.7   50.17   11.91
 1992 020   165   162   372.0    59.8   248.9    6.24    2.61    369.5   116.8   136.4   112.5    4.52    1.72     3.4    1.3    6.1   52.82   12.18
 1992 021   166   163   374.0    64.0   246.0    6.25    2.58    374.1   117.9   134.8   111.2    4.49    1.70     3.4    1.3    4.7   54.67   12.44
 1992 022   167   164   376.4    68.3   243.2    6.25    2.55    380.4   118.0   133.2   110.0    4.46    1.68     3.3    1.3    6.3   56.26   12.66
 1992 023   168   165   379.1    72.6   240.6    6.24    2.53    386.3   118.8   131.7   108.9    4.43    1.66     3.3    1.3    5.9   57.72   12.86
 1992 024   169   166   380.7    77.3   236.8    6.24    2.50    389.1   120.5   129.6   107.2    4.39    1.64     3.3    1.3    2.8   59.57   13.06
 1992 025   170   167   380.8    82.2   231.9    6.25    2.47    391.9   120.6   127.0   104.9    4.35    1.62     3.3    1.3    2.8   61.89   13.29
 1992 026   171   168   382.8    87.5   227.8    6.25    2.44    397.3   120.8   124.8   103.0    4.31    1.60     3.2    1.3    5.4   63.11   13.51
 1992 027   172   169   383.5    92.9   223.5    6.25    2.41    401.5   121.3   122.5   101.0    4.27    1.58     3.2    1.2    4.2   65.64   13.73
 1992 028   173   170   384.4    98.7   218.5    6.26    2.38    404.4   121.8   119.8    98.7    4.23    1.55     3.2    1.2    2.9   67.41   13.95
 1992 029   174   171   385.3   104.8   213.1    6.27    2.34    407.0   122.3   116.9    96.2    4.18    1.53     3.1    1.2    2.6   68.89   14.18
 1992 030   175   172   383.4   111.2   208.0    6.28    2.31    407.0   123.1   114.2    93.8    4.13    1.50     3.1    1.2    0.0   71.63   15.03
 1992 031   176   173   384.4   118.0   202.4    6.29    2.27    409.6   124.3   111.2    91.2    4.08    1.47     3.0    1.2    2.5   72.97   15.25
 1992 032   177   174   385.6   125.0   197.0    6.30    2.23    412.4   125.2   108.3    88.7    4.03    1.45     3.0    1.2    2.8   74.37   15.47
 1992 033   178   175   386.6   132.3   192.0    6.32    2.19    416.5   125.7   105.6    86.4    3.97    1.42     2.9    1.2    4.1   76.37   15.68
 1992 034   179   176   387.9   140.2   186.4    6.32    2.15    418.6   126.1   102.7    83.8    3.92    1.39     2.9    1.2    2.1   77.04   15.88
 1992 035   180   177   389.6   148.2   181.1    6.31    2.11    422.5   126.7    99.8    81.3    3.86    1.36     2.8    1.2    3.9   78.55   16.06
 1992 036   181   178   392.2   156.6   175.8    6.32    2.07    426.4   127.5    96.9    78.9    3.80    1.33     2.8    1.1    3.9   79.46   16.25
 1992 037   182   179   395.0   165.3   170.7    6.32    2.03    430.3   128.4    94.2    76.5    3.74    1.30     2.7    1.1    3.9   80.32   16.44
 1992 038   183   180   397.7   174.1   165.7    6.33    1.99    434.8   128.7    91.4    74.2    3.68    1.27     2.7    1.1    4.4   81.14   16.63
 1992 039   184   181   399.7   182.9   160.5    6.34    1.94    437.9   129.5    88.6    71.9    3.62    1.24     2.6    1.1    3.1   82.24   16.83
 1992 040   185   182   400.3   191.2   155.2    6.34    1.90    438.3   130.1    85.8    69.4    3.55    1.21     2.5    1.1    0.4   82.78   17.15
 1992 041   186   183   400.0   198.1   150.3    6.33    1.86    438.3   130.1    83.1    67.2    3.49    1.18     2.5    1.1    0.0   83.29   17.85
 1992 042   187   184   401.4   206.7   145.3    6.33    1.81    439.3   130.7    80.4    64.9    3.42    1.14     2.4    1.1    1.1   83.75   18.00
 1992 043   188   185   405.3   216.7   140.5    6.33    1.77    442.8   132.3    77.8    62.7    3.35    1.11     2.3    1.1    3.4   84.17   18.15
 1992 044   189   186   406.0   224.5   135.5    6.33    1.72    443.3   132.7    75.1    60.5    3.28    1.08     2.2    1.1    0.5   84.55   18.32
 1992 045   190   187   405.9   230.4   131.3    6.32    1.68    443.3   132.7    72.7    58.6    3.22    1.05     2.2    1.0    0.0   84.84   18.97
 1992 046   191   188   390.8   238.8   109.7    6.29    1.55    443.3   134.7    55.9    53.8    3.12    1.02     2.1    1.0    0.0  102.23   19.13
 1992 047   192   189   377.9   244.7    92.9    6.22    1.43    443.3   135.1    43.0    49.9    3.02    0.98     2.0    1.0    0.0  115.65   19.29
 1992 048   193   190   368.1   249.8    79.7    6.14    1.33    443.3   135.4    33.1    46.6    2.94    0.96     1.9    1.0    0.0  125.93   19.45
 1992 049   194   191   360.4   254.2    69.3    6.10    1.24    443.3   135.8    25.5    43.8    2.85    0.93     1.9    1.0    0.0  133.85   19.62
 1992 050   195   192   354.6   258.1    61.1    6.09    1.15    443.3   136.2    19.7    41.4    2.77    0.90     1.8    1.0    0.0  139.96   19.80
 1992 051   196   193   350.1   261.7    54.6    6.10    1.08    443.3   136.4    15.2    39.4    2.70    0.88     1.7    1.0    0.0  144.67   20.44
 1992 052   197   194   346.6   263.7    50.0    6.10    1.03    443.3   136.4    11.9    38.1    2.66    0.86     1.7    1.0    0.0  148.30   21.01
 1992 053   198   195   343.8   264.1    46.9    6.10    1.00    443.3   136.4     9.5    37.5    2.65    0.86     1.7    1.0    0.0  151.14   21.50
 1992 054   199   196   341.6   265.2    44.2    6.10    0.97    443.3   136.4     7.5    36.7    2.63    0.86     1.6    1.0    0.0  153.39   22.00
 1992 055   200   197   339.8   266.2    41.9    6.10    0.94    443.3   136.4     5.9    36.0    2.60    0.85     1.6    1.0    0.0  155.16   22.48
 1992 056   201   198   338.5   266.8    40.2    6.10    0.92    443.3   136.4     4.7    35.6    2.59    0.84     1.6    1.0    0.0  156.56   22.93
 1992 057   202   199   337.4   266.8    39.1    6.10    0.90    443.3   136.4     3.7    35.4    2.59    0.85     1.6    1.0    0.0  157.68   23.37

*DSSAT Cropping System Model Ver. 4.0.2.000               Aug 11, 2016; 19:59:12

*RUN   3        : UYSB                    
 MODEL          : CRGRO040 - Soybean         
 EXPERIMENT     : UYSB0145 SB    late to create DSS                             
 TREATMENT  1   : UYSB                    

@YEAR DOY   DAS   DAP    CNAD    GNAD    VNAD    GN%D    VN%D     NFXC    NUPC    LNAD    SNAD    LN%D    SN%D    SHND   RN%D   NFXD   SNN0C   SNN1C
 1992 223     3     0     0.0     0.0     0.0    0.00    0.00      0.0     0.0     0.0     0.0    0.00    0.00     0.0    0.0    0.0    0.00    0.00
 1992 224     4     1     0.0     0.0     0.0    0.00    0.00      0.0     0.0     0.0     0.0    0.00    0.00     0.0    0.0    0.0    0.00    0.00
 1992 225     5     2     0.0     0.0     0.0    0.00    0.00      0.0     0.0     0.0     0.0    0.00    0.00     0.0    0.0    0.0    0.00    0.00
 1992 226     6     3     0.0     0.0     0.0    0.00    0.00      0.0     0.0     0.0     0.0    0.00    0.00     0.0    0.0    0.0    0.00    0.00
 1992 227     7     4     0.0     0.0     0.0    0.00    0.00      0.0     0.0     0.0     0.0    0.00    0.00     0.0    0.0    0.0    0.00    0.00
 1992 228     8     5     0.0     0.0     0.0    0.00    0.00      0.0     0.0     0.0     0.0    0.00    0.00     0.0    0.0    0.0    0.00    0.00
 1992 229     9     6     0.0     0.0     0.0    0.00    0.00      0.0     0.0     0.0     0.0    0.00    0.00     0.0    0.0    0.0    0.00    0.00
 1992 230    10     7     0.0     0.0     0.0    0.00    0.00      0.0     0.0     0.0     0.0    0.00    0.00     0.0    0.0    0.0    0.00    0.00
 1992 231    11     8     0.0     0.0     0.0    0.00    0.00      0.0     0.0     0.0     0.0    0.00    0.00     0.0    0.0    0.0    0.00    0.00
 1992 232    12     9     0.0     0.0     0.0    0.00    0.00      0.0     0.0     0.0     0.0    0.00    0.00     0.0    0.0    0.0    0.00    0.00
 1992 233    13    10     0.0     0.0     0.0    0.00    0.00      0.0     0.0     0.0     0.0    0.00    0.00     0.0    0.0    0.0    0.00    0.00
 1992 234    14    11     0.0     0.0     0.0    0.00    0.00      0.0     0.0     0.0     0.0    0.00    0.00     0.0    0.0    0.0    0.00    0.00
 1992 235    15    12     0.2     0.0     0.2    0.00    5.15      0.0     0.0     0.2     0.0    5.70    2.64     0.0    1.5    0.0    0.00    0.00
 1992 236    16    13     0.2     0.0     0.2    0.00    5.15      0.0     0.0     0.2     0.0    5.70    2.64     0.0    1.5    0.0    0.00    0.01
 1992 237    17    14     0.2     0.0     0.2    0.00    5.13      0.0     0.0     0.2     0.0    5.70    2.65     0.0    1.5    0.0    0.00    0.01
 1992 238    18    15     0.2     0.0     0.2    0.00    5.11      0.0     0.1     0.2     0.0    5.70    2.65     0.0    1.5    0.0    0.00    0.01
 1992 239    19    16     0.2     0.0     0.2    0.00    5.10      0.1     0.1     0.2     0.0    5.70    2.65     0.0    1.5    0.0    0.00    0.01
 1992 240    20    17     0.3     0.0     0.3    0.00    5.07      0.1     0.1     0.2     0.0    5.71    2.65     0.0    1.5    0.0    0.00    0.01
 1992 241    21    18     0.3     0.0     0.3    0.00    5.06      0.1     0.1     0.2     0.0    5.71    2.65     0.0    1.5    0.0    0.00    0.01
 1992 242    22    19     0.3     0.0     0.3    0.00    5.03      0.1     0.2     0.3     0.0    5.71    2.65     0.0    1.5    0.0    0.00    0.01
 1992 243    23    20     0.3     0.0     0.3    0.00    5.02      0.1     0.2     0.3     0.0    5.71    2.65     0.0    1.5    0.0    0.00    0.02
 1992 244    24    21     0.3     0.0     0.3    0.00    5.03      0.1     0.2     0.3     0.0    5.71    2.65     0.0    1.5    0.0    0.00    0.02
 1992 245    25    22     0.3     0.0     0.3    0.00    5.02      0.1     0.2     0.3     0.0    5.71    2.65     0.0    1.5    0.0    0.00    0.02
 1992 246    26    23     0.3     0.0     0.3    0.00    5.02      0.1     0.2     0.3     0.0    5.71    2.65     0.0    1.5    0.0    0.00    0.02
 1992 247    27    24     0.3     0.0     0.3    0.00    5.00      0.1     0.2     0.3     0.0    5.71    2.65     0.0    1.5    0.0    0.00    0.02
 1992 248    28    25     0.4     0.0     0.4    0.00    4.97      0.1     0.3     0.3     0.0    5.71    2.65     0.0    1.5    0.0    0.00    0.02
 1992 249    29    26     0.4     0.0     0.4    0.00    4.93      0.1     0.3     0.3     0.1    5.72    2.65     0.0    1.5    0.0    0.00    0.02
 1992 250    30    27     0.4     0.0     0.4    0.00    4.90      0.1     0.3     0.3     0.1    5.72    2.65     0.0    1.5    0.0    0.00    0.03
 1992 251    31    28     0.4     0.0     0.4    0.00    4.87      0.1     0.4     0.4     0.1    5.72    2.65     0.0    1.5    0.0    0.00    0.03
 1992 252    32    29     0.4     0.0     0.4    0.00    4.86      0.1     0.4     0.4     0.1    5.72    2.66     0.0    1.5    0.0    0.00    0.03
 1992 253    33    30     0.5     0.0     0.5    0.00    4.89      0.1     0.4     0.4     0.1    5.72    2.66     0.0    1.5    0.0    0.00    0.03
 1992 254    34    31     0.5     0.0     0.5    0.00    4.91      0.1     0.5     0.4     0.1    5.72    2.66     0.0    1.5    0.0    0.00    0.03
 1992 255    35    32     0.5     0.0     0.5    0.00    4.92      0.1     0.5     0.5     0.1    5.72    2.66     0.0    1.5    0.0    0.00    0.03
 1992 256    36    33     0.6     0.0     0.6    0.00    4.92      0.1     0.6     0.5     0.1    5.72    2.66     0.0    1.5    0.0    0.00    0.03
 1992 257    37    34     0.6     0.0     0.6    0.00    4.93      0.1     0.6     0.5     0.1    5.72    2.66     0.0    1.5    0.0    0.00    0.04
 1992 258    38    35     0.7     0.0     0.7    0.00    4.91      0.1     0.7     0.6     0.1    5.72    2.66     0.0    1.5    0.0    0.00    0.04
 1992 259    39    36     0.7     0.0     0.7    0.00    4.88      0.1     0.8     0.6     0.1    5.72    2.66     0.0    1.5    0.0    0.00    0.04
 1992 260    40    37     0.8     0.0     0.8    0.00    4.85      0.1     0.9     0.7     0.1    5.72    2.66     0.0    1.5    0.0    0.00    0.04
 1992 261    41    38     0.9     0.0     0.9    0.00    4.83      0.1     1.0     0.7     0.1    5.72    2.66     0.0    1.5    0.0    0.00    0.04
 1992 262    42    39     1.0     0.0     1.0    0.00    4.84      0.1     1.1     0.8     0.2    5.72    2.66     0.0    1.5    0.0    0.00    0.04
 1992 263    43    40     1.1     0.0     1.1    0.00    4.82      0.1     1.2     0.9     0.2    5.72    2.66     0.0    1.5    0.0    0.00    0.04
 1992 264    44    41     1.2     0.0     1.2    0.00    4.77      0.1     1.3     1.0     0.2    5.72    2.66     0.0    1.5    0.0    0.00    0.04
 1992 265    45    42     1.3     0.0     1.3    0.00    4.71      0.1     1.5     1.1     0.2    5.72    2.66     0.0    1.5    0.0    0.00    0.05
 1992 266    46    43     1.3     0.0     1.3    0.00    4.73      0.1     1.6     1.1     0.2    5.72    2.66     0.0    1.5    0.0    0.00    0.05
 1992 267    47    44     1.4     0.0     1.4    0.00    4.70      0.1     1.7     1.2     0.3    5.72    2.66     0.0    1.5    0.0    0.00    0.05
 1992 268    48    45     1.5     0.0     1.5    0.00    4.71      0.1     1.7     1.2     0.3    5.72    2.66     0.0    1.5    0.0    0.00    0.06
 1992 269    49    46     1.5     0.0     1.5    0.00    4.69      0.1     1.8     1.2     0.3    5.72    2.66     0.0    1.5    0.0    0.00    0.06
 1992 270    50    47     1.6     0.0     1.6    0.00    4.67      0.1     1.9     1.3     0.3    5.72    2.66     0.0    1.5    0.0    0.00    0.06
 1992 271    51    48     1.7     0.0     1.7    0.00    4.66      0.1     2.1     1.4     0.3    5.72    2.66     0.0    1.5    0.0    0.00    0.06
 1992 272    52    49     1.9     0.0     1.9    0.00    4.64      0.1     2.3     1.5     0.4    5.72    2.66     0.0    1.5    0.0    0.00    0.06
 1992 273    53    50     2.1     0.0     2.1    0.00    4.61      0.1     2.5     1.6     0.4    5.72    2.66     0.0    1.5    0.0    0.00    0.06
 1992 274    54    51     2.3     0.0     2.3    0.00    4.57      0.1     2.8     1.8     0.5    5.72    2.66     0.0    1.5    0.0    0.00    0.06
 1992 275    55    52     2.4     0.0     2.4    0.00    4.54      0.1     3.0     1.9     0.6    5.72    2.66     0.0    1.5    0.0    0.00    0.07
 1992 276    56    53     2.6     0.0     2.6    0.00    4.51      0.1     3.2     2.0     0.6    5.72    2.66     0.0    1.5    0.0    0.00    0.07
 1992 277    57    54     2.8     0.0     2.8    0.00    4.47      0.1     3.4     2.1     0.7    5.72    2.66     0.0    1.5    0.0    0.00    0.07
 1992 278    58    55     3.0     0.0     3.0    0.00    4.43      0.2     3.8     2.3     0.8    5.72    2.66     0.0    1.5    0.0    0.00    0.08
 1992 279    59    56     3.2     0.0     3.2    0.00    4.44      0.2     3.9     2.4     0.8    5.72    2.66     0.0    1.5    0.0    0.00    0.09
 1992 280    60    57     3.4     0.0     3.4    0.00    4.42      0.2     4.2     2.5     0.9    5.72    2.66     0.0    1.5    0.0    0.00    0.09
 1992 281    61    58     3.6     0.0     3.6    0.00    4.40      0.2     4.5     2.7     0.9    5.72    2.66     0.0    1.5    0.0    0.00    0.09
 1992 282    62    59     3.8     0.0     3.8    0.00    4.37      0.2     4.8     2.8     1.0    5.72    2.66     0.0    1.5    0.0    0.00    0.09
 1992 283    63    60     4.1     0.0     4.1    0.00    4.33      0.2     5.1     3.0     1.1    5.72    2.66     0.0    1.5    0.0    0.00    0.09
 1992 284    64    61     4.5     0.0     4.5    0.00    4.28      0.2     5.6     3.2     1.3    5.72    2.66     0.0    1.5    0.0    0.00    0.10
 1992 285    65    62     4.8     0.0     4.8    0.00    4.23      0.2     6.0     3.3     1.5    5.72    2.66     0.0    1.5    0.0    0.00    0.11
 1992 286    66    63     5.2     0.0     5.2    0.00    4.18      0.2     6.6     3.5     1.7    5.72    2.66     0.0    1.5    0.0    0.00    0.11
 1992 287    67    64     5.8     0.0     5.8    0.00    4.20      0.2     7.3     4.0     1.8    5.72    2.66     0.0    1.5    0.0    0.00    0.12
 1992 288    68    65     6.6     0.0     6.6    0.00    4.23      0.3     8.2     4.6     2.0    5.72    2.66     0.0    1.5    0.0    0.00    0.13
 1992 289    69    66     7.0     0.0     7.0    0.00    4.24      0.3     8.6     4.9     2.1    5.72    2.66     0.0    1.5    0.0    0.00    0.15
 1992 290    70    67     7.4     0.0     7.4    0.00    4.25      0.3     9.1     5.2     2.2    5.73    2.66     0.0    1.5    0.0    0.00    0.16
 1992 291    71    68     8.3     0.0     8.3    0.00    4.26      0.3    10.1     5.8     2.5    5.72    2.66     0.0    1.5    0.0    0.00    0.17
 1992 292    72    69     9.2     0.0     9.2    0.00    4.27      0.3    11.2     6.5     2.7    5.72    2.66     0.0    1.5    0.0    0.00    0.17
 1992 293    73    70     9.7     0.0     9.7    0.00    4.27      0.3    11.8     6.9     2.9    5.72    2.66     0.0    1.5    0.0    0.00    0.19
 1992 294    74    71    10.7     0.0    10.7    0.00    4.28      0.3    12.9     7.6     3.1    5.72    2.66     0.0    1.5    0.0    0.00    0.19
 1992 295    75    72    11.8     0.0    11.8    0.00    4.28      0.4    14.1     8.3     3.4    5.72    2.66     0.0    1.5    0.0    0.00    0.20
 1992 296    76    73    13.2     0.0    13.2    0.00    4.28      0.4    15.7     9.3     3.8    5.72    2.66     0.0    1.5    0.0    0.00    0.21
 1992 297    77    74    14.9     0.0    14.9    0.00    4.28      0.4    17.7    10.6     4.4    5.72    2.66     0.0    1.5    0.0    0.00    0.23
 1992 298    78    75    16.9     0.0    16.9    0.00    4.28      0.5    20.0    11.9     4.9    5.72    2.66     0.0    1.5    0.0    0.00    0.25
 1992 299    79    76    18.0     0.0    18.0    0.00    4.28      0.5    21.3    12.7     5.3    5.72    2.66     0.0    1.5    0.0    0.00    0.27
 1992 300    80    77    20.5     0.0    20.5    0.00    4.27      0.5    24.2    14.5     6.1    5.72    2.66     0.0    1.5    0.0    0.00    0.29
 1992 301    81    78    23.4     0.0    23.4    0.00    4.26      0.6    27.5    16.4     7.0    5.72    2.66     0.0    1.5    0.0    0.00    0.32
 1992 302    82    79    24.3     0.0    24.3    0.00    4.26      0.6    28.6    17.1     7.3    5.72    2.66     0.0    1.5    0.0    0.00    0.34
 1992 303    83    80    26.7     0.0    26.7    0.00    4.25      0.7    31.3    18.7     8.0    5.72    2.66     0.0    1.5    0.0    0.00    0.35
 1992 304    84    81    29.3     0.0    29.3    0.00    4.24      0.7    34.3    20.4     8.9    5.72    2.66     0.0    1.5    0.0    0.00    0.36
 1992 305    85    82    32.3     0.0    32.3    0.00    4.23      0.8    37.7    22.5     9.9    5.71    2.66     0.0    1.5    0.0    0.01    0.38
 1992 306    86    83    36.1     0.0    36.1    0.00    4.21      0.8    42.0    25.0    11.2    5.71    2.65     0.0    1.5    0.0    0.01    0.41
 1992 307    87    84    40.2     0.0    40.2    0.00    4.19      0.9    46.6    27.6    12.5    5.71    2.65     0.0    1.5    0.0    0.05    0.44
 1992 308    88    85    43.1     0.0    43.1    0.00    4.17      1.0    49.9    29.5    13.5    5.70    2.64     0.0    1.5    0.0    0.06    0.47
 1992 309    89    86    45.2     0.0    45.2    0.00    4.16      1.0    52.4    30.9    14.3    5.69    2.63     0.0    1.5    0.0    0.07    0.48
 1992 310    90    87    47.4     0.0    47.4    0.00    4.15      1.1    54.8    32.4    15.1    5.69    2.63     0.0    1.5    0.0    0.08    0.49
 1992 311    91    88    50.6     0.0    50.6    0.00    4.15      1.1    58.3    34.4    16.2    5.69    2.63     0.0    1.5    0.0    0.09    0.51
 1992 312    92    89    54.2     0.0    54.2    0.00    4.12      1.2    62.3    36.7    17.5    5.67    2.62     0.0    1.5    0.1    0.11    0.54
 1992 313    93    90    58.7     0.0    58.7    0.00    4.10      1.3    67.4    39.5    19.1    5.66    2.61     0.0    1.5    0.0    0.15    0.57
 1992 314    94    91    62.6     0.0    62.6    0.00    3.96      2.5    70.8    42.2    20.4    5.53    2.49     0.0    1.4    1.0    0.20    0.62
 1992 315    95    92    65.3     0.0    65.3    0.00    3.98      2.5    73.8    43.9    21.4    5.56    2.52     0.0    1.4    0.0    0.20    0.71
 1992 316    96    93    67.7     0.0    67.7    0.00    3.80      4.0    75.5    45.5    22.2    5.41    2.36     0.0    1.4    1.2    0.25    0.77
 1992 317    97    94    69.9     0.0    69.9    0.00    3.61      5.7    77.1    46.9    23.0    5.26    2.20     0.0    1.3    1.4    0.30    0.84
 1992 318    98    95    72.6     0.0    72.6    0.00    3.47      7.6    78.9    48.7    23.9    5.14    2.09     0.0    1.3    1.7    0.35    0.90
 1992 319    99    96    75.2     0.0    75.2    0.00    3.38      9.9    80.1    50.5    24.8    5.06    2.02     0.0    1.3    1.9    0.40    0.97
 1992 320   100    97    78.5     0.0    78.5    0.00    3.30     12.6    81.7    52.6    25.9    4.98    1.96     0.0    1.3    2.3    0.46    1.04
 1992 321   101    98    81.5     0.0    81.5    0.00    3.24     15.7    82.6    54.5    27.0    4.93    1.91     0.0    1.2    2.6    0.49    1.09
 1992 322   102    99    85.6     0.0    85.6    0.00    3.22     19.3    84.2    57.0    28.6    4.90    1.91     0.0    1.2    3.1    0.52    1.13
 1992 323   103   100    89.2     0.0    89.2    0.00    3.17     23.3    84.8    59.3    29.9    4.85    1.87     0.0    1.2    3.5    0.56    1.18
 1992 324   104   101    93.1     0.0    93.1    0.00    3.10     28.0    85.4    61.8    31.2    4.78    1.82     0.0    1.2    4.0    0.61    1.26
 1992 325   105   102    98.1     0.0    98.1    0.00    3.10     33.4    86.4    64.8    33.3    4.79    1.84     0.0    1.2    4.7    0.67    1.36
 1992 326   106   103   100.5     0.0   100.5    0.00    3.11     35.7    87.0    66.2    34.3    4.80    1.85     0.0    1.2    2.2    0.72    1.43
 1992 327   107   104   105.3     0.0   105.3    0.00    3.13     40.4    87.9    69.0    36.2    4.82    1.88     0.0    1.2    4.4    0.75    1.49
 1992 328   108   105   109.7     0.0   109.7    0.00    3.15     44.7    88.8    71.6    38.0    4.85    1.90     0.0    1.2    4.1    0.79    1.54
 1992 329   109   106   115.8     0.0   115.8    0.00    3.17     50.7    90.1    75.2    40.6    4.87    1.92     0.0    1.2    5.6    0.84    1.63
 1992 330   110   107   121.4     0.0   121.4    0.00    3.18     56.8    90.7    78.5    42.9    4.89    1.94     0.0    1.2    5.6    0.92    1.72
 1992 331   111   108   126.7     0.0   126.7    0.00    3.19     63.0    90.9    81.6    45.1    4.91    1.95     0.0    1.3    5.9    1.02    1.82
 1992 332   112   109   133.0     0.0   133.0    0.00    3.19     71.1    91.1    85.2    47.8    4.90    1.96     0.0    1.3    6.9    1.13    1.93
 1992 333   113   110   138.9     0.0   138.9    0.00    3.20     77.7    91.6    88.6    50.3    4.93    1.98     0.0    1.3    6.3    1.26    2.04
 1992 334   114   111   144.3     0.0   144.3    0.00    3.21     84.0    91.7    91.7    52.6    4.95    1.99     0.0    1.3    6.1    1.44    2.18
 1992 335   115   112   150.2     0.0   150.2    0.00    3.22     89.9    92.7    95.0    55.2    4.97    2.01     0.0    1.3    5.7    1.61    2.32
 1992 336   116   113   157.3     0.0   157.3    0.00    3.24     97.4    93.5    99.1    58.2    5.00    2.03     0.0    1.3    7.3    1.74    2.43
 1992 337   117   114   164.2     0.0   164.2    0.00    3.25    105.3    93.8   103.0    61.2    5.03    2.04     0.0    1.3    7.6    1.90    2.53
 1992 338   118   115   171.3     0.0   171.3    0.00    3.27    112.4    95.1   107.0    64.3    5.05    2.06     0.0    1.3    6.9    2.12    2.64
 1992 339   119   116   178.7     0.0   178.7    0.00    3.28    120.8    95.4   111.2    67.5    5.07    2.07     0.0    1.3    8.2    2.23    2.78
 1992 340   120   117   184.2     0.0   184.2    0.00    3.28    127.1    95.6   114.2    69.9    5.08    2.08     0.0    1.3    6.1    2.33    2.93
 1992 341   121   118   190.5     0.0   190.5    0.00    3.28    134.0    95.9   117.8    72.8    5.09    2.08     0.0    1.3    6.9    2.44    3.11
 1992 342   122   119   197.0     0.0   197.0    0.00    3.28    140.4    96.9   121.4    75.6    5.10    2.09     0.0    1.3    6.4    2.55    3.27
 1992 343   123   120   203.7     0.0   203.7    0.00    3.28    147.8    97.2   125.1    78.6    5.10    2.09     4.0    1.3    7.4    2.65    3.43
 1992 344   124   121   209.6     0.0   209.4    0.00    3.28    153.4    98.2   128.2    81.2    5.11    2.09     4.0    1.3    5.7    2.76    3.60
 1992 345   125   122   215.5     0.0   215.0    0.00    3.27    159.9    98.6   131.3    83.7    5.11    2.09     4.0    1.3    6.4    2.88    3.79
[...]
 1995 296    76    73    14.5     0.0    14.5    0.00    4.32      0.4    17.1    10.4     4.1    5.72    2.66     0.0    1.5    0.0    0.00    0.20
 1995 297    77    74    16.4     0.0    16.4    0.00    4.31      0.4    19.2    11.7     4.6    5.72    2.66     0.0    1.5    0.0    0.00    0.22
 1995 298    78    75    17.5     0.0    17.5    0.00    4.31      0.5    20.6    12.5     5.0    5.72    2.66     0.0    1.5    0.0    0.00    0.24
 1995 299    79    76    18.3     0.0    18.3    0.00    4.31      0.5    21.5    13.1     5.2    5.72    2.66     0.0    1.5    0.0    0.00    0.25
 1995 300    80    77    19.1     0.0    19.1    0.00    4.31      0.5    22.4    13.6     5.5    5.72    2.66     0.0    1.5    0.0    0.00    0.27
 1995 301    81    78    20.7     0.0    20.7    0.00    4.30      0.5    24.3    14.8     6.0    5.72    2.66     0.0    1.5    0.0    0.00    0.27
 1995 302    82    79    22.3     0.0    22.3    0.00    4.29      0.5    26.1    15.9     6.5    5.72    2.66     0.0    1.5    0.0    0.00    0.28
 1995 303    83    80    24.3     0.0    24.3    0.00    4.28      0.6    28.3    17.2     7.1    5.72    2.66     0.0    1.5    0.0    0.00    0.29
 1995 304    84    81    27.0     0.0    27.0    0.00    4.28      0.6    31.4    19.1     7.9    5.72    2.66     0.0    1.5    0.0    0.00    0.31
 1995 305    85    82    30.3     0.0    30.3    0.00    4.26      0.7    35.1    21.3     9.0    5.71    2.65     0.0    1.5    0.0    0.01    0.34
 1995 306    86    83    33.9     0.0    33.9    0.00    4.24      0.7    39.3    23.7    10.1    5.71    2.65     0.0    1.5    0.0    0.01    0.37
 1995 307    87    84    37.5     0.0    37.5    0.00    4.20      0.8    43.4    26.1    11.4    5.68    2.63     0.0    1.5    0.0    0.03    0.41
 1995 308    88    85    41.7     0.0    41.7    0.00    4.20      0.9    48.3    28.9    12.8    5.69    2.64     0.0    1.5    0.0    0.04    0.45
 1995 309    89    86    46.0     0.0    46.0    0.00    4.16      1.0    53.1    31.6    14.4    5.67    2.62     0.0    1.5    0.0    0.10    0.50
 1995 310    90    87    49.9     0.0    49.9    0.00    4.14      1.1    57.5    34.1    15.8    5.67    2.62     0.0    1.5    0.0    0.11    0.56
 1995 311    91    88    52.2     0.0    52.2    0.00    4.13      1.1    60.1    35.6    16.7    5.68    2.62     0.0    1.5    0.0    0.14    0.61
 1995 312    92    89    54.8     0.0    54.8    0.00    4.13      1.2    63.0    37.2    17.6    5.69    2.62     0.0    1.5    0.0    0.17    0.66
 1995 313    93    90    57.1     0.0    57.1    0.00    4.11      1.2    65.7    38.6    18.5    5.68    2.61     0.0    1.5    0.0    0.25    0.71
 1995 314    94    91    60.8     0.0    60.8    0.00    3.99      2.5    68.8    40.9    19.9    5.55    2.52     0.0    1.4    1.1    0.29    0.75
 1995 315    95    92    63.9     0.0    63.9    0.00    3.81      3.9    71.4    43.0    20.9    5.41    2.37     0.0    1.4    1.2    0.33    0.79
 1995 316    96    93    66.7     0.0    66.7    0.00    3.71      5.5    73.1    44.8    21.9    5.32    2.29     0.0    1.4    1.4    0.36    0.83
 1995 317    97    94    68.0     0.0    68.0    0.00    3.49      7.4    73.7    45.7    22.3    5.15    2.10     0.0    1.3    1.6    0.40    0.88
 1995 318    98    95    69.5     0.0    69.5    0.00    3.33      9.5    74.3    46.7    22.8    5.02    1.98     0.0    1.3    1.8    0.45    0.94
 1995 319    99    96    72.1     0.0    72.1    0.00    3.24     12.0    75.4    48.4    23.7    4.94    1.90     0.0    1.3    2.1    0.50    1.01
 1995 320   100    97    75.7     0.0    75.7    0.00    3.25     14.7    77.0    50.6    25.1    4.95    1.93     0.0    1.3    2.5    0.54    1.07
 1995 321   101    98    79.0     0.0    79.0    0.00    3.20     17.9    78.0    52.7    26.3    4.90    1.89     0.0    1.2    2.7    0.59    1.13
 1995 322   102    99    82.8     0.0    82.8    0.00    3.15     21.5    79.3    55.2    27.6    4.85    1.85     0.0    1.2    3.1    0.63    1.19
 1995 323   103   100    86.2     0.0    86.2    0.00    3.08     25.6    79.9    57.4    28.8    4.79    1.80     0.0    1.2    3.6    0.67    1.25
 1995 324   104   101    90.0     0.0    90.0    0.00    3.02     30.4    80.3    59.8    30.2    4.73    1.76     0.0    1.2    4.1    0.72    1.32
 1995 325   105   102    94.3     0.0    94.3    0.00    3.01     35.9    80.5    62.3    31.9    4.70    1.76     0.0    1.2    4.7    0.78    1.41
 1995 326   106   103    98.0     0.0    98.0    0.00    3.02     40.3    80.6    64.5    33.5    4.73    1.79     0.0    1.2    4.2    0.84    1.52
 1995 327   107   104   103.4     0.0   103.4    0.00    3.05     45.8    81.4    67.7    35.8    4.76    1.81     0.0    1.2    5.3    0.90    1.62
 1995 328   108   105   109.5     0.0   109.5    0.00    3.08     51.8    82.6    71.2    38.3    4.80    1.85     0.0    1.2    5.8    1.01    1.72
 1995 329   109   106   115.0     0.0   115.0    0.00    3.09     58.7    82.8    74.3    40.6    4.82    1.86     0.0    1.2    6.1    1.16    1.82
 1995 330   110   107   121.4     0.0   121.4    0.00    3.11     66.0    83.3    78.0    43.4    4.85    1.89     0.0    1.2    6.8    1.24    1.95
 1995 331   111   108   127.2     0.0   127.2    0.00    3.13     70.5    85.5    81.4    45.8    4.88    1.91     0.0    1.3    4.3    1.29    2.02
 1995 332   112   109   133.6     0.0   133.6    0.00    3.14     77.7    85.7    85.1    48.5    4.90    1.93     0.0    1.3    7.1    1.34    2.09
 1995 333   113   110   140.4     0.0   140.4    0.00    3.15     85.9    85.9    89.0    51.4    4.91    1.94     0.0    1.3    7.5    1.41    2.21
 1995 334   114   111   147.4     0.0   147.4    0.00    3.16     93.7    86.1    92.9    54.5    4.94    1.96     0.0    1.3    7.8    1.49    2.34
 1995 335   115   112   151.2     0.0   151.0    0.00    3.16     97.2    87.0    94.9    56.1    4.94    1.96     4.0    1.3    3.4    1.58    2.48
 1995 336   116   113   157.0     0.0   156.6    0.00    3.16    103.7    87.1    98.1    58.5    4.95    1.97     3.9    1.3    6.5    1.67    2.64
 1995 337   117   114   163.8     0.0   163.0    0.00    3.17    111.3    87.2   101.6    61.4    4.96    1.98     3.9    1.3    7.6    1.77    2.80
 1995 338   118   115   170.8     0.0   169.6    0.00    3.17    118.7    87.7   105.3    64.3    4.97    1.99     3.9    1.3    7.5    1.86    2.96
 1995 339   119   116   177.2     0.0   175.6    0.00    3.17    125.0    88.8   108.6    67.0    4.98    2.00     3.9    1.3    6.2    1.96    3.14
 1995 340   120   117   184.0     0.0   181.8    0.00    3.17    132.0    89.4   112.0    69.8    4.99    2.00     3.9    1.3    7.0    2.07    3.32
 1995 341   121   118   189.8     0.0   187.0    0.00    3.17    137.9    90.2   114.8    72.2    5.00    2.01     3.9    1.3    5.9    2.16    3.49
 1995 342   122   119   196.5     0.0   192.9    0.00    3.17    145.3    90.3   118.0    74.9    5.00    2.01     3.9    1.3    7.4    2.25    3.62
 1995 343   123   120   203.2     0.0   198.9    0.00    3.17    151.6    91.5   121.2    77.6    5.01    2.02     3.9    1.3    6.3    2.32    3.74
 1995 344   124   121   210.7     0.0   205.5    0.00    3.17    159.9    91.6   124.8    80.7    5.02    2.02     3.9    1.3    8.2    2.41    3.89
 1995 345   125   122   217.2     0.0   211.1    0.00    3.17    166.6    92.4   127.8    83.3    5.02    2.02     3.9    1.3    6.6    2.51    4.05
 1995 346   126   123   224.2     0.0   217.1    0.00    3.16    174.1    92.7   131.0    86.1    5.02    2.02     3.9    1.4    7.5    2.59    4.19
 1995 347   127   124   231.4     0.0   223.3    0.00    3.16    181.1    93.8   134.3    89.0    5.03    2.02     3.9    1.4    7.0    2.70    4.37
 1995 348   128   125   238.4     0.0   229.1    0.00    3.15    188.9    93.9   137.4    91.8    5.03    2.02     3.9    1.4    7.8    2.81    4.55
 1995 349   129   126   245.3     0.0   234.9    0.00    3.15    196.2    94.4   140.4    94.5    5.03    2.03     3.9    1.4    7.3    2.91    4.73
 1995 350   130   127   250.9     0.0   239.4    0.00    3.15    202.1    94.8   142.7    96.7    5.03    2.02     3.9    1.4    6.0    3.03    4.97
 1995 351   131   128   257.5     0.0   244.7    0.00    3.14    209.0    95.3   145.4    99.2    5.03    2.02     3.9    1.4    6.8    3.16    5.20
 1995 352   132   129   263.1     0.0   249.1    0.00    3.13    214.6    96.1   147.7   101.4    5.03    2.02     3.9    1.4    5.6    3.28    5.45
 1995 353   133   130   269.4     0.0   253.9    0.00    3.12    220.8    97.0   150.1   103.8    5.03    2.02     3.8    1.4    6.2    3.42    5.70
 1995 354   134   131   276.0     0.0   259.0    0.00    3.12    227.7    97.5   152.6   106.3    5.03    2.02     3.8    1.4    6.9    3.54    5.93
 1995 355   135   132   280.8     0.0   262.2    0.00    3.11    232.6    98.1   154.2   108.0    5.02    2.01     3.8    1.4    4.8    3.68    6.20
 1995 356   136   133   285.0     0.0   264.5    0.00    3.10    236.5    98.9   155.2   109.2    5.01    2.01     3.8    1.4    4.0    3.83    6.46
 1995 357   137   134   286.8     0.0   264.1    0.00    3.08    237.3   100.3   154.9   109.3    5.00    1.99     3.8    1.4    0.8    4.10    6.77
 1995 358   138   135   286.2     0.0   263.4    0.00    3.07    237.9   101.7   154.3   109.1    4.99    1.98     3.8    1.4    0.6    6.60    7.00
 1995 359   139   136   287.5     0.1   263.4    6.14    3.05    240.3   102.0   154.1   109.3    4.97    1.97     3.8    1.4    2.3    7.77    7.22
 1995 360   140   137   292.9     0.3   267.6    6.14    3.04    247.2   102.6   156.1   111.5    4.97    1.97     3.8    1.4    6.9    9.23    7.44
 1995 361   141   138   299.4     0.6   271.6    6.13    3.03    254.3   102.8   157.9   113.7    4.96    1.96     3.8    1.4    7.1    9.38    7.64
 1995 362   142   139   304.9     0.9   275.5    6.13    3.01    261.0   103.3   159.7   115.8    4.95    1.96     3.8    1.4    6.7   10.46    7.86
 1995 363   143   140   310.2     1.3   279.1    6.14    3.00    267.3   103.9   161.3   117.7    4.94    1.95     3.8    1.4    6.3   11.53    8.09
 1995 364   144   141   315.2     1.7   282.7    6.14    2.98    274.2   104.0   162.9   119.8    4.93    1.94     3.8    1.4    7.0   12.93    8.31
 1995 365   145   142   319.4     2.1   286.0    6.14    2.97    280.7   104.3   164.4   121.6    4.92    1.93     3.8    1.4    6.5   15.04    8.55
 1996 001   146   143   324.2     2.7   289.4    6.14    2.96    287.2   104.9   165.8   123.5    4.91    1.93     3.7    1.4    6.4   16.74    8.78
 1996 002   147   144   328.1     3.4   292.0    6.19    2.94    292.7   105.6   166.9   125.1    4.90    1.92     3.7    1.4    5.6   18.63    9.05
 1996 003   148   145   332.6     4.2   294.3    6.27    2.93    298.2   105.9   167.8   126.5    4.89    1.91     3.7    1.4    5.5   19.50    9.35
 1996 004   149   146   334.3     5.1   293.5    6.29    2.91    299.8   107.5   167.2   126.4    4.86    1.90     3.7    1.3    1.5   20.72    9.63
 1996 005   150   147   339.1     6.1   296.3    6.29    2.90    306.7   107.7   168.3   128.1    4.86    1.90     3.7    1.3    7.0   22.64    9.90
 1996 006   151   148   345.0     7.2   299.3    6.26    2.89    313.3   108.7   169.5   129.8    4.85    1.89     3.7    1.3    6.5   23.65   10.12
 1996 007   152   149   350.9     8.3   302.4    6.24    2.88    320.5   108.9   170.8   131.6    4.85    1.89     3.7    1.4    7.2   24.68   10.34
 1996 008   153   150   356.2     9.5   304.8    6.23    2.87    327.4   109.1   171.7   133.1    4.84    1.88     3.7    1.4    6.9   25.98   10.58
 1996 009   154   151   359.3    10.9   305.2    6.23    2.86    331.4   110.1   171.7   133.5    4.82    1.87     3.7    1.3    3.9   27.62   10.84
 1996 010   155   152   364.1    12.3   307.1    6.25    2.85    337.6   110.4   172.3   134.7    4.82    1.87     3.7    1.3    6.3   28.86   11.11
 1996 011   156   153   364.7    13.9   304.1    6.24    2.83    339.3   110.6   170.7   133.4    4.80    1.86     3.6    1.3    1.6   30.13   11.36
 1996 012   157   154   369.7    15.7   305.5    6.25    2.83    344.7   111.8   171.1   134.4    4.79    1.86     3.6    1.3    5.5   31.33   11.65
 1996 013   158   155   371.5    17.5   305.3    6.25    2.81    349.1   112.4   170.8   134.6    4.78    1.85     3.6    1.3    4.4   34.42   11.92
 1996 014   159   156   377.4    19.5   307.4    6.24    2.81    355.6   113.8   171.6   135.8    4.78    1.85     3.6    1.3    6.4   35.82   12.14
 1996 015   160   157   382.2    21.6   308.7    6.23    2.80    362.2   114.0   171.9   136.7    4.77    1.84     3.6    1.3    6.6   37.50   12.37
 1996 016   161   158   384.1    24.0   306.2    6.23    2.78    366.6   114.1   170.5   135.7    4.75    1.83     3.6    1.3    4.4   38.86   12.65
 1996 017   162   159   387.3    26.6   304.9    6.23    2.77    370.7   115.1   169.6   135.3    4.74    1.82     3.6    1.3    4.0   40.41   12.89
 1996 018   163   160   391.2    29.2   304.3    6.22    2.76    377.4   115.6   169.1   135.2    4.72    1.81     3.6    1.3    6.7   41.83   13.14
 1996 019   164   161   394.5    32.0   302.5    6.21    2.73    384.0   115.8   168.0   134.5    4.69    1.80     3.5    1.3    6.6   42.98   13.38
 1996 020   165   162   395.9    34.9   300.2    6.21    2.71    389.7   116.2   166.6   133.6    4.67    1.78     3.5    1.3    5.7   45.59   13.61
 1996 021   166   163   398.3    38.1   297.7    6.21    2.69    394.6   117.3   165.1   132.6    4.64    1.77     3.5    1.3    4.9   47.17   13.87
 1996 022   167   164   400.6    41.6   294.6    6.22    2.67    400.1   117.6   163.4   131.3    4.61    1.75     3.5    1.3    5.5   48.66   14.15
 1996 023   168   165   402.7    45.2   291.6    6.23    2.65    405.8   117.8   161.6   130.0    4.59    1.73     3.5    1.3    5.7   50.40   14.42
 1996 024   169   166   402.2    49.0   287.0    6.22    2.62    405.8   119.0   159.2   127.9    4.56    1.72     3.5    1.3    0.0   52.30   15.23
 1996 025   170   167   401.5    53.2   281.6    6.22    2.60    406.7   119.4   156.2   125.3    4.52    1.70     3.4    1.3    0.9   54.21   15.49
 1996 026   171   168   399.7    57.6   276.6    6.21    2.57    406.9   120.4   153.6   123.0    4.49    1.68     3.4    1.3    0.2   57.14   15.99
 1996 027   172   169   402.0    62.3   272.3    6.21    2.55    412.1   121.9   151.2   121.1    4.46    1.66     3.4    1.3    5.2   58.30   16.23
 1996 028   173   170   404.7    67.2   268.7    6.21    2.52    417.8   122.3   149.1   119.6    4.42    1.64     3.4    1.2    5.7   59.59   16.47
 1996 029   174   171   404.0    72.5   263.1    6.21    2.49    418.1   122.6   146.1   117.0    4.38    1.62     3.3    1.2    0.3   61.08   16.84
 1996 030   175   172   404.6    78.0   258.2    6.23    2.46    424.6   122.9   143.4   114.8    4.34    1.59     3.3    1.2    6.5   63.59   17.11
 1996 031   176   173   405.8    84.0   252.6    6.23    2.43    427.6   123.3   140.4   112.2    4.30    1.57     3.3    1.2    3.0   65.42   17.35
 1996 032   177   174   407.9    90.4   247.6    6.23    2.40    433.0   123.8   137.6   109.9    4.26    1.55     3.2    1.2    5.4   67.04   17.58
 1996 033   178   175   409.3    96.8   242.5    6.22    2.36    436.7   125.0   134.9   107.7    4.22    1.53     3.2    1.2    3.7   69.28   17.77
 1996 034   179   176   412.4   103.8   237.9    6.22    2.33    443.2   125.4   132.3   105.6    4.17    1.50     3.2    1.2    6.5   70.66   17.99
 1996 035   180   177   414.3   111.3   232.0    6.23    2.30    447.0   125.8   129.1   102.9    4.12    1.48     3.1    1.2    3.8   72.05   18.22
 1996 036   181   178   417.5   119.0   227.0    6.23    2.26    453.3   126.5   126.4   100.7    4.08    1.45     3.1    1.2    6.3   73.15   18.44
 1996 037   182   179   421.0   126.4   223.0    6.22    2.23    459.4   127.8   124.1    98.9    4.03    1.43     3.1    1.2    6.1   74.29   18.65
 1996 038   183   180   422.9   134.3   218.0    6.23    2.19    464.9   128.0   121.3    96.7    3.98    1.40     3.0    1.2    5.5   76.25   18.85
 1996 039   184   181   425.2   143.2   211.8    6.24    2.15    468.9   128.2   117.9    93.9    3.93    1.37     3.0    1.1    4.0   77.36   19.07
 1996 040   185   182   425.2   152.2   205.7    6.24    2.11    469.2   128.7   114.6    91.1    3.87    1.34     2.9    1.1    0.3   78.33   19.51
 1996 041   186   183   428.5   162.0   199.8    6.24    2.07    474.3   129.2   111.4    88.4    3.81    1.32     2.8    1.1    5.1   78.96   19.70
 1996 042   187   184   432.6   170.9   195.5    6.24    2.04    479.5   130.4   109.0    86.5    3.77    1.29     2.8    1.1    5.2   79.65   19.82
 1996 043   188   185   436.1   178.8   191.8    6.24    2.01    485.4   130.6   106.9    84.9    3.72    1.27     2.8    1.1    5.9   80.28   19.93
 1996 044   189   186   441.1   188.2   188.3    6.24    1.98    490.0   131.8   104.9    83.4    3.68    1.25     2.7    1.1    4.5   81.15   20.07
 1996 045   190   187   443.6   198.1   182.7    6.23    1.93    493.6   132.1   101.8    80.9    3.62    1.22     2.6    1.1    3.7   82.09   20.23
 1996 046   191   188   447.4   208.7   177.0    6.23    1.89    498.6   132.8    98.7    78.3    3.55    1.19     2.6    1.1    5.0   82.80   20.41
 1996 047   192   189   450.9   219.4   171.3    6.23    1.85    503.6   133.1    95.5    75.8    3.49    1.16     2.5    1.1    5.1   83.66   20.60
 1996 048   193   190   453.5   230.7   165.3    6.24    1.80    506.5   133.7    92.2    73.1    3.41    1.13     2.4    1.1    2.8   84.43   20.80
 1996 049   194   191   456.3   241.9   159.6    6.23    1.76    510.0   134.2    89.1    70.5    3.35    1.10     2.4    1.1    3.5   85.47   20.97
 1996 050   195   192   459.4   253.4   153.9    6.24    1.71    513.5   134.4    85.9    68.0    3.27    1.07     2.3    1.0    3.5   86.07   21.16
 1996 051   196   193   459.9   262.0   148.4    6.24    1.66    514.0   134.8    82.9    65.5    3.20    1.03     2.2    1.0    0.4   86.54   21.36
 1996 052   197   194   461.0   270.4   143.2    6.19    1.61    514.0   136.1    80.0    63.2    3.13    1.00     2.1    1.0    0.0   86.97   21.52
 1996 053   198   195   443.2   278.9   119.3    6.15    1.49    514.0   137.2    61.3    58.0    3.03    0.97     2.0    1.0    0.0  106.11   21.71
 1996 054   199   196   428.5   284.8   100.8    6.11    1.38    514.0   137.4    47.1    53.7    2.93    0.94     1.9    1.0    0.0  120.73   21.90
 1996 055   200   197   417.5   288.7    87.2    6.11    1.29    514.0   137.4    36.6    50.6    2.87    0.92     1.9    1.0    0.0  131.89   22.57
 1996 056   201   198   408.9   293.2    75.9    6.11    1.20    514.0   137.4    28.2    47.7    2.79    0.89     1.8    1.0    0.0  140.66   23.23
 1996 057   202   199   402.9   297.7    67.1    6.09    1.12    514.0   138.2    21.8    45.3    2.72    0.87     1.7    1.0    0.0  147.38   23.37
 1996 058   203   200   397.9   301.6    59.9    6.09    1.05    514.0   138.5    16.8    43.1    2.64    0.85     1.7    1.0    0.0  152.59   23.71
 1996 059   204   201   393.9   302.0    55.7    6.09    1.01    514.0   138.5    13.4    42.3    2.64    0.85     1.7    1.0    0.0  156.60   24.31
 1996 060   205   202   390.9   304.4    51.4    6.09    0.96    514.0   138.5    10.5    40.9    2.59    0.83     1.6    1.0    0.0  159.78   24.88
 1996 061   206   203   388.5   306.5    47.9    6.09    0.92    514.0   138.5     8.2    39.7    2.54    0.82     1.6    1.0    0.0  162.26   25.40
 1996 062   207   204   386.6   307.8    45.3    6.09    0.89    514.0   138.5     6.4    38.9    2.51    0.81     1.6    1.0    0.0  164.20   25.90
 1996 063   208   205   385.1   308.1    43.7    6.09    0.88    514.0   138.5     5.1    38.5    2.51    0.81     1.6    1.0    0.0  165.73   26.37
 1996 064   209   206   383.9   308.1    42.4    6.09    0.86    514.0   138.5     4.1    38.3    2.51    0.81     1.6    1.0    0.0  166.94   26.83
