*SOIL NITROGEN DAILY OUTPUT FILE

*DSSAT Cropping System Model Ver. 4.0.2.000               Aug 11, 2016; 19:59:12

*RUN   1        : UYSB                    
 MODEL          : CRGRO040 - Soybean         
 EXPERIMENT     : UYSB0145 SB    late to create DSS                             
 TREATMENT  1   : UYSB                    

@YEAR DOY   DAS  NAPC  NI#M    NLCC   NIAD    NOAD   NITD   NHTD  NI1D  NI2D  NI3D  NI4D  NI5D  NI6D  NI7D  NI8D  NI9D  NI10  NH1D  NH2D  NH3D  NH4D  NH5D  NH6D  NH7D  NH8D  NH9D  NH10    NMNC    NITC    NDNC    NIMC    AMLC
 1990 220     0     0     0     0.0   54.3   15574   26.8   27.6   5.8   5.2   4.3   2.0   1.5   0.0   0.0   0.1   0.0   0.0   0.8   1.4   1.5   1.5   1.4  1.48  1.48  1.47  0.00  0.00    0.58    1.66    0.00    0.00    0.00
 1990 221     1     0     0     0.0   54.9   15573   28.1   26.8   6.2   5.3   4.4   2.1   1.6   0.1   0.1   0.2   0.0   0.0   0.5   1.3   1.5   1.4   1.4  1.47  1.46  1.43  0.00  0.00    1.15    3.04    0.00    0.00    0.00
 1990 222     2     0     0     0.0   55.5   15573   29.3   26.1   6.4   5.5   4.4   2.1   1.6   0.1   0.1   0.3   0.0   0.0   0.3   1.2   1.4   1.4   1.3  1.46  1.44  1.40  0.00  0.00    1.71    4.24    0.00    0.00    0.00
 1990 223     3     0     0     0.0   56.0   15572   30.4   25.6   2.9   6.7   4.9   2.2   1.7   0.1   0.1   0.4   0.0   0.0   0.3   1.2   1.4   1.3   1.3  1.44  1.42  1.38  0.00  0.00    2.26    5.33    0.00    0.00    0.00
 1990 224     4     2     2     0.0   58.5   15572   32.3   26.2   4.5   6.5   5.2   2.3   1.8   0.1   0.1   0.5   0.0   0.0   1.7   1.2   1.4   1.3   1.2  1.43  1.40  1.35  0.00  0.00    2.80    6.22    0.00    0.00    0.07
 1990 225     5     2     2     0.0   58.9   15571   33.7   25.2   5.3   6.4   5.3   2.3   1.8   0.2   0.2   0.6   0.0   0.0   0.8   1.2   1.4   1.3   1.2  1.41  1.38  1.33  0.00  0.00    3.35    7.58    0.00    0.00    0.19
 1990 226     6     2     2     0.0   59.4   15571   34.9   24.5   5.7   6.5   5.4   2.4   1.9   0.2   0.2   0.7   0.0   0.0   0.4   1.1   1.4   1.2   1.1  1.40  1.37  1.30  0.00  0.00    3.91    8.80    0.00    0.00    0.27
 1990 227     7     2     2     0.0   59.9   15570   36.0   23.9   2.5   5.9   6.3   3.1   2.0   0.2   0.2   0.8   0.0   0.0   0.2   1.1   1.4   1.2   1.1  1.39  1.35  1.28  0.00  0.00    4.48    9.89    0.00    0.00    0.32
 1990 228     8     2     2     0.0   60.4   15569   36.7   23.7   2.5   5.7   6.1   3.5   2.1   0.2   0.2   0.8   0.0   0.0   0.1   1.1   1.4   1.2   1.1  1.37  1.33  1.26  0.00  0.00    5.04   10.62    0.00    0.00    0.38
 1990 229     9     2     2     0.0   60.9   15569   37.4   23.5   2.5   5.7   6.0   3.6   2.3   0.3   0.2   0.9   0.0   0.0   0.0   1.1   1.5   1.2   1.0  1.36  1.31  1.24  0.00  0.00    5.57   11.29    0.00    0.00    0.45
 1990 230    10     2     2     0.0   61.4   15568   38.1   23.3   2.6   5.7   5.9   3.7   2.4   0.3   0.3   1.0   0.0   0.0   0.1   1.1   1.5   1.2   1.0  1.35  1.30  1.23  0.00  0.00    6.08   11.98    0.00    0.00    0.45
 1990 231    11     2     2     0.0   61.9   15568   38.8   23.0   2.6   5.8   5.9   3.7   2.5   0.3   0.3   1.1   0.0   0.0   0.1   1.1   1.5   1.1   1.0  1.34  1.28  1.21  0.00  0.00    6.56   12.72    0.00    0.00    0.47
 1990 232    12     2     2     0.0   62.3   15567   39.5   22.8   2.7   5.9   5.9   3.8   2.5   0.3   0.3   1.2   0.0   0.0   0.1   1.1   1.5   1.1   1.0  1.33  1.26  1.20  0.00  0.00    7.02   13.43    0.00    0.00    0.49
 1990 233    13     2     2     0.0   62.7   15567   40.2   22.5   2.7   5.9   6.0   3.8   2.6   0.3   0.3   1.2   0.0   0.0   0.1   1.0   1.5   1.1   0.9  1.32  1.25  1.18  0.00  0.00    7.49   14.15    0.00    0.00    0.49
 1990 234    14     2     2     0.0   63.2   15567   41.0   22.2   2.8   6.0   6.0   3.9   2.6   0.4   0.3   1.3   0.0   0.0   0.1   1.0   1.5   1.1   0.9  1.31  1.23  1.17  0.00  0.00    7.96   14.92    0.00    0.00    0.49
 1990 235    15     2     2     0.0   63.6   15566   41.7   21.9   2.9   6.0   6.1   3.9   2.7   0.4   0.4   1.4   0.0   0.0   0.1   1.0   1.5   1.0   0.9  1.30  1.22  1.16  0.00  0.00    8.43   15.68    0.00    0.00    0.49
 1990 236    16     2     2     0.0   64.1   15566   42.4   21.6   3.0   6.1   6.1   3.9   2.7   0.4   0.4   1.5   0.0   0.0   0.1   0.9   1.5   1.0   0.9  1.28  1.20  1.15  0.00  0.00    8.88   16.40    0.00    0.00    0.49
 1990 237    17     2     2     0.0   64.5   15565   43.1   21.4   3.0   6.1   6.2   4.0   2.7   0.4   0.4   1.5   0.0   0.0   0.0   0.9   1.5   1.0   0.8  1.27  1.19  1.14  0.00  0.00    9.32   17.09    0.00    0.00    0.51
 1990 238    18     2     2     0.0   64.9   15565   43.8   21.1   3.1   6.2   6.2   4.0   2.8   0.4   0.4   1.6   0.0   0.0   0.1   0.9   1.5   1.0   0.8  1.27  1.18  1.13  0.00  0.00    9.76   17.78    0.00    0.00    0.51
 1990 239    19     2     2     0.0   65.3   15564   44.4   20.9   1.0   5.0   6.6   4.8   3.1   0.5   0.4   1.7   0.0   0.0   0.1   0.9   1.5   1.0   0.8  1.26  1.16  1.12  0.00  0.00   10.21   18.47    0.00    0.00    0.51
 1990 240    20     2     2     0.0   65.7   15564   44.8   21.0   0.9   4.7   6.4   4.8   3.3   0.6   0.5   1.8   0.0   0.0   0.1   0.9   1.5   1.0   0.8  1.26  1.15  1.11  0.00  0.00   10.67   18.84    0.00    0.00    0.51
 1990 241    21     2     2     0.6   65.6   15563   44.5   21.1   1.0   4.6   6.2   4.8   3.3   0.7   0.5   1.7   0.0   0.0   0.1   0.9   1.5   1.0   0.8  1.26  1.14  1.13  0.00  0.00   11.13   19.16    0.00    0.00    0.51
 1990 242    22     2     2     0.8   65.8   15563   44.6   21.2   1.0   4.5   6.1   4.7   3.3   0.8   0.5   1.6   0.0   0.0   0.1   0.9   1.5   1.0   0.8  1.26  1.12  1.15  0.00  0.00   11.56   19.51    0.00    0.00    0.51
 1990 243    23     2     2     0.9   66.1   15563   44.9   21.2   1.0   4.5   6.1   4.7   3.3   0.8   0.5   1.7   0.0   0.0   0.1   0.9   1.5   1.0   0.8  1.26  1.11  1.16  0.00  0.00   11.99   19.87    0.00    0.00    0.51
 1990 244    24     2     2     1.0   66.4   15562   45.2   21.2   1.1   4.6   6.0   4.7   3.3   0.9   0.5   1.7   0.0   0.0   0.1   0.9   1.6   1.0   0.8  1.26  1.10  1.18  0.00  0.00   12.37   20.25    0.01    0.00    0.51
 1990 245    25     2     2     1.0   66.8   15562   45.6   21.2   1.1   4.6   6.1   4.7   3.4   0.9   0.5   1.7   0.0   0.0   0.1   0.9   1.6   1.0   0.8  1.26  1.09  1.19  0.00  0.00   12.74   20.61    0.02    0.00    0.51
 1990 246    26     2     2     1.0   67.1   15561   45.9   21.2   1.2   4.6   6.1   4.7   3.4   0.9   0.5   1.8   0.0   0.0   0.1   0.9   1.6   1.0   0.9  1.26  1.08  1.21  0.00  0.00   13.10   20.98    0.02    0.00    0.52
 1990 247    27     2     2     1.0   67.5   15561   46.3   21.2   1.2   4.7   6.1   4.7   3.4   0.9   0.6   1.8   0.0   0.0   0.1   0.9   1.6   1.1   0.9  1.26  1.07  1.22  0.00  0.00   13.47   21.40    0.03    0.00    0.52
 1990 248    28     2     2     1.0   67.8   15561   46.7   21.1   1.3   4.7   6.2   4.7   3.4   0.9   0.6   1.9   0.0   0.0   0.1   0.8   1.6   1.1   0.9  1.26  1.06  1.23  0.00  0.00   13.82   21.80    0.03    0.00    0.52
 1990 249    29     2     2     1.0   68.2   15560   47.1   21.1   1.4   4.7   6.2   4.8   3.4   0.9   0.6   1.9   0.0   0.0   0.1   0.8   1.5   1.1   0.9  1.26  1.04  1.25  0.00  0.00   14.19   22.22    0.04    0.00    0.52
 1990 250    30     2     2     1.0   68.6   15560   47.6   21.0   1.4   4.8   6.2   4.8   3.4   0.9   0.6   2.0   0.0   0.0   0.1   0.8   1.5   1.1   0.9  1.26  1.03  1.26  0.00  0.00   14.59   22.65    0.05    0.00    0.52
 1990 251    31     2     2     1.0   69.0   15559   48.0   21.0   0.8   4.1   6.5   5.1   3.5   0.9   0.6   2.0   0.0   0.0   0.1   0.8   1.5   1.1   0.9  1.26  1.02  1.27  0.00  0.00   15.01   23.09    0.05    0.00    0.52
 1990 252    32     2     2     1.5   68.8   15559   47.7   21.1   0.8   3.9   6.2   5.0   3.6   1.1   0.6   1.9   0.0   0.0   0.1   0.8   1.5   1.1   0.9  1.26  1.01  1.28  0.00  0.00   15.42   23.40    0.07    0.00    0.53
 1990 253    33     2     2     1.7   69.0   15559   47.9   21.2   0.8   3.8   6.1   5.0   3.7   1.1   0.7   1.9   0.0   0.0   0.1   0.9   1.6   1.1   0.9  1.26  1.00  1.29  0.00  0.00   15.85   23.76    0.09    0.00    0.53
 1990 254    34     2     2     1.8   69.4   15558   48.2   21.2   0.4   3.1   5.9   5.4   3.9   1.2   0.7   2.0   0.0   0.0   0.1   0.9   1.6   1.1   0.9  1.26  0.99  1.30  0.00  0.00   16.31   24.15    0.09    0.00    0.54
 1990 255    35     2     2     2.4   69.2   15558   47.8   21.4   0.4   3.0   5.6   5.3   3.9   1.3   0.7   1.9   0.0   0.0   0.1   0.9   1.6   1.1   0.9  1.26  0.98  1.31  0.00  0.00   16.79   24.48    0.14    0.00    0.54
 1990 256    36     2     2     2.7   69.3   15557   47.9   21.5   0.5   3.0   5.5   5.2   4.0   1.4   0.7   1.9   0.0   0.0   0.1   0.9   1.6   1.1   0.9  1.26  0.97  1.32  0.00  0.00   17.26   24.87    0.20    0.00    0.54
 1990 257    37     2     2     2.8   69.6   15557   48.1   21.5   0.5   3.0   5.5   5.2   4.0   1.5   0.8   1.9   0.0   0.0   0.1   0.9   1.7   1.1   0.9  1.26  0.96  1.33  0.00  0.00   17.72   25.27    0.23    0.00    0.55
 1990 258    38     2     2     2.9   70.0   15556   48.5   21.5   0.6   3.1   5.5   5.1   4.0   1.5   0.8   2.0   0.0   0.0   0.1   0.9   1.7   1.1   0.9  1.26  0.95  1.34  0.00  0.00   18.15   25.70    0.24    0.00    0.55
 1990 259    39     2     2     2.9   70.4   15556   48.9   21.5   0.6   3.1   5.5   5.2   4.0   1.5   0.8   2.0   0.0   0.0   0.1   0.9   1.7   1.1   0.9  1.26  0.94  1.35  0.00  0.00   18.55   26.12    0.25    0.00    0.56
 1990 260    40     2     2     2.9   70.8   15556   49.3   21.5   0.7   3.2   5.5   5.2   4.0   1.5   0.8   2.1   0.0   0.0   0.1   0.9   1.7   1.1   0.9  1.26  0.93  1.36  0.00  0.00   18.95   26.52    0.26    0.00    0.56
 1990 261    41     2     2     2.9   71.1   15555   49.7   21.4   0.3   2.4   5.3   5.5   4.4   1.6   0.8   2.1   0.0   0.0   0.1   0.9   1.7   1.1   0.9  1.26  0.92  1.37  0.00  0.00   19.36   26.99    0.26    0.00    0.56
 1990 262    42     2     2     3.8   70.7   15555   49.1   21.5   0.3   2.3   5.0   5.3   4.3   1.7   0.9   2.1   0.0   0.0   0.1   0.9   1.7   1.2   0.9  1.26  0.91  1.37  0.00  0.00   19.79   27.30    0.32    0.00    0.57
 1990 263    43     2     2     4.1   70.7   15554   49.1   21.6   0.3   2.3   4.9   5.2   4.3   1.8   0.9   2.1   0.0   0.0   0.1   0.9   1.7   1.2   0.9  1.26  0.90  1.38  0.00  0.00   20.24   27.66    0.35    0.00    0.57
 1990 264    44     2     2     4.3   71.0   15554   49.3   21.7   0.4   2.3   4.9   5.2   4.3   1.8   0.9   2.1   0.0   0.0   0.1   0.9   1.7   1.2   0.9  1.26  0.90  1.39  0.00  0.00   20.68   28.05    0.36    0.00    0.57
 1990 265    45     2     2     4.3   71.4   15553   49.7   21.7   0.4   2.4   4.8   5.1   4.3   1.9   0.9   2.1   0.0   0.0   0.1   0.9   1.8   1.2   0.9  1.26  0.89  1.40  0.00  0.00   21.12   28.49    0.37    0.00    0.58
 1990 266    46     2     2     4.3   71.8   15553   50.2   21.7   0.5   2.4   4.9   5.2   4.3   1.9   0.9   2.2   0.0   0.0   0.1   0.9   1.8   1.2   0.9  1.26  0.88  1.40  0.00  0.00   21.56   28.94    0.38    0.00    0.58
 1990 267    47     2     2     4.3   72.2   15553   50.6   21.6   0.5   2.5   4.9   5.2   4.4   1.9   1.0   2.3   0.0   0.0   0.1   0.9   1.8   1.2   0.9  1.26  0.87  1.41  0.00  0.00   21.99   29.37    0.39    0.00    0.59
 1990 268    48     2     2     4.3   72.6   15552   51.0   21.6   0.6   2.5   4.9   5.2   4.4   1.9   1.0   2.3   0.0   0.0   0.1   0.8   1.8   1.2   1.0  1.26  0.86  1.41  0.00  0.00   22.41   29.79    0.39    0.00    0.59
 1990 269    49     2     2     4.3   73.0   15552   51.5   21.6   0.6   2.6   5.0   5.2   4.4   1.9   1.0   2.4   0.0   0.0   0.1   0.8   1.8   1.2   1.0  1.26  0.85  1.42  0.00  0.00   22.82   30.28    0.40    0.00    0.59
 1990 270    50     2     2     4.3   73.4   15551   51.9   21.5   0.7   2.6   5.0   5.2   4.4   1.9   1.0   2.4   0.0   0.0   0.1   0.8   1.8   1.2   1.0  1.26  0.85  1.43  0.00  0.00   23.23   30.76    0.41    0.00    0.60
 1990 271    51     2     2     4.3   73.9   15551   52.4   21.4   0.7   2.7   5.1   5.2   4.4   1.9   1.0   2.5   0.0   0.0   0.1   0.8   1.7   1.2   1.0  1.26  0.84  1.43  0.00  0.00   23.65   31.24    0.41    0.00    0.60
 1990 272    52     2     2     4.3   74.3   15550   52.9   21.4   0.8   2.7   5.1   5.3   4.4   1.9   1.0   2.5   0.0   0.0   0.1   0.8   1.7   1.2   1.0  1.26  0.83  1.44  0.00  0.00   24.09   31.75    0.42    0.00    0.60
 1990 273    53     2     2     4.3   74.7   15550   53.5   21.3   0.8   2.8   5.2   5.3   4.5   1.9   1.0   2.6   0.0   0.0   0.1   0.8   1.7   1.2   1.0  1.26  0.82  1.44  0.00  0.00   24.55   32.28    0.43    0.00    0.61
 1990 274    54     2     2     4.3   75.2   15549   54.0   21.2   0.9   2.9   5.3   5.3   4.5   1.9   1.0   2.6   0.0   0.0   0.1   0.8   1.7   1.2   1.0  1.26  0.81  1.45  0.00  0.00   25.04   32.83    0.43    0.00    0.61
 1990 275    55     2     2     4.3   75.7   15549   54.6   21.1   0.9   2.9   5.3   5.3   4.5   1.9   1.1   2.7   0.0   0.0   0.1   0.7   1.7   1.2   1.0  1.27  0.80  1.45  0.00  0.00   25.54   33.40    0.44    0.00    0.61
 1990 276    56     2     2     4.3   76.2   15548   55.1   21.1   1.0   3.0   5.4   5.3   4.5   2.0   1.1   2.8   0.0   0.0   0.1   0.7   1.6   1.2   1.0  1.27  0.80  1.45  0.00  0.00   26.04   33.98    0.44    0.00    0.61
 1990 277    57     2     2     4.3   76.7   15548   55.7   21.0   1.0   3.1   5.5   5.4   4.5   2.0   1.1   2.8   0.0   0.0   0.1   0.7   1.6   1.2   1.0  1.27  0.79  1.46  0.00  0.00   26.56   34.57    0.45    0.00    0.62
 1990 278    58     2     2     4.3   77.2   15547   56.3   20.9   1.1   3.1   5.6   5.4   4.6   2.0   1.1   2.9   0.0   0.0   0.1   0.7   1.6   1.2   1.0  1.27  0.78  1.46  0.00  0.00   27.10   35.19    0.46    0.00    0.62
 1990 279    59     2     2     4.4   77.7   15547   57.0   20.8   0.6   3.1   5.7   5.5   4.6   2.0   1.1   2.9   0.0   0.0   0.1   0.7   1.6   1.2   1.0  1.27  0.77  1.47  0.00  0.00   27.63   35.87    0.46    0.00    0.62
 1990 280    60     2     2     4.4   78.2   15546   57.3   20.9   0.5   3.0   5.7   5.6   4.7   2.0   1.1   3.0   0.0   0.0   0.1   0.7   1.6   1.2   1.0  1.27  0.77  1.47  0.00  0.00   28.18   36.27    0.47    0.00    0.62
 1990 281    61     2     2     4.7   78.5   15546   57.4   21.1   0.2   2.0   4.9   5.6   5.1   2.4   1.2   3.0   0.0   0.0   0.2   0.8   1.6   1.2   1.0  1.27  0.76  1.47  0.00  0.00   28.71   36.66    0.48    0.00    0.62
 1990 282    62     2     2     6.4   77.2   15545   56.0   21.3   0.3   1.9   4.6   5.4   4.9   2.5   1.3   2.8   0.0   0.0   0.2   0.8   1.6   1.2   1.0  1.27  0.75  1.48  0.00  0.00   29.23   36.97    0.54    0.00    0.62
 1990 283    63     2     2     7.2   76.9   15545   55.5   21.3   0.3   1.9   4.5   5.3   4.8   2.5   1.3   2.8   0.0   0.0   0.2   0.8   1.7   1.2   1.0  1.27  0.75  1.49  0.00  0.00   29.73   37.37    0.56    0.00    0.63
 1990 284    64     2     2     7.6   76.9   15544   55.5   21.4   0.4   1.9   4.4   5.2   4.8   2.5   1.3   2.8   0.0   0.0   0.1   0.9   1.7   1.3   1.0  1.27  0.74  1.49  0.00  0.00   30.21   37.80    0.60    0.00    0.63
 1990 285    65     2     2     7.7   77.3   15544   55.9   21.4   0.2   1.5   4.0   5.3   5.2   2.7   1.4   2.8   0.0   0.0   0.1   0.8   1.7   1.3   1.0  1.27  0.73  1.49  0.00  0.00   30.70   38.29    0.62    0.00    0.64
 1990 286    66     2     2     9.0   76.3   15543   54.8   21.5   0.2   1.4   3.7   5.0   5.0   2.8   1.4   2.8   0.0   0.0   0.1   0.9   1.7   1.3   1.0  1.27  0.73  1.50  0.00  0.00   31.19   38.63    0.74    0.00    0.65
 1990 287    67     2     2     9.6   76.1   15543   54.5   21.6   0.3   1.4   3.6   4.9   4.9   2.8   1.5   2.7   0.0   0.0   0.1   0.9   1.8   1.3   1.0  1.27  0.72  1.50  0.00  0.00   31.68   39.02    0.80    0.00    0.65
 1990 288    68     2     2     9.8   76.4   15542   54.7   21.7   0.3   1.4   3.6   4.8   4.8   2.9   1.5   2.8   0.0   0.0   0.1   0.9   1.8   1.3   1.0  1.27  0.71  1.50  0.00  0.00   32.17   39.45    0.83    0.00    0.65
 1990 289    69     2     2     9.9   76.7   15542   55.1   21.7   0.4   1.5   3.6   4.8   4.8   2.9   1.5   2.8   0.0   0.0   0.1   0.9   1.8   1.3   1.0  1.27  0.71  1.51  0.00  0.00   32.65   39.94    0.85    0.00    0.66
 1990 290    70     2     2     9.9   77.2   15541   55.5   21.6   0.4   1.6   3.7   4.8   4.8   2.9   1.5   2.9   0.0   0.0   0.1   0.9   1.8   1.3   1.0  1.27  0.70  1.51  0.00  0.00   33.13   40.43    0.85    0.00    0.66
 1990 291    71     2     2     9.9   77.7   15541   56.0   21.6   0.5   1.7   3.7   4.9   4.9   2.9   1.5   3.0   0.0   0.0   0.1   0.8   1.8   1.3   1.0  1.27  0.69  1.51  0.00  0.00   33.60   40.91    0.86    0.00    0.67
 1990 292    72     2     2     9.9   78.1   15540   56.6   21.5   0.5   1.8   3.8   4.9   4.9   2.9   1.5   3.0   0.0   0.0   0.1   0.8   1.8   1.3   1.0  1.27  0.69  1.51  0.00  0.00   34.09   41.49    0.87    0.00    0.67
 1990 293    73     2     2     9.9   78.6   15540   57.2   21.5   0.5   1.8   3.8   4.9   4.9   2.9   1.5   3.1   0.0   0.0   0.1   0.8   1.8   1.3   1.1  1.27  0.68  1.51  0.00  0.00   34.59   42.07    0.88    0.00    0.67
 1990 294    74     2     2     9.9   79.1   15539   57.7   21.4   0.6   1.9   3.9   4.9   4.9   2.9   1.5   3.1   0.0   0.0   0.1   0.8   1.8   1.3   1.1  1.28  0.68  1.51  0.00  0.00   35.10   42.65    0.88    0.00    0.68
 1990 295    75     2     2     9.9   79.6   15539   58.3   21.3   0.6   2.0   4.0   4.9   4.9   2.9   1.5   3.2   0.0   0.0   0.1   0.8   1.7   1.3   1.1  1.28  0.67  1.51  0.00  0.00   35.62   43.25    0.89    0.00    0.68
 1990 296    76     2     2     9.9   80.2   15538   58.9   21.2   0.7   2.1   4.1   5.0   5.0   2.9   1.6   3.3   0.0   0.0   0.1   0.7   1.7   1.3   1.1  1.28  0.66  1.52  0.00  0.00   36.15   43.87    0.90    0.00    0.68
 1990 297    77     2     2     9.9   80.7   15538   59.6   21.1   0.8   2.2   4.2   5.0   5.0   3.0   1.6   3.3   0.0   0.0   0.1   0.7   1.7   1.3   1.1  1.28  0.66  1.52  0.00  0.00   36.69   44.49    0.91    0.00    0.69
 1990 298    78     2     2     9.9   81.2   15537   60.1   21.0   0.8   2.2   4.2   5.0   5.0   3.0   1.6   3.4   0.0   0.0   0.1   0.7   1.7   1.3   1.1  1.28  0.65  1.52  0.00  0.00   37.21   45.09    0.91    0.00    0.69
 1990 299    79     2     2     9.9   81.7   15537   60.7   21.0   0.9   2.3   4.3   5.0   5.0   3.0   1.6   3.5   0.0   0.0   0.1   0.7   1.6   1.3   1.1  1.28  0.65  1.52  0.00  0.00   37.74   45.69    0.92    0.00    0.70
 1990 300    80     2     2     9.9   82.2   15536   61.3   20.9   1.0   2.4   4.4   5.1   5.1   3.0   1.6   3.5   0.0   0.0   0.1   0.7   1.6   1.3   1.1  1.28  0.64  1.52  0.00  0.00   38.27   46.29    0.93    0.00    0.70
 1990 301    81     2     2     9.9   82.8   15536   61.9   20.8   1.1   2.4   4.4   5.1   5.1   3.0   1.6   3.6   0.0   0.0   0.1   0.7   1.6   1.3   1.1  1.28  0.64  1.52  0.00  0.00   38.81   46.91    0.94    0.00    0.70
 1990 302    82     2     2     9.9   83.3   15535   62.5   20.7   1.1   2.5   4.5   5.1   5.1   3.0   1.6   3.6   0.0   0.0   0.1   0.7   1.6   1.3   1.1  1.28  0.63  1.52  0.00  0.00   39.35   47.51    0.94    0.00    0.71
 1990 303    83     2     2    10.0   83.8   15535   63.1   20.7   0.6   2.4   4.7   5.2   5.2   3.0   1.6   3.7   0.0   0.0   0.1   0.7   1.5   1.3   1.1  1.28  0.62  1.52  0.00  0.00   39.91   48.12    0.95    0.00    0.71
 1990 304    84     2     2    10.7   83.6   15534   62.7   20.8   0.7   2.3   4.5   5.2   5.1   3.1   1.7   3.7   0.0   0.0   0.1   0.7   1.6   1.4   1.1  1.28  0.62  1.53  0.00  0.00   40.48   48.55    0.98    0.00    0.71
 1990 305    85     2     2    10.8   84.0   15533   63.1   20.9   0.8   2.3   4.5   5.2   5.2   3.1   1.7   3.7   0.0   0.0   0.1   0.7   1.6   1.4   1.1  1.28  0.61  1.53  0.00  0.00   41.04   49.01    0.99    0.00    0.72
 1990 306    86     2     2    11.1   84.3   15533   63.4   20.9   0.8   2.4   4.5   5.1   5.2   3.1   1.7   3.7   0.0   0.0   0.1   0.7   1.6   1.4   1.1  1.28  0.61  1.53  0.00  0.00   41.58   49.54    1.01    0.00    0.72
 1990 307    87     2     2    11.1   84.8   15532   63.8   20.9   0.9   2.5   4.5   5.1   5.2   3.1   1.7   3.8   0.0   0.0   0.1   0.7   1.7   1.4   1.1  1.28  0.60  1.53  0.00  0.00   42.14   50.08    1.02    0.00    0.73
 1990 308    88     2     2    11.3   85.2   15532   64.2   21.0   0.4   1.9   4.2   5.3   5.5   3.3   1.8   3.9   0.0   0.0   0.1   0.7   1.7   1.4   1.1  1.28  0.60  1.53  0.00  0.00   42.69   50.62    1.03    0.00    0.73
 1990 309    89     2     2    12.9   84.0   15531   62.9   21.1   0.4   1.9   4.0   5.1   5.3   3.3   1.8   3.7   0.0   0.0   0.1   0.7   1.7   1.4   1.1  1.28  0.59  1.53  0.00  0.00   43.24   50.98    1.16    0.00    0.73
 1990 310    90     2     2    13.6   83.8   15531   62.5   21.2   0.5   1.9   3.9   4.9   5.2   3.4   1.8   3.7   0.0   0.0   0.1   0.8   1.7   1.4   1.1  1.28  0.59  1.53  0.00  0.00   43.77   51.40    1.22    0.00    0.74
 1990 311    91     2     2    13.6   84.2   15530   62.9   21.3   0.5   1.9   3.9   4.9   5.2   3.4   1.8   3.8   0.0   0.0   0.1   0.8   1.8   1.4   1.1  1.28  0.58  1.54  0.00  0.00   44.28   51.89    1.26    0.00    0.74
 1990 312    92     2     2    13.9   84.4   15530   63.1   21.3   0.6   2.0   3.9   4.9   5.1   3.4   1.9   3.8   0.0   0.0   0.1   0.7   1.8   1.4   1.1  1.28  0.58  1.54  0.00  0.00   44.78   52.37    1.28    0.00    0.74
 1990 313    93     2     2    13.9   84.8   15529   63.5   21.3   0.6   2.1   3.9   4.9   5.1   3.4   1.9   3.8   0.0   0.0   0.1   0.7   1.8   1.4   1.1  1.28  0.58  1.54  0.00  0.00   45.25   52.84    1.29    0.00    0.75
 1990 314    94     2     2    13.9   85.2   15529   64.0   21.3   0.7   2.1   3.9   4.9   5.2   3.4   1.9   3.9   0.0   0.0   0.1   0.7   1.8   1.4   1.1  1.28  0.57  1.54  0.00  0.00   45.72   53.30    1.30    0.00    0.75
 1990 315    95     2     2    13.9   85.7   15528   64.5   21.2   0.7   2.2   4.0   4.9   5.2   3.4   1.9   4.0   0.0   0.0   0.1   0.7   1.8   1.4   1.1  1.28  0.57  1.54  0.00  0.00   46.20   53.85    1.31    0.00    0.75
 1990 316    96     2     2    13.9   86.2   15528   65.1   21.1   0.8   2.3   4.1   5.0   5.2   3.4   1.9   4.0   0.0   0.0   0.1   0.7   1.8   1.4   1.1  1.28  0.56  1.54  0.00  0.00   46.70   54.43    1.32    0.00    0.76
 1990 317    97     2     2    13.9   86.7   15527   65.6   21.0   0.8   2.3   4.2   5.0   5.2   3.5   1.9   4.1   0.0   0.0   0.1   0.7   1.7   1.4   1.1  1.28  0.56  1.54  0.00  0.00   47.19   55.00    1.33    0.00    0.76
 1990 318    98     2     2    13.9   87.2   15527   66.3   21.0   0.9   2.4   4.2   5.0   5.3   3.5   1.9   4.1   0.0   0.0   0.1   0.7   1.7   1.4   1.1  1.28  0.55  1.54  0.00  0.00   47.74   55.63    1.33    0.00    0.76
 1990 319    99     2     2    13.9   87.8   15526   66.9   20.9   1.0   2.5   4.3   5.0   5.3   3.5   1.9   4.2   0.0   0.0   0.1   0.7   1.7   1.4   1.1  1.28  0.55  1.54  0.00  0.00   48.32   56.31    1.34    0.00    0.77
 1990 320   100     2     2    14.1   88.2   15526   67.5   20.8   0.4   2.0   4.3   5.3   5.5   3.6   2.0   4.3   0.0   0.0   0.1   0.6   1.6   1.4   1.1  1.28  0.55  1.54  0.00  0.00   48.90   56.98    1.35    0.00    0.77
 1990 321   101     2     2    15.7   87.1   15525   66.2   21.0   0.4   1.9   4.1   5.0   5.3   3.6   2.0   4.1   0.0   0.0   0.1   0.7   1.7   1.4   1.1  1.28  0.54  1.54  0.00  0.00   49.48   57.36    1.42    0.00    0.77
 1990 322   102     2     2    16.4   86.9   15524   65.9   21.1   0.5   1.9   4.0   4.9   5.2   3.6   2.0   4.1   0.0   0.0   0.1   0.7   1.7   1.4   1.1  1.28  0.54  1.54  0.00  0.00   50.06   57.82    1.46    0.00    0.78
 1990 323   103     2     2    16.7   87.2   15524   66.1   21.2   0.6   2.0   4.0   4.9   5.2   3.6   2.0   4.1   0.0   0.0   0.1   0.8   1.7   1.4   1.1  1.28  0.53  1.54  0.00  0.00   50.62   58.30    1.48    0.00    0.78
 1990 324   104     2     2    16.8   87.7   15523   66.5   21.2   0.6   2.1   4.0   4.9   5.2   3.7   2.1   4.2   0.0   0.0   0.1   0.7   1.8   1.4   1.1  1.28  0.53  1.54  0.00  0.00   51.19   58.87    1.49    0.00    0.78
 1990 325   105     2     2    16.8   88.2   15523   67.1   21.1   0.7   2.2   4.0   4.9   5.3   3.7   2.1   4.3   0.0   0.0   0.1   0.7   1.8   1.4   1.1  1.28  0.53  1.54  0.00  0.00   51.76   59.45    1.50    0.00    0.79
 1990 326   106     2     2    16.8   88.8   15522   67.7   21.1   0.8   2.3   4.1   4.9   5.3   3.7   2.1   4.3   0.0   0.0   0.1   0.7   1.8   1.4   1.1  1.28  0.52  1.55  0.00  0.00   52.37   60.06    1.51    0.00    0.79
 1990 327   107     2     2    16.8   89.4   15522   68.4   21.0   0.9   2.4   4.2   5.0   5.3   3.7   2.1   4.4   0.0   0.0   0.1   0.7   1.8   1.4   1.1  1.28  0.52  1.55  0.00  0.00   52.98   60.80    1.52    0.00    0.79
 1990 328   108     2     2    16.8   90.0   15521   69.1   20.9   0.9   2.5   4.3   5.0   5.3   3.7   2.1   4.4   0.0   0.0   0.1   0.6   1.7   1.4   1.1  1.28  0.51  1.55  0.00  0.00   53.59   61.52    1.53    0.00    0.80
 1990 329   109     2     2    16.8   90.6   15520   69.8   20.8   1.0   2.5   4.4   5.0   5.4   3.7   2.1   4.5   0.0   0.0   0.1   0.6   1.7   1.4   1.1  1.28  0.51  1.55  0.00  0.00   54.18   62.21    1.54    0.00    0.80
 1990 330   110     2     2    16.9   91.1   15520   70.4   20.7   0.6   2.5   4.5   5.1   5.4   3.7   2.1   4.6   0.0   0.0   0.1   0.6   1.6   1.4   1.1  1.28  0.51  1.55  0.00  0.00   54.77   62.90    1.55    0.00    0.80
 1990 331   111     2     2    17.6   91.0   15519   70.1   20.8   0.7   2.4   4.4   5.1   5.4   3.8   2.1   4.5   0.0   0.0   0.1   0.7   1.7   1.5   1.1  1.28  0.50  1.55  0.00  0.00   55.37   63.35    1.58    0.00    0.81
 1990 332   112     2     2    17.8   91.2   15519   70.3   20.9   0.7   2.4   4.4   5.1   5.4   3.8   2.1   4.6   0.0   0.0   0.1   0.7   1.7   1.5   1.1  1.28  0.50  1.55  0.00  0.00   55.93   63.83    1.59    0.00    0.81
 1990 333   113     2     2    17.9   91.7   15518   70.8   20.9   0.8   2.5   4.4   5.1   5.4   3.8   2.2   4.6   0.0   0.0   0.1   0.7   1.7   1.5   1.1  1.28  0.50  1.55  0.00  0.00   56.48   64.37    1.60    0.00    0.81
 1990 334   114     2     2    17.9   92.3   15517   71.3   20.9   0.8   2.6   4.5   5.1   5.4   3.8   2.2   4.7   0.0   0.0   0.1   0.7   1.7   1.5   1.1  1.28  0.49  1.55  0.00  0.00   57.03   64.90    1.61    0.00    0.82
 1990 335   115     2     2    17.9   92.8   15517   71.8   20.9   0.9   2.7   4.5   5.1   5.5   3.8   2.2   4.7   0.0   0.0   0.1   0.7   1.8   1.5   1.1  1.28  0.49  1.55  0.00  0.00   57.56   65.42    1.62    0.00    0.82
 1990 336   116     2     2    17.9   93.3   15516   72.4   20.8   0.9   2.8   4.6   5.2   5.5   3.8   2.2   4.8   0.0   0.0   0.1   0.7   1.7   1.5   1.1  1.28  0.49  1.55  0.00  0.00   58.09   66.04    1.63    0.00    0.82
 1990 337   117     2     2    17.9   93.8   15516   73.1   20.8   0.9   2.9   4.7   5.2   5.5   3.9   2.2   4.9   0.0   0.0   0.1   0.7   1.7   1.5   1.1  1.28  0.48  1.55  0.00  0.00   58.63   66.65    1.64    0.00    0.82
 1990 338   118     2     2    17.9   94.4   15515   73.6   20.7   1.0   2.9   4.7   5.2   5.5   3.9   2.2   4.9   0.0   0.0   0.1   0.6   1.7   1.5   1.1  1.28  0.48  1.55  0.00  0.00   59.18   67.26    1.65    0.00    0.83
 1990 339   119     2     2    17.9   94.9   15515   74.2   20.6   1.1   3.0   4.8   5.2   5.6   3.9   2.2   5.0   0.0   0.0   0.1   0.6   1.6   1.5   1.1  1.28  0.48  1.55  0.00  0.00   59.73   67.87    1.66    0.00    0.83
 1990 340   120     2     2    18.0   95.3   15514   74.7   20.6   0.5   2.3   4.7   5.5   5.8   4.0   2.2   5.1   0.0   0.0   0.1   0.6   1.6   1.5   1.1  1.28  0.47  1.55  0.00  0.00   60.29   68.50    1.67    0.00    0.83
 1990 341   121     2     2    18.7   95.1   15514   74.4   20.8   0.3   1.6   3.9   5.3   5.7   4.4   2.4   5.2   0.0   0.0   0.1   0.7   1.7   1.5   1.1  1.28  0.47  1.55  0.00  0.00   60.86   68.88    1.76    0.00    0.84
 1990 342   122     2     2    22.4   91.8   15513   70.8   21.0   0.3   1.6   3.7   4.9   5.4   4.2   2.4   4.8   0.0   0.0   0.1   0.7   1.7   1.5   1.1  1.29  0.47  1.56  0.00  0.00   61.42   69.20    1.94    0.00    0.84
 1990 343   123     2     2    24.1   90.5   15512   69.4   21.1   0.4   1.6   3.6   4.7   5.2   4.2   2.4   4.6   0.0   0.0   0.1   0.8   1.7   1.5   1.1  1.29  0.47  1.56  0.00  0.00   62.00   69.64    2.02    0.00    0.85
 1990 344   124     2     2    24.5   90.6   15512   69.5   21.2   0.2   1.2   3.2   4.6   5.4   4.3   2.5   4.7   0.0   0.0   0.1   0.7   1.8   1.5   1.1  1.29  0.46  1.56  0.00  0.00   62.55   70.16    2.06    0.00    0.85
 1990 345   125     2     2    27.3   88.3   15511   66.9   21.4   0.2   1.2   3.0   4.3   5.1   4.2   2.5   4.5   0.0   0.0   0.1   0.8   1.8   1.5   1.2  1.29  0.46  1.57  0.00  0.00   63.08   70.47    2.21    0.00    0.86
 1990 346   126     2     2    28.6   87.4   15511   65.9   21.5   0.3   1.2   2.9   4.2   4.9   4.2   2.5   4.5   0.0   0.0   0.1   0.8   1.8   1.5   1.2  1.29  0.46  1.57  0.00  0.00   63.59   70.88    2.28    0.00    0.86
 1990 347   127     2     2    29.1   87.3   15510   65.8   21.5   0.3   1.2   2.9   4.2   4.9   4.2   2.5   4.5   0.0   0.0   0.1   0.9   1.8   1.5   1.2  1.29  0.46  1.57  0.00  0.00   64.09   71.31    2.31    0.00    0.86
 1990 348   128     2     2    29.3   87.6   15510   66.1   21.5   0.4   1.3   2.9   4.2   4.9   4.2   2.5   4.6   0.0   0.0   0.1   0.8   1.8   1.5   1.2  1.29  0.45  1.57  0.00  0.00   64.57   71.81    2.33    0.00    0.87
 1990 349   129     2     2    29.3   88.1   15509   66.6   21.5   0.4   1.4   3.0   4.2   4.9   4.2   2.5   4.6   0.0   0.0   0.1   0.8   1.9   1.5   1.2  1.29  0.45  1.57  0.00  0.00   65.06   72.32    2.34    0.00    0.87
 1990 350   130     2     2    29.3   88.6   15509   67.1   21.5   0.5   1.5   3.0   4.2   4.9   4.2   2.6   4.7   0.0   0.0   0.1   0.8   1.9   1.5   1.2  1.29  0.45  1.57  0.00  0.00   65.58   72.85    2.34    0.00    0.88
 1990 351   131     2     2    29.3   89.1   15508   67.7   21.4   0.5   1.5   3.1   4.2   4.9   4.2   2.6   4.7   0.0   0.0   0.1   0.8   1.8   1.5   1.2  1.29  0.44  1.57  0.00  0.00   66.11   73.49    2.35    0.00    0.88
 1990 352   132     2     2    29.5   89.5   15508   68.3   21.2   0.2   1.3   3.0   4.3   5.1   4.3   2.6   4.8   0.0   0.0   0.1   0.7   1.8   1.5   1.2  1.29  0.44  1.57  0.00  0.00   66.67   74.17    2.36    0.00    0.88
 1990 353   133     2     2    31.5   88.0   15507   66.5   21.4   0.2   1.2   2.8   4.1   4.9   4.2   2.6   4.7   0.0   0.0   0.1   0.8   1.8   1.5   1.2  1.30  0.44  1.57  0.00  0.00   67.25   74.54    2.44    0.00    0.89
 1990 354   134     2     2    32.4   87.6   15507   66.1   21.5   0.3   1.2   2.8   4.0   4.8   4.2   2.6   4.7   0.0   0.0   0.1   0.8   1.9   1.5   1.2  1.30  0.44  1.57  0.00  0.00   67.84   75.03    2.48    0.00    0.89
 1990 355   135     2     2    32.7   87.9   15506   66.3   21.6   0.4   1.3   2.8   4.0   4.7   4.2   2.6   4.8   0.0   0.0   0.1   0.9   1.9   1.6   1.2  1.30  0.43  1.57  0.00  0.00   68.43   75.55    2.50    0.00    0.89
 1990 356   136     2     2    32.9   88.3   15505   66.7   21.6   0.2   1.1   2.7   4.0   4.9   4.3   2.7   4.9   0.0   0.0   0.1   0.8   1.9   1.6   1.2  1.30  0.43  1.57  0.00  0.00   69.01   76.16    2.51    0.00    0.90
 1990 357   137     2     2    34.7   86.9   15505   65.2   21.8   0.2   1.1   2.5   3.8   4.6   4.2   2.7   4.8   0.0   0.0   0.1   0.9   1.9   1.6   1.2  1.30  0.43  1.57  0.00  0.00   69.60   76.55    2.61    0.00    0.90
 1990 358   138     2     2    34.8   87.3   15504   65.5   21.8   0.2   1.1   2.5   3.8   4.7   4.3   2.7   4.9   0.0   0.0   0.1   0.9   2.0   1.6   1.2  1.30  0.43  1.57  0.00  0.00   70.18   77.05    2.66    0.00    0.90
 1990 359   139     2     2    36.4   86.3   15504   64.3   22.0   0.3   1.1   2.4   3.6   4.5   4.2   2.7   4.8   0.0   0.0   0.1   0.9   2.0   1.6   1.2  1.30  0.42  1.57  0.00  0.00   70.77   77.50    2.74    0.00    0.91
 1990 360   140     2     2    37.0   86.2   15503   64.2   22.0   0.4   1.1   2.4   3.6   4.4   4.2   2.7   4.8   0.0   0.0   0.1   1.0   2.0   1.6   1.2  1.30  0.42  1.57  0.00  0.00   71.34   77.99    2.77    0.00    0.91
 1990 361   141     2     2    37.2   86.5   15503   64.5   22.0   0.4   1.2   2.4   3.6   4.4   4.2   2.7   4.9   0.0   0.0   0.1   0.9   2.0   1.6   1.2  1.30  0.42  1.57  0.00  0.00   71.91   78.61    2.79    0.00    0.92
 1990 362   142     2     2    37.2   87.0   15502   65.1   21.9   0.5   1.3   2.4   3.6   4.5   4.2   2.7   4.9   0.0   0.0   0.1   0.9   2.1   1.6   1.2  1.30  0.42  1.57  0.00  0.00   72.49   79.26    2.81    0.00    0.92
 1990 363   143     2     2    37.2   87.6   15501   65.7   21.9   0.6   1.4   2.5   3.6   4.5   4.2   2.7   5.0   0.0   0.0   0.1   0.8   2.1   1.6   1.2  1.30  0.42  1.57  0.00  0.00   73.06   79.87    2.82    0.00    0.93
 1990 364   144     2     2    37.2   88.2   15501   66.3   21.8   0.6   1.6   2.5   3.7   4.5   4.2   2.7   5.1   0.0   0.0   0.1   0.8   2.1   1.6   1.2  1.30  0.41  1.56  0.00  0.00   73.63   80.47    2.83    0.00    0.93
 1990 365   145     2     2    37.2   88.7   15500   67.0   21.7   0.7   1.7   2.6   3.7   4.5   4.3   2.7   5.1   0.0   0.0   0.1   0.8   2.0   1.6   1.2  1.30  0.41  1.56  0.00  0.00   74.20   81.21    2.84    0.00    0.93
 1991 001   146     2     2    37.2   89.3   15500   67.7   21.5   0.7   1.8   2.8   3.7   4.6   4.3   2.7   5.2   0.0   0.0   0.1   0.7   2.0   1.6   1.2  1.30  0.41  1.56  0.00  0.00   74.76   81.92    2.85    0.00    0.93
 1991 002   147     2     2    37.2   89.8   15499   68.4   21.4   0.8   1.8   2.9   3.8   4.6   4.3   2.8   5.3   0.0   0.0   0.1   0.7   1.9   1.6   1.2  1.30  0.41  1.56  0.00  0.00   75.32   82.62    2.86    0.00    0.94
 1991 003   148     2     2    37.2   90.4   15499   69.1   21.2   0.8   1.9   3.0   3.8   4.6   4.3   2.8   5.3   0.0   0.0   0.1   0.7   1.9   1.6   1.2  1.30  0.40  1.56  0.00  0.00   75.90   83.34    2.87    0.00    0.94
 1991 004   149     2     2    37.2   91.0   15498   69.9   21.1   0.9   2.0   3.1   3.8   4.6   4.3   2.8   5.4   0.0   0.0   0.1   0.7   1.8   1.6   1.2  1.30  0.40  1.56  0.00  0.00   76.50   84.08    2.89    0.00    0.94
 1991 005   150     2     2    37.2   91.5   15497   70.6   20.9   0.9   2.1   3.2   3.9   4.7   4.3   2.8   5.4   0.0   0.0   0.1   0.6   1.8   1.6   1.2  1.30  0.40  1.56  0.00  0.00   77.10   84.83    2.90    0.00    0.94
 1991 006   151     2     2    37.2   92.1   15497   71.3   20.8   1.0   2.2   3.3   3.9   4.7   4.3   2.8   5.5   0.0   0.0   0.0   0.6   1.7   1.6   1.2  1.30  0.40  1.56  0.00  0.00   77.70   85.55    2.91    0.00    0.94
 1991 007   152     2     2    37.2   92.7   15496   72.0   20.7   1.1   2.3   3.4   3.9   4.7   4.3   2.8   5.6   0.0   0.0   0.0   0.6   1.7   1.6   1.2  1.30  0.40  1.56  0.00  0.00   78.29   86.26    2.92    0.00    0.95
 1991 008   153     2     2    37.2   93.3   15496   72.7   20.6   1.1   2.4   3.5   4.0   4.8   4.3   2.8   5.6   0.0   0.0   0.0   0.6   1.7   1.6   1.2  1.30  0.39  1.56  0.00  0.00   78.89   86.98    2.93    0.00    0.95
 1991 009   154     2     2    37.2   93.9   15495   73.4   20.4   1.2   2.5   3.6   4.0   4.8   4.3   2.8   5.7   0.0   0.0   0.0   0.6   1.6   1.6   1.2  1.30  0.39  1.56  0.00  0.00   79.50   87.72    2.94    0.00    0.95
 1991 010   155     2     2    37.2   94.5   15494   74.1   20.3   1.2   2.6   3.7   4.0   4.8   4.4   2.8   5.8   0.0   0.0   0.0   0.6   1.6   1.6   1.2  1.30  0.39  1.56  0.00  0.00   80.10   88.43    2.95    0.00    0.95
 1991 011   156     2     2    37.2   95.1   15494   74.8   20.3   1.3   2.7   3.8   4.1   4.9   4.4   2.8   5.8   0.0   0.0   0.1   0.5   1.5   1.6   1.2  1.30  0.39  1.56  0.00  0.00   80.73   89.14    2.96    0.00    0.95
 1991 012   157     2     2    37.2   95.7   15493   75.7   20.1   1.4   2.8   3.9   4.2   4.9   4.4   2.8   5.9   0.0   0.0   0.1   0.5   1.5   1.5   1.1  1.30  0.39  1.56  0.00  0.00   81.35   89.96    2.97    0.00    0.95
 1991 013   158     2     2    37.2   96.3   15493   76.4   19.9   1.5   2.8   4.0   4.2   4.9   4.4   2.8   5.9   0.0   0.0   0.1   0.5   1.5   1.4   1.1  1.30  0.38  1.56  0.00  0.00   81.96   90.75    2.98    0.00    0.96
 1991 014   159     2     2    37.2   96.9   15492   77.2   19.7   1.6   2.9   4.1   4.3   4.9   4.4   2.8   6.0   0.0   0.0   0.1   0.5   1.5   1.4   1.1  1.30  0.38  1.56  0.00  0.00   82.53   91.48    2.99    0.00    0.96
 1991 015   160     2     2    37.2   97.4   15491   77.9   19.6   1.6   3.0   4.2   4.4   5.0   4.4   2.8   6.1   0.0   0.0   0.1   0.5   1.4   1.3   1.1  1.30  0.38  1.56  0.00  0.00   83.11   92.21    3.00    0.00    0.96
 1991 016   161     2     2    37.2   98.0   15491   78.6   19.4   1.7   3.0   4.3   4.5   5.0   4.4   2.8   6.1   0.0   0.0   0.1   0.5   1.4   1.3   1.1  1.30  0.38  1.56  0.00  0.00   83.70   92.94    3.01    0.00    0.96
 1991 017   162     2     2    37.2   98.6   15490   79.3   19.3   1.8   3.1   4.3   4.5   5.0   4.4   2.8   6.2   0.0   0.0   0.1   0.5   1.4   1.3   1.1  1.30  0.38  1.56  0.00  0.00   84.26   93.64    3.02    0.00    0.97
 1991 018   163     2     2    37.2   99.1   15490   80.0   19.1   1.9   3.2   4.4   4.6   5.1   4.4   2.8   6.3   0.0   0.0   0.1   0.5   1.4   1.2   1.1  1.30  0.38  1.56  0.00  0.00   84.82   94.32    3.03    0.00    0.97
 1991 019   164     2     2    37.2   99.7   15489   80.6   19.0   2.0   3.2   4.5   4.7   5.1   4.5   2.9   6.3   0.0   0.0   0.1   0.5   1.4   1.2   1.1  1.30  0.37  1.56  0.00  0.00   85.39   95.00    3.04    0.00    0.97
 1991 020   165     2     2    37.2  100.2   15489   81.3   18.9   2.0   3.3   4.6   4.7   5.1   4.5   2.9   6.4   0.0   0.0   0.1   0.5   1.4   1.2   1.1  1.30  0.37  1.56  0.00  0.00   85.95   95.68    3.04    0.00    0.97
 1991 021   166     2     2    37.4  100.6   15488   81.8   18.8   0.8   2.8   4.8   5.1   5.2   4.5   2.9   6.4   0.0   0.0   0.1   0.5   1.3   1.1   1.1  1.30  0.37  1.56  0.00  0.00   86.51   96.35    3.05    0.00    0.98
 1991 022   167     2     2    37.7  100.9   15487   81.9   19.0   0.6   2.5   4.6   5.2   5.4   4.5   2.9   6.5   0.0   0.0   0.1   0.6   1.4   1.1   1.1  1.30  0.37  1.56  0.00  0.00   87.11   96.71    3.08    0.00    0.98
 1991 023   168     2     2    40.3   98.9   15487   79.6   19.2   0.7   2.5   4.4   5.0   5.2   4.5   2.9   6.2   0.0   0.0   0.1   0.6   1.4   1.2   1.1  1.30  0.37  1.56  0.00  0.00   87.72   97.11    3.12    0.00    0.98
 1991 024   169     2     2    41.4   98.3   15486   79.0   19.4   0.8   2.5   4.4   4.9   5.1   4.5   2.9   6.1   0.0   0.0   0.1   0.7   1.5   1.2   1.2  1.30  0.37  1.56  0.00  0.00   88.32   97.57    3.15    0.00    0.99
 1991 025   170     2     2    41.8   98.5   15486   79.1   19.4   0.8   2.5   4.3   4.8   5.1   4.5   2.9   6.1   0.0   0.0   0.1   0.6   1.5   1.2   1.2  1.30  0.36  1.56  0.00  0.00   88.90   98.10    3.16    0.00    0.99
 1991 026   171     2     2    41.9   98.9   15485   79.5   19.5   0.9   2.6   4.3   4.8   5.1   4.5   2.9   6.2   0.0   0.0   0.1   0.6   1.5   1.2   1.2  1.30  0.36  1.56  0.00  0.00   89.47   98.63    3.18    0.00    0.99
 1991 027   172     2     2    41.9   99.5   15484   80.0   19.5   0.9   2.7   4.4   4.9   5.1   4.5   2.9   6.2   0.0   0.0   0.1   0.6   1.5   1.2   1.1  1.30  0.36  1.56  0.00  0.00   90.04   99.16    3.19    0.00    1.00
 1991 028   173     2     2    41.9  100.0   15484   80.5   19.5   1.0   2.8   4.4   4.9   5.2   4.5   2.9   6.3   0.0   0.0   0.1   0.6   1.6   1.2   1.1  1.30  0.36  1.56  0.00  0.00   90.61   99.68    3.20    0.00    1.00
 1991 029   174     2     2    41.9  100.6   15483   81.1   19.5   1.0   2.8   4.5   4.9   5.2   4.5   2.9   6.3   0.0   0.0   0.1   0.6   1.5   1.2   1.1  1.30  0.36  1.56  0.00  0.00   91.17  100.29    3.21    0.00    1.00
 1991 030   175     2     2    42.0  101.0   15483   81.6   19.4   0.6   2.9   4.6   5.0   5.2   4.5   2.9   6.4   0.0   0.0   0.1   0.6   1.5   1.2   1.1  1.30  0.36  1.56  0.00  0.00   91.73  100.91    3.23    0.00    1.00
 1991 031   176     2     2    42.7  100.9   15482   81.3   19.6   0.6   2.8   4.6   4.9   5.2   4.5   2.9   6.4   0.0   0.0   0.1   0.7   1.6   1.2   1.1  1.30  0.36  1.56  0.00  0.00   92.31  101.32    3.25    0.00    1.01
 1991 032   177     2     2    43.0  101.2   15482   81.4   19.7   0.7   2.8   4.6   5.0   5.2   4.6   3.0   6.4   0.0   0.0   0.1   0.7   1.6   1.2   1.1  1.30  0.36  1.56  0.00  0.00   92.88  101.77    3.26    0.00    1.01
 1991 033   178     2     2    43.0  101.7   15481   81.9   19.8   0.8   2.8   4.6   5.0   5.2   4.6   3.0   6.5   0.0   0.0   0.1   0.7   1.6   1.2   1.1  1.30  0.35  1.56  0.00  0.00   93.44  102.24    3.27    0.00    1.01
 1991 034   179     2     2    43.0  102.2   15480   82.4   19.8   0.8   2.9   4.6   5.0   5.3   4.6   3.0   6.5   0.0   0.0   0.1   0.7   1.6   1.2   1.1  1.30  0.35  1.56  0.00  0.00   94.00  102.78    3.29    0.00    1.02
 1991 035   180     2     2    43.0  102.8   15480   83.0   19.8   0.9   3.0   4.7   5.0   5.3   4.6   3.0   6.6   0.0   0.0   0.1   0.7   1.7   1.2   1.1  1.30  0.35  1.56  0.00  0.00   94.58  103.35    3.30    0.00    1.02
 1991 036   181     2     2    43.0  103.4   15479   83.5   19.8   1.0   3.1   4.7   5.1   5.3   4.6   3.0   6.7   0.0   0.0   0.1   0.7   1.7   1.3   1.1  1.30  0.35  1.56  0.00  0.00   95.19  103.94    3.32    0.00    1.02
 1991 037   182     2     2    43.0  104.0   15479   84.3   19.7   1.1   3.2   4.8   5.1   5.4   4.6   3.0   6.7   0.0   0.0   0.1   0.6   1.6   1.3   1.1  1.30  0.35  1.56  0.00  0.00   95.82  104.68    3.33    0.00    1.03
 1991 038   183     2     2    43.0  104.6   15478   85.0   19.6   1.1   3.3   4.9   5.1   5.4   4.6   3.0   6.8   0.0   0.0   0.1   0.6   1.6   1.3   1.1  1.30  0.35  1.56  0.00  0.00   96.45  105.42    3.35    0.00    1.03
 1991 039   184     2     2    43.0  105.2   15477   85.7   19.5   1.2   3.4   5.0   5.1   5.4   4.6   3.0   6.8   0.0   0.0   0.1   0.6   1.6   1.3   1.1  1.30  0.35  1.56  0.00  0.00   97.07  106.14    3.36    0.00    1.03
 1991 040   185     2     2    43.0  105.8   15477   86.4   19.4   1.3   3.5   5.1   5.2   5.4   4.6   3.0   6.9   0.0   0.0   0.1   0.6   1.5   1.3   1.1  1.30  0.34  1.56  0.00  0.00   97.69  106.83    3.38    0.00    1.03
 1991 041   186     2     2    43.0  106.4   15476   87.0   19.4   1.3   3.6   5.2   5.2   5.5   4.7   3.0   7.0   0.0   0.0   0.1   0.6   1.5   1.3   1.1  1.30  0.34  1.56  0.00  0.00   98.30  107.51    3.39    0.00    1.04
 1991 042   187     2     2    43.0  107.0   15476   87.7   19.3   1.4   3.7   5.3   5.2   5.5   4.7   3.0   7.0   0.0   0.0   0.0   0.6   1.5   1.3   1.1  1.30  0.34  1.56  0.00  0.00   98.90  108.18    3.41    0.00    1.04
 1991 043   188     2     2    43.0  107.6   15475   88.4   19.2   1.5   3.7   5.4   5.2   5.5   4.7   3.0   7.1   0.0   0.0   0.0   0.6   1.4   1.3   1.1  1.30  0.34  1.56  0.00  0.00   99.52  108.86    3.42    0.00    1.04
 1991 044   189     2     2    43.0  108.2   15474   89.0   19.2   1.6   3.8   5.5   5.3   5.6   4.7   3.0   7.1   0.0   0.0   0.0   0.6   1.4   1.3   1.1  1.30  0.34  1.56  0.00  0.00  100.12  109.51    3.43    0.00    1.04
 1991 045   190     2     2    43.0  108.8   15474   89.6   19.1   1.6   3.9   5.6   5.3   5.6   4.7   3.0   7.2   0.0   0.0   0.0   0.5   1.4   1.3   1.1  1.30  0.34  1.56  0.00  0.00  100.70  110.14    3.45    0.00    1.04
 1991 046   191     2     2    43.0  109.3   15473   90.2   19.1   1.7   3.9   5.7   5.3   5.6   4.7   3.0   7.3   0.0   0.0   0.0   0.5   1.4   1.3   1.1  1.30  0.34  1.56  0.00  0.00  101.26  110.74    3.46    0.00    1.04
 1991 047   192     2     2    43.0  109.8   15473   90.8   19.1   1.8   4.0   5.7   5.4   5.6   4.7   3.0   7.3   0.0   0.0   0.0   0.5   1.4   1.3   1.1  1.30  0.34  1.56  0.00  0.00  101.80  111.30    3.47    0.00    1.04
 1991 048   193     2     2    43.0  110.3   15472   91.3   19.0   1.8   4.1   5.8   5.4   5.7   4.7   3.0   7.4   0.0   0.0   0.0   0.5   1.3   1.3   1.1  1.30  0.34  1.56  0.00  0.00  102.32  111.85    3.48    0.00    1.04
 1991 049   194     2     2    43.0  110.9   15472   91.9   18.9   1.9   4.1   5.9   5.4   5.7   4.7   3.0   7.5   0.0   0.0   0.0   0.5   1.3   1.3   1.1  1.30  0.33  1.56  0.00  0.00  102.86  112.50    3.50    0.00    1.05
 1991 050   195     2     2    43.0  111.4   15471   92.6   18.8   2.0   4.2   5.9   5.5   5.7   4.7   3.0   7.5   0.0   0.0   0.0   0.5   1.3   1.2   1.1  1.30  0.33  1.56  0.00  0.00  103.41  113.17    3.51    0.00    1.05
 1991 051   196     2     2    43.0  112.0   15471   93.3   18.7   1.5   4.5   6.0   5.6   5.8   4.8   3.1   7.6   0.0   0.0   0.0   0.5   1.3   1.2   1.1  1.30  0.33  1.56  0.00  0.00  103.99  113.87    3.52    0.00    1.05
 1991 052   197     2     2    43.0  112.6   15470   94.0   18.6   1.4   4.6   6.1   5.7   5.8   4.8   3.1   7.6   0.0   0.0   0.1   0.5   1.3   1.1   1.1  1.30  0.33  1.56  0.00  0.00  104.64  114.59    3.53    0.00    1.05
 1991 053   198     2     2    43.0  113.2   15469   94.7   18.5   1.5   4.7   6.2   5.7   5.8   4.8   3.1   7.7   0.0   0.0   0.1   0.5   1.3   1.1   1.1  1.30  0.33  1.56  0.00  0.00  105.29  115.36    3.54    0.00    1.05
 1991 054   199     2     2    43.0  113.9   15469   95.5   18.4   1.6   4.8   6.2   5.8   5.8   4.8   3.1   7.8   0.0   0.0   0.1   0.5   1.3   1.1   1.1  1.30  0.33  1.56  0.00  0.00  105.93  116.11    3.55    0.00    1.05
 1991 055   200     2     2    43.0  114.5   15468   96.2   18.3   1.7   4.9   6.3   5.9   5.9   4.8   3.1   7.8   0.0   0.0   0.1   0.5   1.2   1.0   1.1  1.30  0.33  1.56  0.00  0.00  106.55  116.82    3.57    0.00    1.06
 1991 056   201     2     2    43.0  115.1   15467   96.9   18.2   1.8   5.0   6.4   5.9   5.9   4.8   3.1   7.9   0.0   0.0   0.1   0.5   1.2   1.0   1.1  1.30  0.33  1.56  0.00  0.00  107.17  117.52    3.58    0.00    1.06
 1991 057   202     2     2    43.0  115.7   15467   97.6   18.1   1.8   5.1   6.5   6.0   5.9   4.8   3.1   7.9   0.0   0.0   0.1   0.5   1.2   1.0   1.1  1.30  0.33  1.56  0.00  0.00  107.79  118.23    3.59    0.00    1.07
 1991 058   203     2     2    43.0  116.3   15466   98.3   18.0   1.9   5.2   6.5   6.0   6.0   4.8   3.1   8.0   0.0   0.0   0.1   0.5   1.2   1.0   1.1  1.30  0.33  1.56  0.00  0.00  108.44  118.97    3.60    0.00    1.07
 1991 059   204     2     2    43.0  117.0   15465   99.1   17.9   2.0   5.2   6.6   6.1   6.0   4.8   3.1   8.1   0.0   0.0   0.1   0.5   1.2   0.9   1.1  1.30  0.32  1.56  0.00  0.00  109.10  119.73    3.61    0.00    1.07
 1991 060   205     2     2    43.0  117.6   15465   99.8   17.8   1.3   5.3   6.9   6.3   6.0   4.9   3.1   8.1   0.0   0.0   0.1   0.5   1.2   0.9   1.1  1.29  0.32  1.56  0.00  0.00  109.77  120.49    3.62    0.00    1.08
 1991 061   206     2     2    43.6  117.7   15464   99.6   18.0   1.3   5.1   6.9   6.3   6.1   4.9   3.1   8.1   0.0   0.0   0.1   0.6   1.2   0.9   1.1  1.29  0.32  1.56  0.00  0.00  110.44  120.96    3.63    0.00    1.08

*DSSAT Cropping System Model Ver. 4.0.2.000               Aug 11, 2016; 19:59:12

*RUN   2        : UYSB                    
 MODEL          : CRGRO040 - Soybean         
 EXPERIMENT     : UYSB0145 SB    late to create DSS                             
 TREATMENT  1   : UYSB                    

@YEAR DOY   DAS  NAPC  NI#M    NLCC   NIAD    NOAD   NITD   NHTD  NI1D  NI2D  NI3D  NI4D  NI5D  NI6D  NI7D  NI8D  NI9D  NI10  NH1D  NH2D  NH3D  NH4D  NH5D  NH6D  NH7D  NH8D  NH9D  NH10    NMNC    NITC    NDNC    NIMC    AMLC
 1991 220     0     0     0     0.0   54.1   15574   26.1   28.0   5.3   5.1   4.2   2.0   1.5   0.0   0.0   0.1   0.0   0.0   1.2   1.4   1.5   1.5   1.5  1.49  1.48  1.47  0.00  0.00    0.38    1.00    0.00    0.00    0.00
 1991 221     1     0     0     0.0   54.5   15574   27.1   27.5   5.6   5.2   4.3   2.0   1.5   0.1   0.1   0.2   0.0   0.0   1.0   1.4   1.5   1.4   1.4  1.48  1.46  1.44  0.00  0.00    0.77    1.97    0.00    0.00    0.00
 1991 222     2     0     0     0.0   54.9   15573   28.0   26.9   5.8   5.2   4.3   2.1   1.6   0.1   0.1   0.3   0.0   0.0   0.8   1.4   1.5   1.4   1.4  1.46  1.45  1.41  0.00  0.00    1.16    2.91    0.00    0.00    0.00
 1991 223     3     0     0     0.0   55.3   15573   28.9   26.4   2.9   6.1   4.8   2.1   1.6   0.1   0.1   0.4   0.0   0.0   0.7   1.3   1.5   1.4   1.3  1.45  1.43  1.38  0.00  0.00    1.55    3.80    0.00    0.00    0.00
 1991 224     4     2     2     0.0   57.7   15573   30.6   27.0   4.5   5.9   5.1   2.2   1.7   0.1   0.1   0.5   0.0   0.0   2.1   1.3   1.4   1.4   1.3  1.44  1.41  1.36  0.00  0.00    1.94    4.52    0.00    0.00    0.05
 1991 225     5     2     2     0.0   58.0   15572   31.6   26.4   5.0   5.8   5.2   2.2   1.7   0.1   0.1   0.5   0.0   0.0   1.5   1.3   1.4   1.3   1.3  1.43  1.40  1.34  0.00  0.00    2.34    5.51    0.00    0.00    0.14
 1991 226     6     2     2     0.0   58.3   15572   32.5   25.8   5.3   5.8   5.2   2.3   1.8   0.2   0.2   0.6   0.0   0.0   1.1   1.3   1.4   1.3   1.2  1.42  1.38  1.31  0.00  0.00    2.73    6.42    0.00    0.00    0.22
 1991 227     7     2     2     0.0   58.6   15571   33.5   25.1   5.6   5.9   5.3   2.3   1.8   0.2   0.2   0.7   0.0   0.0   0.7   1.3   1.4   1.3   1.2  1.41  1.36  1.29  0.00  0.00    3.15    7.37    0.00    0.00    0.33
 1991 228     8     2     2     0.0   59.0   15571   34.4   24.6   5.8   6.0   5.3   2.4   1.9   0.2   0.2   0.8   0.0   0.0   0.4   1.2   1.4   1.3   1.2  1.39  1.35  1.27  0.00  0.00    3.61    8.32    0.00    0.00    0.38
 1991 229     9     2     2     0.0   59.5   15570   35.4   24.1   5.9   6.1   5.4   2.5   1.9   0.2   0.2   0.9   0.0   0.0   0.3   1.2   1.4   1.2   1.1  1.38  1.33  1.25  0.00  0.00    4.12    9.29    0.00    0.00    0.43
 1991 230    10     2     2     0.0   60.0   15570   36.4   23.6   6.1   6.2   5.4   2.5   2.0   0.2   0.2   1.0   0.0   0.0   0.2   1.1   1.4   1.2   1.1  1.37  1.31  1.24  0.00  0.00    4.66   10.26    0.00    0.00    0.47
 1991 231    11     2     2     0.0   60.5   15569   37.3   23.2   6.2   6.3   5.5   2.6   2.1   0.3   0.3   1.0   0.0   0.0   0.1   1.1   1.4   1.2   1.0  1.36  1.29  1.22  0.00  0.00    5.21   11.22    0.00    0.00    0.50
 1991 232    12     2     2     0.0   61.0   15569   38.2   22.8   6.2   6.4   5.5   2.7   2.1   0.3   0.3   1.1   0.0   0.0   0.1   1.0   1.4   1.1   1.0  1.34  1.28  1.20  0.00  0.00    5.77   12.14    0.00    0.00    0.53
 1991 233    13     2     2     0.0   61.5   15568   39.1   22.4   6.3   6.5   5.6   2.7   2.2   0.3   0.3   1.2   0.0   0.0   0.1   1.0   1.4   1.1   1.0  1.33  1.26  1.19  0.00  0.00    6.32   13.03    0.00    0.00    0.56
 1991 234    14     2     2     0.0   62.1   15568   40.0   22.1   6.3   6.6   5.6   2.8   2.2   0.3   0.3   1.3   0.0   0.0   0.1   0.9   1.3   1.1   1.0  1.32  1.25  1.18  0.00  0.00    6.87   13.89    0.00    0.00    0.57
 1991 235    15     2     2     0.0   62.6   15567   40.8   21.7   6.4   6.7   5.7   2.8   2.3   0.4   0.3   1.4   0.0   0.0   0.1   0.9   1.3   1.1   0.9  1.31  1.23  1.16  0.00  0.00    7.38   14.76    0.00    0.00    0.57
 1991 236    16     2     2     0.0   63.0   15567   41.7   21.4   6.5   6.8   5.7   2.9   2.3   0.4   0.4   1.4   0.0   0.0   0.1   0.8   1.3   1.0   0.9  1.30  1.21  1.15  0.00  0.00    7.89   15.59    0.00    0.00    0.57
 1991 237    17     2     2     0.0   63.5   15566   42.4   21.1   6.5   6.8   5.8   3.0   2.4   0.4   0.4   1.5   0.0   0.0   0.1   0.8   1.3   1.0   0.9  1.29  1.20  1.14  0.00  0.00    8.38   16.39    0.00    0.00    0.57
 1991 238    18     2     2     0.0   64.0   15566   43.2   20.8   3.6   8.0   6.0   3.0   2.4   0.4   0.4   1.6   0.0   0.0   0.0   0.8   1.3   1.0   0.8  1.27  1.18  1.13  0.00  0.00    8.87   17.17    0.00    0.00    0.57
 1991 239    19     2     2     0.0   64.5   15565   43.8   20.6   3.4   7.9   6.3   3.1   2.4   0.4   0.4   1.7   0.0   0.0   0.1   0.8   1.3   1.0   0.8  1.26  1.17  1.12  0.00  0.00    9.37   17.83    0.00    0.00    0.57
 1991 240    20     2     2     0.0   64.9   15565   44.5   20.4   3.3   7.7   6.5   3.1   2.5   0.5   0.4   1.7   0.0   0.0   0.1   0.8   1.3   1.0   0.8  1.25  1.16  1.11  0.00  0.00    9.85   18.45    0.00    0.00    0.60
 1991 241    21     2     2     0.0   65.3   15564   45.1   20.2   3.3   7.7   6.5   3.2   2.5   0.5   0.5   1.8   0.0   0.0   0.1   0.9   1.3   0.9   0.8  1.24  1.14  1.10  0.00  0.00   10.31   19.08    0.00    0.00    0.63
 1991 242    22     2     2     0.0   65.7   15564   45.7   20.0   3.4   7.7   6.6   3.2   2.5   0.5   0.5   1.9   0.0   0.0   0.1   0.8   1.3   0.9   0.8  1.23  1.13  1.10  0.00  0.00   10.78   19.76    0.00    0.00    0.65
 1991 243    23     2     2     0.0   66.2   15563   46.4   19.8   3.4   7.8   6.6   3.3   2.6   0.5   0.5   1.9   0.0   0.0   0.1   0.8   1.3   0.9   0.8  1.23  1.11  1.09  0.00  0.00   11.25   20.42    0.00    0.00    0.65
 1991 244    24     2     2     0.0   66.6   15563   47.0   19.6   2.2   7.5   7.0   3.6   2.6   0.5   0.5   2.0   0.0   0.0   0.1   0.8   1.3   0.9   0.7  1.22  1.10  1.08  0.00  0.00   11.72   21.08    0.00    0.00    0.65
 1991 245    25     2     2     0.0   67.1   15562   47.5   19.5   2.2   7.2   7.0   3.8   2.6   0.6   0.5   2.1   0.0   0.0   0.1   0.8   1.3   0.9   0.7  1.21  1.09  1.08  0.00  0.00   12.19   21.60    0.00    0.00    0.68
 1991 246    26     2     2     0.0   67.5   15562   48.0   19.4   2.2   7.1   6.9   4.0   2.7   0.6   0.5   2.2   0.0   0.0   0.1   0.9   1.3   0.9   0.7  1.20  1.08  1.07  0.00  0.00   12.65   22.13    0.00    0.00    0.71
 1991 247    27     2     2     0.0   67.9   15561   48.5   19.3   2.2   7.0   6.9   4.1   2.7   0.6   0.6   2.2   0.0   0.0   0.1   0.9   1.3   0.9   0.7  1.19  1.06  1.07  0.00  0.00   13.12   22.66    0.00    0.00    0.73
 1991 248    28     2     2     0.0   68.2   15561   49.1   19.2   2.3   7.1   6.9   4.2   2.8   0.6   0.6   2.3   0.0   0.0   0.1   0.9   1.4   0.8   0.7  1.18  1.05  1.06  0.00  0.00   13.58   23.24    0.00    0.00    0.75
 1991 249    29     2     2     0.0   68.7   15560   49.6   19.1   2.3   7.1   6.9   4.2   2.8   0.6   0.6   2.4   0.0   0.0   0.1   0.8   1.4   0.8   0.7  1.17  1.04  1.06  0.00  0.00   14.06   23.84    0.00    0.00    0.75
 1991 250    30     2     2     0.0   69.1   15560   50.2   18.9   2.4   7.2   6.9   4.2   2.8   0.6   0.6   2.4   0.0   0.0   0.1   0.8   1.4   0.8   0.7  1.16  1.03  1.05  0.00  0.00   14.57   24.47    0.00    0.00    0.75
 1991 251    31     2     2     0.0   69.6   15559   50.9   18.8   2.4   7.2   7.0   4.3   2.9   0.7   0.6   2.5   0.0   0.0   0.1   0.8   1.4   0.8   0.7  1.15  1.02  1.05  0.00  0.00   15.09   25.16    0.00    0.00    0.75
 1991 252    32     2     2     0.0   70.0   15559   51.5   18.5   2.5   7.3   7.0   4.3   2.9   0.7   0.6   2.6   0.0   0.0   0.1   0.8   1.4   0.8   0.6  1.15  1.00  1.04  0.00  0.00   15.60   25.84    0.00    0.00    0.78
 1991 253    33     2     2     0.0   70.4   15558   52.1   18.4   2.6   7.3   7.1   4.3   2.9   0.7   0.6   2.6   0.0   0.0   0.1   0.8   1.4   0.8   0.6  1.14  0.99  1.04  0.00  0.00   16.08   26.47    0.00    0.00    0.80
 1991 254    34     2     2     0.0   70.8   15558   52.6   18.2   2.7   7.3   7.1   4.3   3.0   0.7   0.7   2.7   0.0   0.0   0.1   0.7   1.4   0.8   0.6  1.13  0.98  1.03  0.00  0.00   16.54   27.07    0.00    0.00    0.82
 1991 255    35     2     2     0.0   71.1   15557   53.1   18.0   2.7   7.3   7.1   4.4   3.0   0.7   0.7   2.8   0.0   0.0   0.0   0.7   1.3   0.8   0.6  1.12  0.97  1.03  0.00  0.00   17.00   27.68    0.00    0.00    0.83
 1991 256    36     2     2     0.0   71.4   15557   53.6   17.8   2.8   7.3   7.1   4.4   3.0   0.8   0.7   2.8   0.0   0.0   0.0   0.7   1.3   0.8   0.6  1.11  0.96  1.03  0.00  0.00   17.49   28.31    0.00    0.00    0.84
 1991 257    37     2     2     0.0   71.8   15556   54.1   17.6   2.9   7.4   7.2   4.4   3.1   0.8   0.7   2.9   0.0   0.0   0.1   0.7   1.3   0.8   0.6  1.10  0.95  1.02  0.00  0.00   18.02   28.98    0.00    0.00    0.84
 1991 258    38     2     2     0.0   72.3   15556   54.8   17.5   1.9   7.5   7.4   4.5   3.1   0.8   0.7   3.0   0.0   0.0   0.1   0.7   1.3   0.7   0.6  1.09  0.93  1.02  0.00  0.00   18.55   29.65    0.00    0.00    0.84
 1991 259    39     2     2     0.0   72.7   15555   55.2   17.5   1.7   7.3   7.5   4.6   3.1   0.8   0.7   3.0   0.0   0.0   0.1   0.7   1.3   0.7   0.6  1.09  0.92  1.02  0.00  0.00   19.07   30.15    0.00    0.00    0.86
 1991 260    40     2     2     0.0   73.1   15555   55.6   17.5   1.2   6.3   7.8   5.0   3.4   0.8   0.7   3.1   0.0   0.0   0.1   0.8   1.4   0.8   0.6  1.08  0.91  1.02  0.00  0.00   19.58   30.62    0.00    0.00    0.89
 1991 261    41     2     2     0.1   73.3   15554   55.8   17.5   0.5   4.3   6.9   5.7   4.1   1.2   0.8   3.1   0.0   0.0   0.1   0.8   1.4   0.8   0.6  1.07  0.90  1.01  0.00  0.00   20.07   31.03    0.00    0.00    0.89
 1991 262    42     2     2     1.6   72.1   15554   54.4   17.6   0.6   4.1   6.6   5.5   4.1   1.4   0.8   2.8   0.0   0.0   0.1   0.8   1.4   0.8   0.6  1.07  0.89  1.04  0.00  0.00   20.53   31.29    0.00    0.00    0.93
 1991 263    43     2     2     2.3   71.5   15554   53.8   17.7   0.6   4.0   6.4   5.4   4.1   1.4   0.8   2.7   0.0   0.0   0.1   0.8   1.4   0.8   0.6  1.07  0.88  1.06  0.00  0.00   20.99   31.58    0.05    0.00    0.95
 1991 264    44     2     2     2.6   71.5   15553   53.7   17.8   0.6   4.0   6.3   5.4   4.1   1.5   0.8   2.6   0.0   0.0   0.1   0.8   1.4   0.8   0.6  1.07  0.87  1.07  0.00  0.00   21.46   31.90    0.08    0.00    0.97
 1991 265    45     2     2     2.6   71.7   15553   53.8   17.9   0.7   4.0   6.2   5.3   4.0   1.5   0.9   2.7   0.0   0.0   0.1   0.8   1.5   0.8   0.6  1.07  0.86  1.09  0.00  0.00   21.94   32.29    0.09    0.00    0.97
 1991 266    46     2     2     2.6   71.9   15552   54.0   17.9   0.7   4.1   6.2   5.3   4.1   1.5   0.9   2.7   0.0   0.0   0.1   0.8   1.5   0.8   0.6  1.07  0.85  1.11  0.00  0.00   22.42   32.69    0.10    0.00    0.97
 1991 267    47     2     2     2.6   72.2   15552   54.3   17.9   0.8   4.1   6.2   5.3   4.1   1.5   0.9   2.7   0.0   0.0   0.1   0.8   1.4   0.8   0.6  1.07  0.84  1.13  0.00  0.00   22.89   33.15    0.10    0.00    0.97
 1991 268    48     2     2     2.6   72.4   15551   54.6   17.8   0.8   4.1   6.2   5.3   4.1   1.5   0.9   2.8   0.0   0.0   0.1   0.8   1.4   0.8   0.6  1.07  0.83  1.14  0.00  0.00   23.36   33.60    0.11    0.00    0.97
 1991 269    49     2     2     2.6   72.5   15551   54.8   17.7   0.9   4.1   6.2   5.3   4.1   1.5   0.9   2.8   0.0   0.0   0.1   0.7   1.4   0.8   0.6  1.07  0.82  1.16  0.00  0.00   23.83   34.06    0.11    0.00    0.97
 1991 270    50     2     2     2.6   72.6   15550   55.0   17.7   1.0   4.2   6.2   5.3   4.1   1.5   0.9   2.9   0.0   0.0   0.1   0.7   1.4   0.9   0.7  1.07  0.81  1.17  0.00  0.00   24.29   34.50    0.12    0.00    0.98
 1991 271    51     2     2     2.6   72.7   15550   55.1   17.6   1.0   4.2   6.2   5.3   4.0   1.5   0.9   2.9   0.0   0.0   0.1   0.7   1.3   0.9   0.7  1.06  0.80  1.18  0.00  0.00   24.76   34.96    0.12    0.00    0.98
 1991 272    52     2     2     2.6   72.9   15549   55.3   17.6   1.1   4.2   6.2   5.3   4.0   1.5   0.9   3.0   0.0   0.0   0.1   0.7   1.3   0.9   0.7  1.06  0.79  1.20  0.00  0.00   25.24   35.42    0.12    0.00    0.98
 1991 273    53     2     2     2.6   73.0   15549   55.6   17.5   1.2   4.2   6.2   5.3   4.0   1.5   0.9   3.0   0.0   0.0   0.1   0.7   1.3   0.9   0.7  1.06  0.79  1.21  0.00  0.00   25.71   35.91    0.12    0.00    0.98
 1991 274    54     2     2     2.6   73.1   15548   55.7   17.3   1.2   4.2   6.2   5.3   4.0   1.5   0.9   3.0   0.0   0.0   0.1   0.7   1.3   0.8   0.7  1.06  0.78  1.22  0.00  0.00   26.18   36.40    0.12    0.00    0.98
 1991 275    55     2     2     2.6   73.2   15548   55.9   17.3   1.3   4.3   6.2   5.3   4.0   1.5   1.0   3.1   0.0   0.0   0.1   0.6   1.3   0.8   0.7  1.06  0.77  1.23  0.00  0.00   26.64   36.88    0.13    0.00    0.98
 1991 276    56     2     2     2.6   73.3   15547   56.2   17.1   1.4   4.3   6.2   5.3   4.1   1.5   1.0   3.1   0.0   0.0   0.1   0.6   1.3   0.8   0.7  1.05  0.76  1.24  0.00  0.00   27.06   37.36    0.13    0.00    0.98
 1991 277    57     2     2     2.6   73.2   15547   56.3   16.9   1.4   4.3   6.1   5.3   4.1   1.5   1.0   3.2   0.0   0.0   0.1   0.6   1.2   0.8   0.7  1.04  0.75  1.25  0.00  0.00   27.50   37.88    0.13    0.00    0.99
 1991 278    58     2     2     2.6   73.2   15547   56.4   16.7   1.5   4.3   6.1   5.3   4.1   1.6   1.0   3.2   0.0   0.0   0.1   0.6   1.2   0.8   0.6  1.03  0.74  1.26  0.00  0.00   27.93   38.39    0.13    0.00    0.99
 1991 279    59     2     2     2.6   73.4   15546   56.8   16.6   0.7   4.1   6.4   5.5   4.1   1.6   1.0   3.3   0.0   0.0   0.1   0.6   1.2   0.8   0.6  1.02  0.73  1.27  0.00  0.00   28.35   38.89    0.13    0.00    0.99
 1991 280    60     2     2     2.7   73.5   15546   56.8   16.7   0.4   2.9   5.7   5.8   4.7   1.8   1.0   3.3   0.0   0.0   0.1   0.6   1.2   0.8   0.6  1.01  0.72  1.28  0.00  0.00   28.78   39.20    0.13    0.00    0.99
 1991 281    61     2     2     4.1   72.2   15545   55.4   16.8   0.4   2.8   5.4   5.6   4.6   1.9   1.0   3.0   0.0   0.0   0.1   0.7   1.2   0.8   0.6  1.01  0.71  1.28  0.00  0.00   29.19   39.45    0.13    0.00    0.99
 1991 282    62     2     2     4.7   71.5   15545   54.7   16.8   0.4   2.7   5.2   5.5   4.5   1.9   1.1   3.0   0.0   0.0   0.1   0.7   1.2   0.8   0.7  1.01  0.70  1.29  0.00  0.00   29.59   39.72    0.13    0.00    0.99
 1991 283    63     2     2     4.9   71.0   15545   54.3   16.7   0.4   2.6   5.1   5.4   4.4   2.0   1.1   3.0   0.0   0.0   0.1   0.7   1.2   0.8   0.7  1.00  0.70  1.30  0.00  0.00   29.98   40.01    0.14    0.00    0.99
 1991 284    64     2     2     5.0   70.5   15544   53.9   16.6   0.5   2.6   5.0   5.3   4.4   2.0   1.1   3.0   0.0   0.0   0.1   0.6   1.2   0.8   0.7  0.99  0.69  1.30  0.00  0.00   30.39   40.35    0.15    0.00    1.00
 1991 285    65     2     2     5.0   69.9   15544   53.5   16.4   0.5   2.6   4.9   5.3   4.4   2.0   1.1   3.0   0.0   0.0   0.1   0.6   1.2   0.8   0.7  0.99  0.67  1.30  0.00  0.00   30.84   40.71    0.15    0.00    1.00
 1991 286    66     2     2     5.0   69.1   15543   52.9   16.2   0.6   2.5   4.7   5.2   4.3   1.9   1.1   3.1   0.0   0.0   0.1   0.6   1.1   0.8   0.7  0.98  0.66  1.31  0.00  0.00   31.33   41.16    0.15    0.00    1.01
 1991 287    67     2     2     5.0   68.2   15543   52.4   15.9   0.7   2.5   4.6   5.1   4.2   1.9   1.1   3.1   0.0   0.0   0.1   0.6   1.1   0.8   0.7  0.96  0.65  1.31  0.00  0.00   31.87   41.69    0.16    0.00    1.01
 1991 288    68     2     2     5.0   67.7   15542   52.1   15.6   0.3   1.8   4.3   5.4   4.5   2.0   1.1   3.1   0.0   0.0   0.1   0.5   1.1   0.7   0.6  0.95  0.64  1.31  0.00  0.00   32.46   42.30    0.16    0.00    1.01
 1991 289    69     2     2     5.4   67.1   15541   51.5   15.7   0.2   1.2   3.5   5.1   4.6   2.3   1.2   3.2   0.0   0.0   0.2   0.6   1.1   0.8   0.6  0.94  0.62  1.31  0.00  0.00   33.06   42.60    0.16    0.00    1.01
 1991 290    70     2     2     7.5   64.8   15541   49.0   15.8   0.2   1.1   3.2   4.7   4.4   2.4   1.2   2.8   0.0   0.0   0.2   0.6   1.1   0.8   0.6  0.93  0.61  1.31  0.00  0.00   33.62   42.85    0.20    0.00    1.02
 1991 291    71     2     2     8.5   63.4   15540   47.6   15.7   0.3   1.1   3.0   4.5   4.3   2.4   1.2   2.7   0.0   0.0   0.2   0.6   1.1   0.8   0.7  0.93  0.60  1.31  0.00  0.00   34.16   43.20    0.21    0.00    1.02
 1991 292    72     2     2     8.9   61.5   15540   46.2   15.4   0.3   1.0   2.8   4.3   4.1   2.3   1.2   2.7   0.0   0.0   0.1   0.6   1.1   0.8   0.6  0.91  0.58  1.31  0.00  0.00   34.66   43.54    0.22    0.00    1.03
 1991 293    73     2     2     8.9   59.5   15539   44.7   14.8   0.4   0.9   2.5   4.1   4.0   2.3   1.2   2.7   0.0   0.0   0.1   0.5   1.0   0.8   0.6  0.88  0.57  1.30  0.00  0.00   35.13   43.90    0.23    0.00    1.04
 1991 294    74     2     2     8.9   57.3   15539   43.1   14.2   0.5   0.9   2.3   4.0   3.8   2.2   1.2   2.7   0.0   0.0   0.1   0.5   0.9   0.7   0.6  0.85  0.55  1.28  0.00  0.00   35.60   44.30    0.23    0.00    1.04
 1991 295    75     2     2     8.9   54.7   15538   41.2   13.4   0.5   0.8   2.0   3.8   3.7   2.1   1.2   2.7   0.0   0.0   0.1   0.5   0.8   0.7   0.6  0.81  0.53  1.26  0.00  0.00   36.10   44.81    0.23    0.00    1.05
 1991 296    76     2     2     8.9   52.3   15538   39.6   12.7   0.6   0.8   1.8   3.6   3.5   2.0   1.1   2.7   0.0   0.0   0.1   0.5   0.7   0.6   0.5  0.76  0.50  1.22  0.00  0.00   36.65   45.40    0.23    0.00    1.05
 1991 297    77     2     2     8.9   51.4   15537   39.0   12.4   0.6   0.8   1.7   3.5   3.4   2.0   1.1   2.7   0.0   0.0   0.1   0.5   0.7   0.6   0.5  0.74  0.50  1.19  0.00  0.00   37.19   45.96    0.23    0.00    1.05
 1991 298    78     2     2     8.9   50.8   15537   38.6   12.2   0.6   0.8   1.7   3.4   3.3   2.0   1.1   2.8   0.0   0.0   0.1   0.5   0.6   0.6   0.5  0.72  0.50  1.16  0.00  0.00   37.71   46.48    0.23    0.00    1.05
 1991 299    79     2     2     8.9   49.6   15536   37.8   11.9   0.7   0.8   1.5   3.3   3.2   1.9   1.1   2.8   0.0   0.0   0.1   0.5   0.6   0.6   0.5  0.70  0.49  1.13  0.00  0.00   38.21   46.98    0.23    0.00    1.06
 1991 300    80     2     2     8.9   46.1   15536   35.0   11.1   0.7   0.8   1.3   3.0   3.0   1.8   1.0   2.8   0.0   0.0   0.1   0.5   0.5   0.5   0.5  0.64  0.49  1.07  0.00  0.00   38.69   47.45    0.23    0.00    1.06
 1991 301    81     2     2     8.9   43.9   15535   33.0   10.8   0.8   0.7   1.1   2.8   2.8   1.7   1.0   2.7   0.0   0.0   0.1   0.5   0.5   0.5   0.5  0.60  0.49  1.03  0.00  0.00   39.15   47.88    0.23    0.00    1.06
 1991 302    82     2     2     8.9   42.5   15535   31.9   10.6   0.8   0.7   1.0   2.7   2.6   1.6   1.0   2.8   0.0   0.0   0.1   0.5   0.5   0.5   0.5  0.57  0.48  1.00  0.00  0.00   39.61   48.30    0.23    0.00    1.06
 1991 303    83     2     2     8.9   41.3   15534   30.9   10.5   0.6   0.8   0.9   2.5   2.5   1.5   1.0   2.8   0.0   0.0   0.1   0.5   0.5   0.5   0.5  0.54  0.48  0.98  0.00  0.00   40.07   48.72    0.23    0.00    1.06
 1991 304    84     2     2     8.9   40.0   15534   29.7   10.3   0.5   0.7   0.9   2.4   2.4   1.5   0.9   2.8   0.0   0.0   0.1   0.5   0.5   0.5   0.5  0.52  0.48  0.95  0.00  0.00   40.55   49.11    0.23    0.00    1.07
 1991 305    85     2     2     8.9   38.6   15534   28.4   10.2   0.5   0.6   0.8   2.3   2.3   1.4   0.9   2.7   0.0   0.0   0.1   0.5   0.5   0.5   0.5  0.50  0.47  0.93  0.00  0.00   41.02   49.46    0.23    0.00    1.07
 1991 306    86     2     2     8.9   35.3   15533   25.3   10.0   0.6   0.3   0.6   2.0   2.0   1.3   0.8   2.6   0.0   0.0   0.1   0.5   0.5   0.5   0.5  0.50  0.47  0.87  0.00  0.00   41.49   49.86    0.23    0.00    1.07
 1991 307    87     2     2     8.9   31.9   15533   22.0    9.9   0.6   0.4   0.4   1.6   1.6   1.1   0.8   2.5   0.0   0.0   0.1   0.5   0.5   0.5   0.5  0.51  0.47  0.81  0.00  0.00   41.95   50.26    0.23    0.00    1.08
 1991 308    88     2     2     8.9   29.2   15532   19.5    9.8   0.6   0.4   0.4   1.4   1.3   0.9   0.7   2.3   0.0   0.0   0.1   0.5   0.5   0.5   0.5  0.51  0.46  0.74  0.00  0.00   42.44   50.65    0.23    0.00    1.08
 1991 309    89     2     2     8.9   26.8   15532   17.2    9.6   0.7   0.5   0.5   1.1   1.1   0.8   0.6   2.2   0.0   0.0   0.1   0.5   0.5   0.5   0.5  0.51  0.46  0.69  0.00  0.00   42.93   51.06    0.23    0.00    1.09
 1991 310    90     2     2     8.9   24.7   15531   15.3    9.5   0.7   0.6   0.5   0.9   0.9   0.6   0.5   2.0   0.0   0.0   0.1   0.5   0.5   0.5   0.5  0.51  0.46  0.63  0.00  0.00   43.42   51.46    0.23    0.00    1.09
 1991 311    91     2     2     8.9   22.4   15531   13.1    9.3   0.6   0.4   0.5   0.7   0.7   0.5   0.5   1.8   0.0   0.0   0.1   0.5   0.5   0.5   0.5  0.50  0.45  0.59  0.00  0.00   43.94   51.86    0.23    0.00    1.10
 1991 312    92     2     2     8.9   21.1   15530   11.9    9.2   0.6   0.5   0.5   0.6   0.6   0.4   0.5   1.7   0.0   0.0   0.1   0.5   0.5   0.5   0.5  0.50  0.45  0.54  0.00  0.00   44.46   52.25    0.23    0.00    1.10
 1991 313    93     2     2     8.9   20.1   15530   10.9    9.2   0.6   0.5   0.4   0.5   0.5   0.4   0.5   1.5   0.0   0.0   0.1   0.5   0.5   0.5   0.5  0.51  0.45  0.53  0.00  0.00   44.97   52.65    0.23    0.00    1.10
 1991 314    94     2     2     8.9   20.1   15529   10.9    9.2   0.4   0.6   0.4   0.5   0.5   0.4   0.5   1.3   0.0   0.0   0.1   0.5   0.5   0.5   0.5  0.51  0.45  0.53  0.00  0.00   45.46   53.03    0.23    0.00    1.11
 1991 315    95     2     2     8.9   19.7   15529   10.4    9.3   0.4   0.3   0.5   0.5   0.5   0.4   0.5   1.2   0.0   0.0   0.1   0.6   0.5   0.5   0.5  0.51  0.44  0.53  0.00  0.00   45.99   53.34    0.23    0.00    1.11
 1991 316    96     2     2     8.9   19.3   15528   10.1    9.2   0.4   0.3   0.5   0.5   0.4   0.5   0.5   1.1   0.0   0.0   0.1   0.5   0.5   0.5   0.5  0.50  0.44  0.53  0.00  0.00   46.51   53.69    0.23    0.00    1.12
 1991 317    97     2     2     8.9   19.0   15528    9.8    9.2   0.5   0.4   0.5   0.4   0.4   0.5   0.5   0.9   0.0   0.0   0.1   0.5   0.5   0.5   0.5  0.50  0.44  0.53  0.00  0.00   47.01   54.06    0.23    0.00    1.12
 1991 318    98     2     2     8.9   18.5   15527    9.4    9.1   0.5   0.4   0.3   0.4   0.5   0.5   0.5   0.8   0.0   0.0   0.1   0.5   0.5   0.5   0.5  0.51  0.44  0.53  0.00  0.00   47.51   54.42    0.23    0.00    1.13
 1991 319    99     2     2     8.9   18.5   15527    9.4    9.1   0.5   0.5   0.3   0.4   0.5   0.5   0.5   0.7   0.0   0.0   0.1   0.5   0.5   0.5   0.5  0.51  0.43  0.53  0.00  0.00   47.99   54.77    0.23    0.00    1.13
 1991 320   100     2     2     8.9   18.2   15526    9.1    9.1   0.5   0.5   0.3   0.5   0.5   0.5   0.4   0.7   0.0   0.0   0.1   0.5   0.5   0.5   0.5  0.51  0.43  0.53  0.00  0.00   48.45   55.11    0.23    0.00    1.13
 1991 321   101     2     2     8.9   18.3   15526    9.2    9.1   0.5   0.6   0.3   0.5   0.5   0.5   0.4   0.6   0.0   0.0   0.1   0.5   0.5   0.5   0.5  0.50  0.43  0.53  0.00  0.00   48.91   55.46    0.23    0.00    1.14
 1991 322   102     2     2     8.9   17.7   15525    8.6    9.0   0.6   0.3   0.4   0.5   0.4   0.5   0.4   0.5   0.0   0.0   0.1   0.5   0.5   0.5   0.5  0.50  0.43  0.53  0.00  0.00   49.37   55.81    0.23    0.00    1.14
 1991 323   103     2     2     8.9   17.8   15525    8.8    9.0   0.4   0.5   0.4   0.5   0.4   0.5   0.4   0.5   0.0   0.0   0.1   0.5   0.5   0.5   0.5  0.51  0.42  0.53  0.00  0.00   49.84   56.18    0.23    0.00    1.15
 1991 324   104     2     2     8.9   17.9   15524    8.8    9.1   0.4   0.5   0.4   0.4   0.5   0.5   0.5   0.5   0.0   0.0   0.1   0.5   0.5   0.5   0.5  0.51  0.42  0.53  0.00  0.00   50.35   56.48    0.23    0.00    1.15
 1991 325   105     2     2     8.9   17.8   15524    8.7    9.1   0.4   0.5   0.5   0.4   0.5   0.4   0.5   0.5   0.0   0.0   0.1   0.5   0.5   0.5   0.5  0.51  0.42  0.53  0.00  0.00   50.88   56.84    0.23    0.00    1.15
 1991 326   106     2     2     8.9   17.9   15523    8.9    9.0   0.5   0.5   0.5   0.4   0.5   0.4   0.5   0.5   0.0   0.0   0.1   0.5   0.5   0.5   0.5  0.51  0.42  0.53  0.00  0.00   51.41   57.25    0.23    0.00    1.16
 1991 327   107     2     2     8.9   18.0   15523    9.0    9.0   0.6   0.3   0.5   0.5   0.5   0.4   0.5   0.5   0.0   0.0   0.1   0.5   0.5   0.5   0.5  0.51  0.41  0.53  0.00  0.00   51.96   57.69    0.23    0.00    1.17
 1991 328   108     2     2     8.9   18.1   15522    9.1    9.0   0.6   0.4   0.5   0.5   0.4   0.4   0.5   0.5   0.0   0.0   0.1   0.5   0.5   0.5   0.5  0.51  0.41  0.53  0.00  0.00   52.51   58.15    0.23    0.00    1.17
 1991 329   109     2     2     8.9   17.7   15522    8.8    8.9   0.3   0.5   0.4   0.6   0.4   0.4   0.5   0.5   0.0   0.0   0.1   0.5   0.5   0.5   0.5  0.50  0.41  0.53  0.00  0.00   53.05   58.59    0.23    0.00    1.17
 1991 330   110     2     2     8.9   17.6   15521    8.5    9.1   0.1   0.4   0.4   0.3   0.6   0.5   0.5   0.5   0.0   0.0   0.2   0.6   0.6   0.5   0.4  0.50  0.41  0.53  0.00  0.00   53.63   58.88    0.23    0.00    1.18
 1991 331   111     2     2     8.9   17.1   15521    8.0    9.2   0.1   0.4   0.4   0.3   0.3   0.5   0.5   0.5   0.0   0.0   0.2   0.6   0.6   0.5   0.5  0.50  0.40  0.53  0.00  0.00   54.19   59.09    0.23    0.00    1.18
 1991 332   112     2     2     8.9   17.4   15520    8.2    9.2   0.2   0.4   0.4   0.3   0.3   0.5   0.5   0.5   0.0   0.0   0.2   0.5   0.5   0.5   0.5  0.50  0.40  0.53  0.00  0.00   54.73   59.31    0.23    0.00    1.18
 1991 333   113     2     2     8.9   16.6   15520    7.5    9.2   0.2   0.4   0.4   0.3   0.3   0.3   0.5   0.5   0.0   0.0   0.2   0.5   0.5   0.5   0.5  0.51  0.40  0.53  0.00  0.00   55.25   59.58    0.23    0.00    1.19
 1991 334   114     2     2     8.9   16.7   15519    7.5    9.2   0.3   0.4   0.4   0.3   0.3   0.3   0.5   0.5   0.0   0.0   0.2   0.5   0.5   0.5   0.5  0.51  0.40  0.53  0.00  0.00   55.79   59.81    0.23    0.00    1.19
 1991 335   115     2     2     8.9   16.7   15519    7.6    9.1   0.4   0.5   0.4   0.3   0.3   0.3   0.4   0.5   0.0   0.0   0.2   0.5   0.5   0.5   0.5  0.51  0.40  0.53  0.00  0.00   56.36   60.24    0.23    0.00    1.20
 1991 336   116     2     2     8.9   17.0   15518    8.0    9.0   0.5   0.5   0.4   0.4   0.4   0.3   0.4   0.5   0.0   0.0   0.2   0.5   0.5   0.5   0.5  0.50  0.39  0.53  0.00  0.00   56.97   60.70    0.23    0.00    1.21
 1991 337   117     2     2     8.9   16.9   15518    7.9    9.0   0.6   0.3   0.5   0.4   0.4   0.3   0.5   0.5   0.0   0.0   0.1   0.5   0.5   0.5   0.5  0.51  0.39  0.53  0.00  0.00   57.59   61.17    0.23    0.00    1.21
 1991 338   118     2     2     8.9   17.3   15517    8.3    9.0   0.5   0.4   0.5   0.4   0.4   0.3   0.5   0.5   0.0   0.0   0.1   0.5   0.5   0.5   0.5  0.51  0.39  0.53  0.00  0.00   58.20   61.63    0.23    0.00    1.22
 1991 339   119     2     2     8.9   17.7   15516    8.7    9.0   0.4   0.5   0.6   0.5   0.5   0.4   0.5   0.5   0.0   0.0   0.1   0.5   0.5   0.5   0.5  0.51  0.39  0.53  0.00  0.00   58.82   62.11    0.23    0.00    1.22
 1991 340   120     2     2     8.9   17.0   15516    7.9    9.0   0.4   0.3   0.3   0.5   0.5   0.4   0.5   0.5   0.0   0.0   0.2   0.6   0.5   0.5   0.5  0.50  0.38  0.53  0.00  0.00   59.46   62.48    0.23    0.00    1.22
 1991 341   121     2     2     8.9   17.4   15515    8.4    9.0   0.5   0.3   0.3   0.5   0.5   0.4   0.5   0.5   0.0   0.0   0.1   0.5   0.5   0.5   0.5  0.51  0.38  0.53  0.00  0.00   60.12   63.00    0.23    0.00    1.23
 1991 342   122     2     2     8.9   17.3   15515    8.3    9.0   0.6   0.4   0.4   0.5   0.3   0.4   0.5   0.5   0.0   0.0   0.1   0.5   0.5   0.5   0.5  0.51  0.38  0.53  0.00  0.00   60.76   63.48    0.23    0.00    1.23
 1991 343   123     2     2     8.9   16.8   15514    7.9    9.0   0.2   0.6   0.4   0.3   0.3   0.4   0.5   0.5   0.0   0.0   0.1   0.5   0.5   0.5   0.5  0.51  0.38  0.53  0.00  0.00   61.41   63.98    0.23    0.00    1.24
 1991 344   124     2     2     8.9   16.8   15513    7.8    9.0   0.1   0.1   0.5   0.4   0.4   0.4   0.5   0.5   0.0   0.0   0.2   0.6   0.5   0.5   0.5  0.50  0.37  0.53  0.00  0.00   62.04   64.33    0.23    0.00    1.24
 1991 345   125     2     2     8.9   17.0   15513    7.9    9.1   0.2   0.2   0.5   0.4   0.4   0.4   0.5   0.5   0.0   0.0   0.2   0.6   0.6   0.5   0.5  0.51  0.37  0.53  0.00  0.00   62.67   64.62    0.23    0.00    1.24
 1991 346   126     2     2     8.9   17.3   15512    8.3    9.1   0.3   0.2   0.5   0.4   0.4   0.4   0.5   0.5   0.0   0.0   0.2   0.6   0.6   0.5   0.5  0.51  0.37  0.52  0.00  0.00   63.28   64.99    0.23    0.00    1.25
 1991 347   127     2     2     8.9   17.7   15512    8.7    9.0   0.3   0.3   0.5   0.4   0.5   0.4   0.5   0.5   0.0   0.0   0.2   0.5   0.6   0.5   0.5  0.51  0.37  0.52  0.00  0.00   63.89   65.38    0.23    0.00    1.25
 1991 348   128     2     2     8.9   17.5   15511    8.5    9.0   0.2   0.3   0.5   0.4   0.5   0.5   0.5   0.5   0.0   0.0   0.2   0.6   0.6   0.5   0.5  0.50  0.36  0.52  0.00  0.00   64.48   65.66    0.23    0.00    1.26
 1991 349   129     2     2     8.9   17.8   15511    8.7    9.1   0.2   0.3   0.5   0.4   0.5   0.5   0.5   0.5   0.0   0.0   0.2   0.6   0.6   0.5   0.5  0.51  0.36  0.52  0.00  0.00   65.07   65.89    0.24    0.00    1.26
 1991 350   130     2     2     8.9   18.1   15510    8.9    9.2   0.2   0.3   0.5   0.4   0.5   0.5   0.5   0.5   0.0   0.0   0.3   0.6   0.6   0.5   0.5  0.51  0.36  0.52  0.00  0.00   65.65   66.12    0.25    0.00    1.26
 1991 351   131     2     2     8.9   17.5   15510    8.4    9.1   0.2   0.3   0.5   0.5   0.3   0.5   0.5   0.5   0.0   0.0   0.3   0.6   0.6   0.5   0.5  0.50  0.36  0.52  0.00  0.00   66.22   66.36    0.25    0.00    1.26
 1991 352   132     2     2     8.9   17.8   15509    8.7    9.2   0.3   0.3   0.5   0.5   0.3   0.5   0.5   0.5   0.0   0.0   0.3   0.6   0.6   0.5   0.5  0.51  0.36  0.52  0.00  0.00   66.81   66.59    0.26    0.00    1.27
 1991 353   133     2     2     8.9   17.3   15509    8.3    9.0   0.3   0.3   0.5   0.5   0.3   0.5   0.4   0.5   0.0   0.0   0.2   0.6   0.6   0.5   0.5  0.50  0.36  0.52  0.00  0.00   67.42   66.94    0.26    0.00    1.28
 1991 354   134     2     2     8.9   17.6   15508    8.5    9.2   0.3   0.3   0.5   0.5   0.3   0.5   0.4   0.5   0.0   0.0   0.3   0.6   0.6   0.5   0.5  0.51  0.36  0.52  0.00  0.00   68.05   67.16    0.27    0.00    1.28
 1991 355   135     2     2     8.9   17.9   15507    8.7    9.2   0.4   0.3   0.5   0.5   0.3   0.5   0.5   0.5   0.0   0.0   0.3   0.6   0.6   0.5   0.5  0.51  0.35  0.52  0.00  0.00   68.72   67.43    0.28    0.00    1.29
 1991 356   136     2     2     8.9   18.0   15507    8.9    9.1   0.6   0.4   0.5   0.5   0.4   0.5   0.5   0.5   0.0   0.0   0.2   0.6   0.6   0.5   0.5  0.52  0.35  0.52  0.00  0.00   69.42   67.81    0.28    0.00    1.29
 1991 357   137     2     2     8.9   18.1   15506    9.2    8.9   0.0   0.5   0.5   0.5   0.4   0.5   0.5   0.6   0.0   0.0   0.1   0.5   0.5   0.5   0.5  0.50  0.35  0.53  0.00  0.00   70.13   68.27    0.29    0.00    1.29
 1991 358   138     2     2     9.0   16.1   15506    6.9    9.2   0.1   0.5   0.2   0.3   0.4   0.2   0.5   0.6   0.0   0.0   0.2   0.6   0.6   0.5   0.5  0.51  0.35  0.53  0.00  0.00   70.83   68.48    0.29    0.00    1.30
 1991 359   139     2     2     9.1   15.8   15505    6.7    9.1   0.2   0.5   0.3   0.3   0.4   0.2   0.5   0.4   0.0   0.0   0.1   0.6   0.6   0.5   0.5  0.51  0.35  0.53  0.00  0.00   71.55   68.83    0.29    0.00    1.30
 1991 360   140     2     2     9.1   16.2   15504    7.2    9.0   0.3   0.6   0.3   0.3   0.4   0.3   0.5   0.4   0.0   0.0   0.1   0.5   0.5   0.5   0.5  0.51  0.35  0.53  0.00  0.00   72.25   69.26    0.29    0.00    1.31
 1991 361   141     2     2     9.1   16.1   15504    7.2    8.9   0.3   0.3   0.3   0.4   0.5   0.3   0.5   0.4   0.0   0.0   0.2   0.5   0.5   0.5   0.5  0.50  0.35  0.53  0.00  0.00   72.92   69.69    0.29    0.00    1.31
 1991 362   142     2     2     9.1   16.6   15503    7.7    8.9   0.4   0.4   0.4   0.4   0.5   0.3   0.5   0.5   0.0   0.0   0.2   0.5   0.5   0.5   0.5  0.51  0.35  0.53  0.00  0.00   73.59   70.17    0.29    0.00    1.32
[...]
 1995 342   122     2     2     7.5   17.1   15515    8.2    8.9   0.4   0.5   0.4   0.3   0.4   0.4   0.5   0.5   0.0   0.0   0.1   0.5   0.5   0.5   0.5  0.50  0.40  0.53  0.00  0.00   60.60   63.66    0.51    0.00    1.03
 1995 343   123     2     2     7.5   17.6   15514    8.7    8.9   0.5   0.6   0.4   0.4   0.4   0.4   0.5   0.5   0.0   0.0   0.1   0.5   0.5   0.5   0.5  0.50  0.40  0.53  0.00  0.00   61.20   64.17    0.51    0.00    1.03
 1995 344   124     2     2     7.5   16.9   15514    8.1    8.8   0.3   0.4   0.5   0.4   0.4   0.4   0.4   0.4   0.0   0.0   0.1   0.5   0.5   0.5   0.5  0.50  0.39  0.53  0.00  0.00   61.76   64.65    0.51    0.00    1.04
 1995 345   125     2     2     7.5   17.4   15513    8.4    9.0   0.4   0.4   0.5   0.4   0.5   0.4   0.4   0.5   0.0   0.0   0.2   0.6   0.5   0.5   0.4  0.51  0.39  0.53  0.00  0.00   62.37   65.01    0.51    0.00    1.04
 1995 346   126     2     2     7.5   17.3   15512    8.4    8.9   0.5   0.5   0.3   0.4   0.5   0.4   0.4   0.5   0.0   0.0   0.1   0.5   0.5   0.5   0.4  0.51  0.39  0.53  0.00  0.00   62.97   65.51    0.51    0.00    1.05
 1995 347   127     2     2     7.5   17.5   15512    8.6    8.9   0.6   0.5   0.3   0.5   0.5   0.5   0.4   0.4   0.0   0.0   0.1   0.5   0.5   0.5   0.4  0.51  0.39  0.53  0.00  0.00   63.54   65.96    0.51    0.00    1.05
 1995 348   128     2     2     7.5   17.0   15511    8.2    8.8   0.4   0.3   0.3   0.5   0.4   0.5   0.4   0.5   0.0   0.0   0.1   0.5   0.5   0.5   0.4  0.51  0.38  0.53  0.00  0.00   64.11   66.44    0.51    0.00    1.05
 1995 349   129     2     2     7.5   17.4   15511    8.7    8.7   0.3   0.4   0.4   0.5   0.4   0.5   0.4   0.5   0.0   0.0   0.1   0.5   0.5   0.5   0.4  0.50  0.38  0.53  0.00  0.00   64.65   66.93    0.51    0.00    1.06
 1995 350   130     2     2     7.5   17.5   15510    8.6    8.9   0.3   0.5   0.5   0.4   0.4   0.5   0.5   0.5   0.0   0.0   0.2   0.6   0.5   0.5   0.4  0.50  0.38  0.52  0.00  0.00   65.26   67.30    0.51    0.00    1.06
 1995 351   131     2     2     7.5   17.7   15510    9.0    8.7   0.4   0.6   0.5   0.4   0.5   0.5   0.5   0.5   0.0   0.0   0.1   0.5   0.5   0.5   0.4  0.50  0.38  0.52  0.00  0.00   65.88   67.86    0.51    0.00    1.07
 1995 352   132     2     2     7.5   17.8   15509    9.2    8.7   0.6   0.3   0.5   0.4   0.5   0.5   0.5   0.5   0.0   0.0   0.1   0.5   0.5   0.5   0.4  0.50  0.37  0.52  0.00  0.00   66.50   68.42    0.51    0.00    1.07
 1995 353   133     2     2     7.5   17.6   15509    9.1    8.6   0.2   0.5   0.3   0.5   0.5   0.5   0.5   0.5   0.0   0.0   0.1   0.5   0.5   0.5   0.4  0.50  0.37  0.52  0.00  0.00   67.08   68.99    0.51    0.00    1.08
 1995 354   134     2     2     7.5   17.4   15508    8.7    8.7   0.3   0.3   0.4   0.5   0.4   0.5   0.5   0.5   0.0   0.0   0.2   0.6   0.5   0.5   0.4  0.50  0.37  0.52  0.00  0.00   67.74   69.42    0.51    0.00    1.08
 1995 355   135     2     2     7.5   17.5   15507    9.0    8.5   0.4   0.4   0.4   0.5   0.5   0.5   0.5   0.5   0.0   0.0   0.1   0.5   0.5   0.5   0.4  0.50  0.36  0.52  0.00  0.00   68.40   70.07    0.51    0.00    1.08
 1995 356   136     2     2     7.5   17.6   15507    9.1    8.5   0.3   0.5   0.5   0.4   0.5   0.5   0.5   0.5   0.0   0.0   0.1   0.5   0.5   0.5   0.4  0.50  0.36  0.51  0.00  0.00   69.04   70.66    0.51    0.00    1.09
 1995 357   137     2     2     7.5   17.5   15506    8.8    8.7   0.2   0.4   0.2   0.5   0.6   0.5   0.5   0.5   0.0   0.0   0.2   0.6   0.6   0.5   0.4  0.50  0.36  0.51  0.00  0.00   69.72   71.01    0.51    0.00    1.09
 1995 358   138     2     2     7.5   16.7   15506    7.9    8.8   0.1   0.3   0.3   0.3   0.3   0.5   0.5   0.5   0.0   0.0   0.3   0.6   0.6   0.5   0.4  0.50  0.35  0.51  0.00  0.00   70.36   71.28    0.51    0.00    1.09
 1995 359   139     2     2     7.5   15.9   15505    7.0    8.9   0.1   0.3   0.3   0.3   0.3   0.3   0.5   0.5   0.0   0.0   0.3   0.6   0.6   0.5   0.4  0.50  0.35  0.51  0.00  0.00   71.00   71.53    0.51    0.00    1.10
 1995 360   140     2     2     7.5   16.2   15505    7.3    8.9   0.2   0.3   0.3   0.3   0.3   0.3   0.5   0.5   0.0   0.0   0.3   0.6   0.6   0.5   0.4  0.50  0.35  0.51  0.00  0.00   71.62   71.80    0.51    0.00    1.10
 1995 361   141     2     2     7.5   16.2   15504    7.4    8.8   0.4   0.4   0.3   0.3   0.3   0.4   0.5   0.5   0.0   0.0   0.2   0.5   0.5   0.5   0.5  0.51  0.35  0.51  0.00  0.00   72.22   72.24    0.51    0.00    1.10
 1995 362   142     2     2     7.5   16.6   15504    7.8    8.8   0.5   0.5   0.3   0.3   0.3   0.4   0.5   0.5   0.0   0.0   0.2   0.5   0.5   0.5   0.5  0.51  0.34  0.51  0.00  0.00   72.80   72.69    0.51    0.00    1.11
 1995 363   143     2     2     7.5   16.7   15503    8.0    8.7   0.4   0.5   0.3   0.3   0.4   0.4   0.5   0.5   0.0   0.0   0.2   0.5   0.5   0.5   0.5  0.50  0.34  0.51  0.00  0.00   73.40   73.14    0.51    0.00    1.11
 1995 364   144     2     2     7.5   16.7   15503    8.0    8.7   0.5   0.3   0.4   0.4   0.4   0.4   0.5   0.5   0.0   0.0   0.1   0.5   0.5   0.5   0.5  0.51  0.34  0.51  0.00  0.00   74.00   73.60    0.51    0.00    1.11
 1995 365   145     2     2     7.5   17.2   15502    8.4    8.7   0.5   0.4   0.4   0.4   0.4   0.4   0.5   0.5   0.0   0.0   0.1   0.5   0.5   0.5   0.5  0.51  0.34  0.51  0.00  0.00   74.58   74.08    0.51    0.00    1.12
 1996 001   146     2     2     7.5   17.4   15502    8.8    8.6   0.3   0.6   0.5   0.4   0.4   0.4   0.5   0.5   0.0   0.0   0.1   0.5   0.5   0.5   0.5  0.50  0.34  0.51  0.00  0.00   75.15   74.54    0.51    0.00    1.12
 1996 002   147     2     2     7.5   17.4   15501    8.6    8.8   0.3   0.3   0.5   0.5   0.5   0.4   0.5   0.5   0.0   0.0   0.2   0.6   0.5   0.5   0.5  0.51  0.33  0.51  0.00  0.00   75.79   74.91    0.51    0.00    1.13
 1996 003   148     2     2     7.5   17.4   15501    8.6    8.7   0.5   0.3   0.3   0.5   0.5   0.4   0.5   0.5   0.0   0.0   0.1   0.5   0.5   0.5   0.5  0.51  0.33  0.52  0.00  0.00   76.45   75.44    0.51    0.00    1.13
 1996 004   149     2     2     7.5   17.7   15500    9.1    8.7   0.5   0.5   0.3   0.5   0.5   0.4   0.5   0.5   0.0   0.0   0.1   0.5   0.5   0.5   0.5  0.50  0.33  0.51  0.00  0.00   77.10   75.97    0.51    0.00    1.14
 1996 005   150     2     2     7.5   16.8   15500    8.0    8.8   0.5   0.5   0.4   0.3   0.3   0.4   0.5   0.5   0.0   0.0   0.2   0.6   0.5   0.5   0.5  0.51  0.33  0.52  0.00  0.00   77.77   76.38    0.51    0.00    1.14
 1996 006   151     2     2     7.5   17.3   15499    8.6    8.7   0.7   0.6   0.4   0.3   0.3   0.4   0.5   0.5   0.0   0.0   0.1   0.5   0.5   0.5   0.5  0.51  0.33  0.51  0.00  0.00   78.42   76.96    0.51    0.00    1.14
 1996 007   152     2     2     7.5   16.9   15499    8.3    8.7   0.4   0.3   0.4   0.3   0.3   0.5   0.5   0.5   0.0   0.0   0.1   0.5   0.5   0.5   0.5  0.50  0.32  0.52  0.00  0.00   79.05   77.48    0.51    0.00    1.15
 1996 008   153     2     2     7.5   17.2   15498    8.7    8.6   0.5   0.4   0.5   0.4   0.4   0.5   0.5   0.5   0.0   0.0   0.1   0.5   0.5   0.5   0.5  0.51  0.32  0.51  0.00  0.00   79.62   77.97    0.51    0.00    1.15
 1996 009   154     2     2     7.5   17.6   15498    9.1    8.6   0.3   0.5   0.5   0.4   0.4   0.5   0.5   0.5   0.0   0.0   0.1   0.5   0.5   0.5   0.5  0.51  0.32  0.52  0.00  0.00   80.14   78.44    0.51    0.00    1.16
 1996 010   155     2     2     7.5   17.1   15497    8.4    8.7   0.3   0.2   0.3   0.4   0.4   0.5   0.5   0.5   0.0   0.0   0.2   0.6   0.5   0.5   0.5  0.51  0.32  0.51  0.00  0.00   80.73   78.80    0.51    0.00    1.16
 1996 011   156     2     2     7.5   17.5   15497    8.9    8.6   0.3   0.3   0.4   0.5   0.5   0.5   0.5   0.5   0.0   0.0   0.2   0.5   0.5   0.5   0.5  0.51  0.32  0.51  0.00  0.00   81.34   79.32    0.51    0.00    1.16
 1996 012   157     2     2     7.5   17.9   15496    9.1    8.8   0.3   0.3   0.4   0.5   0.5   0.5   0.5   0.5   0.0   0.0   0.2   0.6   0.6   0.5   0.5  0.51  0.31  0.51  0.00  0.00   81.97   79.65    0.51    0.00    1.17
 1996 013   158     2     2     7.5   17.4   15496    8.8    8.6   0.5   0.4   0.4   0.3   0.5   0.5   0.5   0.5   0.0   0.0   0.2   0.5   0.5   0.5   0.5  0.50  0.31  0.51  0.00  0.00   82.62   80.20    0.51    0.00    1.17
 1996 014   159     2     2     7.5   17.3   15495    8.8    8.6   0.6   0.5   0.4   0.3   0.3   0.5   0.5   0.5   0.0   0.0   0.1   0.5   0.5   0.5   0.5  0.50  0.31  0.51  0.00  0.00   83.26   80.70    0.51    0.00    1.17
 1996 015   160     2     2     7.5   16.6   15495    8.1    8.5   0.4   0.3   0.5   0.3   0.4   0.4   0.5   0.5   0.0   0.0   0.1   0.5   0.5   0.5   0.4  0.50  0.31  0.51  0.00  0.00   83.88   81.19    0.51    0.00    1.18
 1996 016   161     2     2     7.5   17.0   15494    8.5    8.5   0.4   0.4   0.5   0.4   0.4   0.4   0.5   0.5   0.0   0.0   0.1   0.5   0.5   0.5   0.4  0.50  0.31  0.51  0.00  0.00   84.46   81.65    0.51    0.00    1.18
 1996 017   162     2     2     7.5   17.4   15494    8.9    8.5   0.5   0.5   0.5   0.4   0.4   0.4   0.5   0.5   0.0   0.0   0.1   0.5   0.5   0.5   0.4  0.50  0.31  0.51  0.00  0.00   85.03   82.12    0.51    0.00    1.19
 1996 018   163     2     2     7.5   17.0   15493    8.6    8.5   0.3   0.6   0.3   0.4   0.4   0.4   0.5   0.5   0.0   0.0   0.1   0.5   0.5   0.5   0.4  0.51  0.30  0.51  0.00  0.00   85.57   82.58    0.51    0.00    1.19
 1996 019   164     2     2     7.5   17.0   15493    8.5    8.4   0.3   0.3   0.4   0.4   0.5   0.4   0.5   0.5   0.0   0.0   0.1   0.5   0.5   0.5   0.4  0.51  0.30  0.51  0.00  0.00   86.08   83.03    0.51    0.00    1.19
 1996 020   165     2     2     7.5   17.4   15492    8.8    8.6   0.3   0.3   0.4   0.5   0.5   0.4   0.5   0.5   0.0   0.0   0.2   0.6   0.5   0.5   0.4  0.51  0.30  0.50  0.00  0.00   86.64   83.38    0.51    0.00    1.20
 1996 021   166     2     2     7.5   17.6   15492    9.1    8.5   0.3   0.4   0.5   0.5   0.5   0.5   0.5   0.5   0.0   0.0   0.2   0.5   0.5   0.5   0.4  0.51  0.30  0.51  0.00  0.00   87.21   83.85    0.51    0.00    1.20
 1996 022   167     2     2     7.5   17.0   15491    8.4    8.6   0.3   0.4   0.5   0.3   0.4   0.5   0.5   0.5   0.0   0.0   0.2   0.6   0.6   0.5   0.4  0.51  0.30  0.51  0.00  0.00   87.81   84.18    0.51    0.00    1.21
 1996 023   168     2     2     7.5   17.3   15491    8.8    8.5   0.4   0.5   0.5   0.3   0.4   0.5   0.5   0.5   0.0   0.0   0.2   0.5   0.5   0.5   0.4  0.51  0.30  0.50  0.00  0.00   88.42   84.68    0.51    0.00    1.21
 1996 024   169     2     2     7.5   17.7   15491    9.2    8.4   0.3   0.5   0.6   0.4   0.4   0.5   0.5   0.5   0.0   0.0   0.2   0.5   0.5   0.5   0.4  0.51  0.29  0.51  0.00  0.00   89.03   85.17    0.51    0.00    1.21
 1996 025   170     2     2     7.5   17.1   15490    8.4    8.7   0.2   0.2   0.2   0.5   0.5   0.5   0.5   0.5   0.0   0.0   0.2   0.6   0.6   0.5   0.4  0.51  0.29  0.51  0.00  0.00   89.63   85.44    0.51    0.00    1.22
 1996 026   171     2     2     7.5   17.3   15490    8.6    8.7   0.2   0.2   0.2   0.5   0.6   0.5   0.5   0.5   0.0   0.0   0.3   0.6   0.6   0.5   0.4  0.51  0.29  0.50  0.00  0.00   90.27   85.70    0.51    0.00    1.22
 1996 027   172     2     2     7.5   16.9   15489    8.2    8.8   0.3   0.2   0.2   0.4   0.2   0.5   0.5   0.5   0.0   0.0   0.3   0.6   0.6   0.5   0.5  0.51  0.29  0.51  0.00  0.00   90.88   85.93    0.51    0.00    1.22
 1996 028   173     2     2     7.5   16.1   15489    7.4    8.7   0.4   0.3   0.3   0.4   0.3   0.3   0.5   0.5   0.0   0.0   0.2   0.6   0.6   0.5   0.5  0.51  0.29  0.51  0.00  0.00   91.52   86.30    0.51    0.00    1.23
 1996 029   174     2     2     7.5   16.3   15488    7.7    8.6   0.5   0.3   0.3   0.4   0.3   0.3   0.5   0.6   0.0   0.0   0.2   0.5   0.6   0.5   0.5  0.50  0.29  0.50  0.00  0.00   92.17   86.74    0.51    0.00    1.23
 1996 030   175     2     2     7.5   16.7   15488    8.1    8.7   0.4   0.4   0.3   0.5   0.3   0.3   0.5   0.6   0.0   0.0   0.3   0.6   0.6   0.5   0.5  0.51  0.29  0.51  0.00  0.00   92.83   87.09    0.51    0.00    1.23
 1996 031   176     2     2     7.5   17.1   15487    8.3    8.8   0.4   0.4   0.3   0.5   0.4   0.4   0.5   0.6   0.0   0.0   0.3   0.6   0.6   0.5   0.5  0.51  0.28  0.51  0.00  0.00   93.51   87.40    0.51    0.00    1.24
 1996 032   177     2     2     7.5   17.4   15487    8.8    8.6   0.6   0.4   0.4   0.5   0.4   0.4   0.5   0.6   0.0   0.0   0.2   0.6   0.6   0.5   0.5  0.50  0.28  0.50  0.00  0.00   94.22   87.89    0.51    0.00    1.24
 1996 033   178     2     2     7.5   17.5   15486    9.0    8.6   0.4   0.5   0.4   0.5   0.4   0.4   0.5   0.6   0.0   0.0   0.2   0.5   0.6   0.5   0.5  0.51  0.28  0.51  0.00  0.00   94.92   88.40    0.51    0.00    1.25
 1996 034   179     2     2     7.5   17.1   15486    8.4    8.6   0.5   0.3   0.4   0.3   0.5   0.4   0.5   0.6   0.0   0.0   0.2   0.5   0.6   0.5   0.5  0.51  0.28  0.51  0.00  0.00   95.59   88.88    0.51    0.00    1.25
 1996 035   180     2     2     7.5   17.3   15485    8.7    8.5   0.6   0.4   0.5   0.3   0.5   0.4   0.5   0.6   0.0   0.0   0.1   0.5   0.6   0.5   0.5  0.50  0.28  0.50  0.00  0.00   96.26   89.36    0.51    0.00    1.25
 1996 036   181     2     2     7.5   17.6   15485    9.0    8.5   0.5   0.5   0.5   0.3   0.5   0.4   0.5   0.6   0.0   0.0   0.1   0.5   0.5   0.5   0.5  0.51  0.28  0.51  0.00  0.00   96.91   89.84    0.51    0.00    1.26
 1996 037   182     2     2     7.5   17.4   15484    8.9    8.5   0.6   0.6   0.5   0.4   0.3   0.4   0.5   0.6   0.0   0.0   0.1   0.5   0.5   0.5   0.5  0.51  0.28  0.51  0.00  0.00   97.53   90.32    0.51    0.00    1.26
 1996 038   183     2     2     7.5   16.8   15484    8.3    8.4   0.4   0.4   0.3   0.4   0.3   0.4   0.5   0.6   0.0   0.0   0.1   0.5   0.5   0.5   0.5  0.50  0.28  0.50  0.00  0.00   98.13   90.80    0.51    0.00    1.27
 1996 039   184     2     2     7.5   17.3   15483    8.7    8.6   0.4   0.4   0.4   0.4   0.3   0.4   0.5   0.6   0.0   0.0   0.2   0.6   0.5   0.5   0.5  0.51  0.27  0.51  0.00  0.00   98.82   91.19    0.51    0.00    1.27
 1996 040   185     2     2     7.5   17.7   15483    9.2    8.5   0.5   0.5   0.4   0.5   0.4   0.4   0.5   0.6   0.0   0.0   0.2   0.5   0.5   0.5   0.5  0.51  0.27  0.51  0.00  0.00   99.53   91.76    0.51    0.00    1.28
 1996 041   186     2     2     7.5   18.0   15482    9.4    8.5   0.6   0.5   0.4   0.5   0.4   0.5   0.5   0.7   0.0   0.0   0.2   0.5   0.5   0.5   0.5  0.51  0.27  0.51  0.00  0.00  100.21   92.29    0.51    0.00    1.28
 1996 042   187     2     2     7.5   18.1   15482    9.6    8.5   0.4   0.5   0.5   0.5   0.4   0.5   0.5   0.7   0.0   0.0   0.1   0.5   0.5   0.5   0.5  0.50  0.27  0.50  0.00  0.00  100.88   92.81    0.51    0.00    1.28
 1996 043   188     2     2     7.5   17.5   15481    9.0    8.4   0.5   0.3   0.5   0.3   0.5   0.5   0.5   0.7   0.0   0.0   0.1   0.5   0.5   0.5   0.5  0.50  0.27  0.51  0.00  0.00  101.49   93.30    0.51    0.00    1.29
 1996 044   189     2     2     7.5   17.9   15481    9.4    8.4   0.3   0.5   0.6   0.3   0.5   0.5   0.5   0.7   0.0   0.0   0.1   0.5   0.5   0.5   0.5  0.51  0.27  0.51  0.00  0.00  102.02   93.75    0.51    0.00    1.29
 1996 045   190     2     2     7.5   17.2   15481    8.6    8.6   0.3   0.5   0.3   0.3   0.3   0.5   0.5   0.7   0.0   0.0   0.2   0.6   0.5   0.5   0.5  0.51  0.27  0.51  0.00  0.00  102.60   94.10    0.51    0.00    1.30
 1996 046   191     2     2     7.5   17.5   15480    9.0    8.5   0.4   0.5   0.3   0.4   0.3   0.5   0.5   0.7   0.0   0.0   0.2   0.5   0.5   0.5   0.5  0.51  0.27  0.50  0.00  0.00  103.19   94.56    0.51    0.00    1.30
 1996 047   192     2     2     7.5   17.4   15480    8.9    8.4   0.5   0.3   0.4   0.4   0.4   0.5   0.5   0.7   0.0   0.0   0.2   0.5   0.5   0.5   0.5  0.51  0.27  0.51  0.00  0.00  103.75   95.01    0.51    0.00    1.31
 1996 048   193     2     2     7.5   17.6   15479    9.2    8.4   0.4   0.4   0.4   0.4   0.4   0.5   0.5   0.7   0.0   0.0   0.1   0.5   0.5   0.5   0.5  0.51  0.26  0.51  0.00  0.00  104.31   95.49    0.51    0.00    1.32
 1996 049   194     2     2     7.5   17.5   15479    9.2    8.3   0.3   0.5   0.4   0.4   0.4   0.4   0.5   0.7   0.0   0.0   0.1   0.5   0.5   0.5   0.5  0.50  0.26  0.51  0.00  0.00  104.84   95.97    0.51    0.00    1.32
 1996 050   195     2     2     7.5   17.7   15478    9.2    8.5   0.3   0.3   0.5   0.5   0.5   0.4   0.5   0.7   0.0   0.0   0.2   0.6   0.5   0.5   0.5  0.50  0.26  0.51  0.00  0.00  105.46   96.34    0.51    0.00    1.33
 1996 051   196     2     2     7.5   18.0   15478    9.7    8.4   0.5   0.3   0.5   0.5   0.5   0.4   0.5   0.7   0.0   0.0   0.2   0.5   0.5   0.5   0.5  0.50  0.26  0.50  0.00  0.00  106.10   96.89    0.51    0.00    1.33
 1996 052   197     2     2     7.5   18.3   15478    9.9    8.4   0.6   0.4   0.5   0.5   0.5   0.5   0.5   0.7   0.0   0.0   0.2   0.5   0.5   0.5   0.5  0.50  0.26  0.50  0.00  0.00  106.71   97.40    0.51    0.00    1.33
 1996 053   198     2     2     7.5   17.6   15477    9.3    8.3   0.1   0.6   0.5   0.4   0.4   0.5   0.5   0.7   0.0   0.0   0.1   0.5   0.5   0.5   0.5  0.50  0.26  0.51  0.00  0.00  107.31   97.90    0.51    0.00    1.34
 1996 054   199     2     2     7.5   17.1   15477    8.7    8.4   0.1   0.2   0.3   0.4   0.4   0.5   0.5   0.8   0.0   0.0   0.2   0.6   0.5   0.5   0.5  0.50  0.26  0.51  0.00  0.00  107.94   98.29    0.51    0.00    1.35
 1996 055   200     2     2     7.5   17.6   15476    9.1    8.5   0.2   0.3   0.4   0.4   0.5   0.5   0.5   0.8   0.0   0.0   0.2   0.6   0.6   0.5   0.5  0.50  0.26  0.51  0.00  0.00  108.59   98.71    0.51    0.00    1.35
 1996 056   201     2     2     7.5   18.2   15476    9.5    8.7   0.2   0.3   0.4   0.5   0.5   0.5   0.5   0.8   0.0   0.0   0.3   0.7   0.6   0.5   0.4  0.50  0.26  0.51  0.00  0.00  109.23   99.07    0.51    0.00    1.35
 1996 057   202     2     2     7.5   18.8   15475    9.8    9.0   0.3   0.3   0.4   0.5   0.5   0.5   0.5   0.8   0.0   0.0   0.3   0.7   0.7   0.5   0.4  0.51  0.25  0.51  0.00  0.00  109.88   99.46    0.51    0.00    1.36
 1996 058   203     2     2     7.5   18.7   15475   10.4    8.3   0.5   0.4   0.4   0.5   0.5   0.5   0.5   0.9   0.0   0.0   0.2   0.5   0.5   0.5   0.4  0.51  0.25  0.51  0.00  0.00  110.55  100.07    0.51    0.00    1.37
 1996 059   204     2     2     7.5   19.0   15474   10.7    8.3   0.3   0.5   0.5   0.6   0.5   0.5   0.5   0.9   0.0   0.0   0.1   0.5   0.6   0.5   0.4  0.51  0.25  0.51  0.00  0.00  111.18  100.56    0.51    0.00    1.38
 1996 060   205     2     2     7.5   19.6   15474   10.9    8.7   0.3   0.5   0.5   0.6   0.6   0.5   0.5   0.9   0.0   0.0   0.2   0.6   0.6   0.5   0.4  0.51  0.25  0.51  0.00  0.00  111.81  100.82    0.51    0.00    1.39
 1996 061   206     2     2     7.5   20.3   15473   11.3    9.0   0.4   0.5   0.5   0.6   0.7   0.5   0.5   1.0   0.0   0.0   0.2   0.7   0.7   0.6   0.5  0.51  0.25  0.51  0.00  0.00  112.51  101.18    0.51    0.00    1.39
 1996 062   207     2     2     7.5   21.0   15473   11.8    9.2   0.5   0.6   0.5   0.6   0.7   0.5   0.5   1.0   0.0   0.0   0.1   0.7   0.8   0.6   0.5  0.51  0.25  0.51  0.00  0.00  113.22  101.67    0.51    0.00    1.40
 1996 063   208     2     2     7.5   21.7   15472   12.3    9.4   0.6   0.7   0.6   0.6   0.7   0.6   0.5   1.0   0.0   0.0   0.1   0.7   0.8   0.6   0.5  0.51  0.25  0.52  0.00  0.00  113.92  102.20    0.51    0.00    1.41
 1996 064   209     2     2     7.5   22.4   15472   12.8    9.6   0.7   0.8   0.6   0.7   0.8   0.6   0.5   1.1   0.0   0.0   0.1   0.7   0.9   0.6   0.5  0.51  0.25  0.52  0.00  0.00  114.60  102.72    0.51    0.00    1.41
