*SOIL N BALANCE - CERES SOIL N&C ROUTINES

*DSSAT Cropping System Model Ver. 4.0.2.000               Aug 11, 2016; 19:59:12

*RUN   1        : UYSB                    
 MODEL          : CRGRO040 - Soybean         
 EXPERIMENT     : UYSB0145 SB    late to create DSS                             
 TREATMENT  1   : UYSB                    



                                         INITIAL Year/Doy      FINAL Year/Doy
                                                 1990/220            1991/061
SOIL N BALANCE                                  -----------kg N/ha-----------

   Soil Humus N                                  15574.50            15464.06
   Soil Litter N                                     0.00                0.14
   N in Surface Residue                              0.00                0.30
   Soil NO3                                         25.10               99.65
   Soil NH4                                         28.66               18.01
   Soil Urea                                         0.00                0.00

   Added to / Removed from Soil:
   N in Harvest Residues from Previous Crop          0.00
   N from Organic Applications                       0.00
   N from senesced plant matter                      0.44
   Fertilizer N                                      2.00
   Leached NO3                                                          43.59
   N Denitrified                                                         3.63
   N Uptake From Soil                                                    0.24
   Ammonia volatilization                                                1.08

   Total N balance                               15630.71            15630.71

================================================================================

*DSSAT Cropping System Model Ver. 4.0.2.000               Aug 11, 2016; 19:59:12

*RUN   2        : UYSB                    
 MODEL          : CRGRO040 - Soybean         
 EXPERIMENT     : UYSB0145 SB    late to create DSS                             
 TREATMENT  1   : UYSB                    



                                         INITIAL Year/Doy      FINAL Year/Doy
                                                 1991/220            1992/057
SOIL N BALANCE                                  -----------kg N/ha-----------

   Soil Humus N                                  15574.50            15470.96
   Soil Litter N                                     0.00               12.04
   N in Surface Residue                              0.00              156.56
   Soil NO3                                         25.10               12.20
   Soil NH4                                         28.66               10.65
   Soil Urea                                         0.00                0.00

   Added to / Removed from Soil:
   N in Harvest Residues from Previous Crop          0.00
   N from Organic Applications                       0.00
   N from senesced plant matter                    179.49
   Fertilizer N                                      2.00
   Leached NO3                                                           9.06
   N Denitrified                                                         0.30
   N Uptake From Soil                                                  136.37
   Ammonia volatilization                                                1.61

   Total N balance                               15809.75            15809.75

================================================================================

*DSSAT Cropping System Model Ver. 4.0.2.000               Aug 11, 2016; 19:59:12

*RUN   3        : UYSB                    
 MODEL          : CRGRO040 - Soybean         
 EXPERIMENT     : UYSB0145 SB    late to create DSS                             
 TREATMENT  1   : UYSB                    



                                         INITIAL Year/Doy      FINAL Year/Doy
                                                 1992/220            1993/068
SOIL N BALANCE                                  -----------kg N/ha-----------

   Soil Humus N                                  15574.50            15468.14
   Soil Litter N                                     0.00               12.68
   N in Surface Residue                              0.00              155.27
   Soil NO3                                         25.10               11.66
   Soil NH4                                         28.66                9.29
   Soil Urea                                         0.00                0.00

   Added to / Removed from Soil:
   N in Harvest Residues from Previous Crop          0.00
   N from Organic Applications                       0.00
   N from senesced plant matter                    181.11
   Fertilizer N                                      2.00
   Leached NO3                                                           1.13
   N Denitrified                                                         0.04
   N Uptake From Soil                                                  151.65
   Ammonia volatilization                                                1.51

   Total N balance                               15811.38            15811.38

================================================================================

*DSSAT Cropping System Model Ver. 4.0.2.000               Aug 11, 2016; 19:59:12

*RUN   4        : UYSB                    
 MODEL          : CRGRO040 - Soybean         
 EXPERIMENT     : UYSB0145 SB    late to create DSS                             
 TREATMENT  1   : UYSB                    



                                         INITIAL Year/Doy      FINAL Year/Doy
                                                 1993/220            1994/061
SOIL N BALANCE                                  -----------kg N/ha-----------

   Soil Humus N                                  15574.50            15470.11
   Soil Litter N                                     0.00               12.81
   N in Surface Residue                              0.00              164.05
   Soil NO3                                         25.10               12.05
   Soil NH4                                         28.66                9.91
   Soil Urea                                         0.00                0.00

   Added to / Removed from Soil:
   N in Harvest Residues from Previous Crop          0.00
   N from Organic Applications                       0.00
   N from senesced plant matter                    187.74
   Fertilizer N                                      2.00
   Leached NO3                                                           8.97
   N Denitrified                                                         0.52
   N Uptake From Soil                                                  138.23
   Ammonia volatilization                                                1.35

   Total N balance                               15818.00            15818.00

================================================================================

*DSSAT Cropping System Model Ver. 4.0.2.000               Aug 11, 2016; 19:59:12

*RUN   5        : UYSB                    
 MODEL          : CRGRO040 - Soybean         
 EXPERIMENT     : UYSB0145 SB    late to create DSS                             
 TREATMENT  1   : UYSB                    



                                         INITIAL Year/Doy      FINAL Year/Doy
                                                 1994/220            1995/059
SOIL N BALANCE                                  -----------kg N/ha-----------

   Soil Humus N                                  15574.50            15477.64
   Soil Litter N                                     0.00               14.95
   N in Surface Residue                              0.00              166.06
   Soil NO3                                         25.10               11.76
   Soil NH4                                         28.66                9.16
   Soil Urea                                         0.00                0.00

   Added to / Removed from Soil:
   N in Harvest Residues from Previous Crop          0.00
   N from Organic Applications                       0.00
   N from senesced plant matter                    190.14
   Fertilizer N                                      2.00
   Leached NO3                                                          10.19
   N Denitrified                                                         0.71
   N Uptake From Soil                                                  128.53
   Ammonia volatilization                                                1.38

   Total N balance                               15820.40            15820.40

================================================================================

*DSSAT Cropping System Model Ver. 4.0.2.000               Aug 11, 2016; 19:59:12

*RUN   6        : UYSB                    
 MODEL          : CRGRO040 - Soybean         
 EXPERIMENT     : UYSB0145 SB    late to create DSS                             
 TREATMENT  1   : UYSB                    



                                         INITIAL Year/Doy      FINAL Year/Doy
                                                 1995/220            1996/064
SOIL N BALANCE                                  -----------kg N/ha-----------

   Soil Humus N                                  15574.50            15472.06
   Soil Litter N                                     0.00               14.22
   N in Surface Residue                              0.00              165.73
   Soil NO3                                         25.10               12.83
   Soil NH4                                         28.66                9.55
   Soil Urea                                         0.00                0.00

   Added to / Removed from Soil:
   N in Harvest Residues from Previous Crop          0.00
   N from Organic Applications                       0.00
   N from senesced plant matter                    192.10
   Fertilizer N                                      2.00
   Leached NO3                                                           7.54
   N Denitrified                                                         0.51
   N Uptake From Soil                                                  138.51
   Ammonia volatilization                                                1.41

   Total N balance                               15822.36            15822.36
