*SOIL-PLANT-ATMOSPHERE MODULE OUTPUT FILE

*DSSAT Cropping System Model Ver. 4.0.2.000               Jul 19, 2016; 16:28:18

*RUN   1        : UYMZ                    
 MODEL          : MZCER040 - Maize           
 EXPERIMENT     : UYMZ0034 MZ    late to create DSS                             
 TREATMENT  1   : UYMZ                    

@YEAR DOY   DAS   SRAA   TMXA   TMNA   EOAA   ETAA   EPAA   ESAA   EFAD   ETAC   EPAC   ESAC   EFAC
 1990 191     0  11.20  16.30   7.00  2.298  2.298  0.000  2.298  0.000    2.3    0.0    2.3    0.0
 1990 192     1  11.90  19.40   6.80  2.546  1.394  0.000  1.394  0.000    3.7    0.0    3.7    0.0
 1990 193     2  12.10  19.60   5.20  2.558  1.087  0.000  1.087  0.000    4.8    0.0    4.8    0.0
 1990 194     3  12.20  20.20   5.20  2.601  0.922  0.000  0.922  0.000    5.7    0.0    5.7    0.0
 1990 195     4   8.90  20.60   6.80  1.936  0.816  0.000  0.816  0.000    6.5    0.0    6.5    0.0
 1990 196     5   9.70  21.50  10.80  2.212  2.212  0.000  2.212  0.000    8.7    0.0    8.7    0.0
 1990 197     6   3.50  13.00  10.70  0.710  0.710  0.000  0.710  0.000    9.4    0.0    9.4    0.0
 1990 198     7   3.70  12.80  10.00  0.743  0.743  0.000  0.743  0.000   10.2    0.0   10.2    0.0
 1990 199     8  10.10   9.80   4.80  1.834  1.834  0.000  1.834  0.000   12.0    0.0   12.0    0.0
 1990 200     9  12.40   8.40   3.60  2.171  2.103  0.000  2.103  0.000   14.1    0.0   14.1    0.0
 1990 201    10  12.30   8.80   4.20  2.183  2.183  0.000  2.183  0.000   16.3    0.0   16.3    0.0
 1990 202    11   5.60   8.60   2.60  0.973  0.973  0.000  0.973  0.000   17.3    0.0   17.3    0.0
 1990 203    12  12.60  10.20   0.80  2.204  1.524  0.000  1.524  0.000   18.8    0.0   18.8    0.0
 1990 204    13   7.90  11.80  -2.60  1.366  1.144  0.000  1.144  0.000   19.9    0.0   19.9    0.0
 1990 205    14  10.60  12.50  -1.40  1.880  0.956  0.000  0.956  0.000   20.9    0.0   20.9    0.0
 1990 206    15  10.40  16.40   1.40  2.022  0.839  0.000  0.839  0.000   21.7    0.0   21.7    0.0
 1990 207    16  10.20  14.00   4.10  1.965  0.756  0.000  0.756  0.000   22.5    0.0   22.5    0.0
 1990 208    17   9.60  10.20   2.40  1.709  0.694  0.000  0.694  0.000   23.2    0.0   23.2    0.0
 1990 209    18   4.40  10.80   1.00  0.779  0.645  0.000  0.645  0.000   23.8    0.0   23.8    0.0
 1990 210    19  12.30  11.80   3.40  2.273  0.605  0.000  0.605  0.000   24.4    0.0   24.4    0.0
 1990 211    20  12.50  15.20   1.80  2.396  0.572  0.000  0.572  0.000   25.0    0.0   25.0    0.0
 1990 212    21   9.10  15.60   2.80  1.773  0.544  0.000  0.544  0.000   25.6    0.0   25.6    0.0
 1990 213    22  13.10  17.80   5.00  2.694  0.519  0.000  0.519  0.000   26.1    0.0   26.1    0.0
 1990 214    23  12.20  19.20   4.80  2.555  0.498  0.000  0.498  0.000   26.6    0.0   26.6    0.0
 1990 215    24  13.70  20.00   6.00  2.934  0.479  0.000  0.479  0.000   27.0    0.0   27.0    0.0
 1990 216    25  12.90  22.60   6.20  2.867  0.462  0.000  0.462  0.000   27.5    0.0   27.5    0.0
 1990 217    26  12.10  23.60  11.00  2.840  0.446  0.000  0.446  0.000   28.0    0.0   28.0    0.0
 1990 218    27  12.00  25.20  14.00  2.944  0.433  0.000  0.433  0.000   28.4    0.0   28.4    0.0
 1990 219    28  13.00  25.80  16.20  3.269  0.420  0.000  0.420  0.000   28.8    0.0   28.8    0.0
 1990 220    29  10.30  17.60  11.20  2.238  0.414  0.005  0.408  0.000   29.2    0.0   29.2    0.0
 1990 221    30   9.20  14.60   7.80  1.855  0.404  0.006  0.398  0.000   29.6    0.0   29.6    0.0
 1990 222    31  12.00  21.20   6.40  2.621  0.398  0.010  0.388  0.000   30.0    0.0   30.0    0.0
 1990 223    32  14.00  28.40  13.40  3.549  0.596  0.018  0.579  0.000   30.6    0.0   30.6    0.0
 1990 224    33  14.20  24.40  13.00  3.419  0.396  0.026  0.370  0.000   31.0    0.1   31.0    0.0
 1990 225    34  10.70  25.00  12.80  2.590  1.466  0.026  1.440  0.000   32.5    0.1   32.4    0.0
 1990 226    35   4.40  15.00  11.20  0.921  0.921  0.012  0.909  0.000   33.4    0.1   33.3    0.0
 1990 227    36  11.70  13.80   6.40  2.296  0.610  0.031  0.579  0.000   34.0    0.1   33.9    0.0
 1990 228    37  15.10  20.40   3.60  3.174  0.595  0.045  0.550  0.000   34.6    0.2   34.4    0.0
 1990 229    38  15.20  19.80   7.20  3.274  0.579  0.055  0.525  0.000   35.2    0.2   35.0    0.0
 1990 230    39  14.90  18.00   7.00  3.122  0.570  0.067  0.502  0.000   35.8    0.3   35.5    0.0
 1990 231    40  15.60  20.40   7.60  3.396  0.570  0.087  0.483  0.000   36.3    0.4   35.9    0.0
 1990 232    41  16.70  17.50   5.80  3.431  0.572  0.107  0.466  0.000   36.9    0.5   36.4    0.0
 1990 233    42   7.50  15.00   7.60  1.511  0.502  0.053  0.450  0.000   37.4    0.5   36.9    0.0
 1990 234    43  16.10  13.80   4.70  3.094  0.553  0.117  0.436  0.000   38.0    0.7   37.3    0.0
 1990 235    44  16.00  15.20   0.20  2.999  0.538  0.115  0.423  0.000   38.5    0.8   37.7    0.0
 1990 236    45  15.40  19.00   3.90  3.176  0.497  0.086  0.411  0.000   39.0    0.9   38.1    0.0
 1990 237    46  15.60  22.60   8.40  3.519  0.506  0.106  0.400  0.000   39.5    1.0   38.5    0.0
 1990 238    47  13.50  23.80  11.80  3.179  0.515  0.125  0.390  0.000   40.0    1.1   38.9    0.0
 1990 239    48  10.10  13.60   8.00  1.996  1.702  0.102  1.600  0.000   41.7    1.2   40.5    0.0
 1990 240    49   9.70   9.80   2.30  1.700  0.483  0.093  0.390  0.000   42.2    1.3   40.9    0.0
 1990 241    50  15.90  15.00  -1.40  2.917  0.519  0.138  0.381  0.000   42.7    1.4   41.3    0.0
 1990 242    51  13.50  16.00   4.80  2.690  0.433  0.061  0.372  0.000   43.2    1.5   41.7    0.0
 1990 243    52   5.20   9.80   2.80  0.920  0.920  0.024  0.896  0.000   44.1    1.5   42.6    0.0
 1990 244    53  14.00   9.60  -0.20  2.388  0.445  0.055  0.389  0.000   44.5    1.6   42.9    0.0
 1990 245    54  16.40  13.60  -2.80  2.911  0.422  0.042  0.380  0.000   44.9    1.6   43.3    0.0
 1990 246    55  17.10  16.40  -0.50  3.259  0.383  0.011  0.371  0.000   45.3    1.6   43.7    0.0
 1990 247    56   7.10  16.20   7.20  1.457  0.369  0.005  0.363  0.000   45.7    1.6   44.1    0.0
 1990 248    57   9.90  17.00  10.80  2.123  0.374  0.019  0.356  0.000   46.1    1.6   44.4    0.0
 1990 249    58   5.50  16.00  10.20  1.155  1.155  0.020  1.136  0.000   47.2    1.7   45.6    0.0
 1990 250    59   5.50  17.00  12.30  1.193  1.193  0.029  1.164  0.000   48.4    1.7   46.7    0.0
 1990 251    60   7.50  15.20  12.00  1.580  1.580  0.054  1.526  0.000   50.0    1.8   48.2    0.0
 1990 252    61  18.00  24.20   9.80  4.189  3.904  0.166  3.738  0.000   53.9    1.9   52.0    0.0
 1990 253    62  12.40  22.00  12.90  2.873  2.873  0.168  2.705  0.000   56.8    2.1   54.7    0.0
 1990 254    63  13.80  14.20   7.10  2.717  2.717  0.207  2.510  0.000   59.5    2.3   57.2    0.0
 1990 255    64  16.40  12.00   5.90  3.078  2.273  0.281  1.993  0.000   61.8    2.6   59.2    0.0
 1990 256    65  17.50  16.00   3.40  3.403  2.813  0.318  2.495  0.000   64.6    2.9   61.7    0.0
 1990 257    66  20.00  16.00   0.80  3.789  1.740  0.348  1.392  0.000   66.3    3.2   63.1    0.0
 1990 258    67  20.20  19.80   4.00  4.190  1.385  0.298  1.086  0.000   67.7    3.5   64.2    0.0
 1990 259    68  17.50  21.20   6.60  3.786  1.218  0.295  0.922  0.000   68.9    3.8   65.1    0.0
 1990 260    69  12.60  15.00   9.80  2.571  1.051  0.236  0.815  0.000   70.0    4.1   65.9    0.0
 1990 261    70   6.10  12.60  10.00  1.203  1.203  0.122  1.081  0.000   71.2    4.2   67.0    0.0
 1990 262    71   9.00  15.20   7.80  1.799  1.163  0.217  0.946  0.000   72.3    4.4   67.9    0.0
 1990 263    72  10.80  20.60  11.60  2.402  1.157  0.325  0.832  0.000   73.5    4.7   68.8    0.0
 1990 264    73   6.20  20.60  12.50  1.384  1.384  0.225  1.159  0.000   74.9    5.0   69.9    0.0
 1990 265    74  18.50  16.00  10.00  3.785  2.014  0.683  1.331  0.000   76.9    5.6   71.2    0.0
 1990 266    75  10.90  11.80   6.40  2.019  1.445  0.388  1.057  0.000   78.3    6.0   72.3    0.0
 1990 267    76  19.60  14.20   5.80  3.742  1.634  0.730  0.904  0.000   80.0    6.8   73.2    0.0
 1990 268    77  21.70  19.40   3.70  4.376  1.682  0.880  0.803  0.000   81.6    7.6   74.0    0.0
 1990 269    78  21.00  21.00   5.20  4.391  1.617  0.888  0.730  0.000   83.3    8.5   74.7    0.0
 1990 270    79  21.20  25.40   9.80  4.878  1.727  1.054  0.673  0.000   85.0    9.6   75.4    0.0
 1990 271    80  15.10  19.60  11.90  3.270  1.422  0.794  0.628  0.000   86.4   10.4   76.0    0.0
 1990 272    81  17.40  22.40  11.40  3.879  1.611  1.019  0.591  0.000   88.0   11.4   76.6    0.0
 1990 273    82  20.50  28.30  12.00  4.917  1.991  1.431  0.560  0.000   90.0   12.8   77.2    0.0
 1990 274    83  22.80  30.20  12.60  5.583  2.382  1.848  0.534  0.000   92.4   14.7   77.7    0.0
 1990 275    84  22.60  23.50   8.20  4.887  2.351  1.841  0.510  0.000   94.8   16.5   78.2    0.0
 1990 276    85  18.00  25.00  10.40  4.025  4.025  1.628  2.397  0.000   98.8   18.1   80.6    0.0
 1990 277    86   7.30  22.00  16.20  1.643  1.643  0.708  0.935  0.000  100.4   18.8   81.6    0.0
 1990 278    87   6.90  19.20  14.80  1.475  1.475  0.681  0.794  0.000  101.9   19.5   82.4    0.0
 1990 279    88   6.90  15.20  13.00  1.371  1.371  0.666  0.705  0.000  103.3   20.2   83.1    0.0
 1990 280    89   7.00  21.20  13.00  1.503  1.503  0.753  0.750  0.000  104.8   20.9   83.8    0.0
 1990 281    90  14.80  18.40  12.80  3.048  3.048  1.593  1.455  0.000  107.8   22.5   85.3    0.0
 1990 282    91  22.00  24.80  11.20  4.835  4.835  2.640  2.196  0.000  112.7   25.2   87.5    0.0
 1990 283    92  24.40  23.50  11.00  5.245  4.993  3.016  1.977  0.000  117.6   28.2   89.4    0.0
 1990 284    93  10.80  21.20  14.80  2.319  2.319  1.392  0.927  0.000  120.0   29.6   90.4    0.0
 1990 285    94  24.50  19.80  10.80  4.973  4.973  3.112  1.861  0.000  124.9   32.7   92.2    0.0
 1990 286    95  23.00  23.80   9.20  4.838  4.838  3.111  1.726  0.000  129.8   35.8   94.0    0.0
 1990 287    96  23.50  23.30   9.00  4.889  4.392  3.238  1.153  0.000  134.2   39.1   95.1    0.0
 1990 288    97  25.00  18.60   7.80  4.820  4.820  3.277  1.543  0.000  139.0   42.3   96.7    0.0
 1990 289    98  25.40  21.20   5.70  4.971  4.971  3.430  1.540  0.000  144.0   45.8   98.2    0.0
 1990 290    99  25.10  23.80   9.30  5.238  5.032  3.674  1.358  0.000  149.0   49.4   99.6    0.0
 1990 291   100  25.20  25.60  13.80  5.568  5.065  3.995  1.070  0.000  154.1   53.4  100.6    0.0
 1990 292   101  17.10  24.00  14.80  3.725  3.662  2.750  0.912  0.000  157.7   56.2  101.5    0.0
 1990 293   102  20.00  23.40  13.60  4.270  4.034  3.226  0.809  0.000  161.7   59.4  102.3    0.0
 1990 294   103  22.80  26.20  11.60  4.945  4.557  3.823  0.734  0.000  166.3   63.2  103.1    0.0
 1990 295   104  26.30  27.40  12.40  5.811  5.259  4.583  0.677  0.000  171.6   67.8  103.8    0.0
 1990 296   105  24.70  18.20   9.10  4.706  4.417  3.785  0.631  0.000  176.0   71.6  104.4    0.0
 1990 297   106  27.10  22.80   7.20  5.395  4.969  4.375  0.594  0.000  181.0   76.0  105.0    0.0
 1990 298   107  25.80  25.00   9.40  5.378  4.967  4.405  0.562  0.000  185.9   80.4  105.5    0.0
 1990 299   108  24.10  28.40  17.40  5.567  5.152  4.617  0.535  0.000  191.1   85.0  106.1    0.0
 1990 300   109  16.80  28.60  18.50  3.913  3.913  3.306  0.607  0.000  195.0   88.3  106.7    0.0
 1990 301   110  16.60  22.00  17.60  3.547  3.547  3.050  0.497  0.000  198.5   91.3  107.2    0.0
 1990 302   111   8.60  22.20  16.40  1.821  1.821  1.585  0.237  0.000  200.4   92.9  107.4    0.0
 1990 303   112  16.90  23.00  17.50  3.643  3.643  3.194  0.449  0.000  204.0   96.1  107.9    0.0
 1990 304   113  19.50  22.80  15.20  4.111  4.111  3.638  0.473  0.000  208.1   99.8  108.3    0.0
 1990 305   114  27.50  25.60  13.60  5.915  5.915  5.280  0.635  0.000  214.0  105.0  109.0    0.0
 1990 306   115  27.50  27.40  14.00  6.056  6.056  5.452  0.605  0.000  220.1  110.5  109.6    0.0
 1990 307   116  23.90  27.20  17.70  5.398  5.398  4.900  0.499  0.000  225.5  115.4  110.1    0.0
 1990 308   117  21.70  18.60  12.30  4.212  4.212  3.855  0.357  0.000  229.7  119.2  110.4    0.0
 1990 309   118  29.30  18.60   7.60  5.448  5.448  5.001  0.447  0.000  235.1  124.3  110.9    0.0
 1990 310   119  27.30  21.60   8.80  5.343  5.343  4.912  0.432  0.000  240.5  129.2  111.3    0.0
 1990 311   120  22.10  16.80   8.00  4.016  4.016  3.731  0.285  0.000  244.5  132.9  111.6    0.0
 1990 312   121  29.10  20.60   6.20  5.481  5.481  5.107  0.374  0.000  250.0  138.0  112.0    0.0
 1990 313   122  27.30  22.60  10.40  5.478  5.478  5.117  0.361  0.000  255.5  143.1  112.3    0.0
 1990 314   123  26.30  26.40  14.60  5.723  5.723  5.362  0.361  0.000  261.2  148.5  112.7    0.0
 1990 315   124  29.50  21.20  12.30  5.905  5.905  5.551  0.354  0.000  267.1  154.0  113.1    0.0
 1990 316   125  24.20  26.80   9.20  5.063  5.063  4.766  0.298  0.000  272.1  158.8  113.4    0.0
 1990 317   126  13.90  29.30  20.20  3.260  3.260  3.071  0.189  0.000  275.4  161.9  113.5    0.0
 1990 318   127  10.50  24.00  18.20  2.283  2.283  2.153  0.130  0.000  277.7  164.0  113.7    0.0
 1990 319   128  16.90  25.00  17.80  3.706  3.706  3.496  0.211  0.000  281.4  167.5  113.9    0.0
 1990 320   129  29.10  24.00  13.40  6.087  6.087  5.744  0.342  0.000  287.5  173.3  114.2    0.0
 1990 321   130  30.80  26.40   9.80  6.442  6.442  6.079  0.363  0.000  293.9  179.3  114.6    0.0
 1990 322   131  30.80  30.40  15.00  7.035  7.035  6.635  0.400  0.000  301.0  186.0  115.0    0.0
 1990 323   132  22.50  32.20  19.40  5.413  5.413  5.106  0.306  0.000  306.4  191.1  115.3    0.0
 1990 324   133  14.90  28.00  20.80  3.459  3.459  3.265  0.194  0.000  309.8  194.3  115.5    0.0
 1990 325   134  30.50  27.40  17.80  6.876  6.876  6.492  0.385  0.000  316.7  200.8  115.9    0.0
 1990 326   135  30.20  29.40  17.00  6.923  6.923  6.534  0.389  0.000  323.6  207.4  116.3    0.0
 1990 327   136  30.30  29.00  17.00  6.915  6.915  6.525  0.390  0.000  330.5  213.9  116.6    0.0
 1990 328   137  26.40  29.00  18.00  6.070  6.070  5.726  0.344  0.000  336.6  219.6  117.0    0.0
 1990 329   138  26.10  29.20  16.40  5.945  5.945  5.592  0.354  0.000  342.6  225.2  117.3    0.0
 1990 330   139  25.80  21.80  14.60  5.308  5.308  4.977  0.331  0.000  347.9  230.2  117.7    0.0
 1990 331   140  31.40  22.50  11.80  6.367  6.367  5.956  0.411  0.000  354.2  236.1  118.1    0.0
 1990 332   141  29.80  27.50  11.60  6.418  6.418  5.989  0.429  0.000  360.7  242.1  118.5    0.0
 1990 333   142  28.30  28.40  14.40  6.299  6.299  5.864  0.435  0.000  367.0  248.0  119.0    0.0
 1990 334   143  10.50  20.00  11.40  2.056  2.056  1.910  0.146  0.000  369.0  249.9  119.1    0.0
 1990 335   144  28.90  24.60   8.40  5.855  5.855  5.427  0.428  0.000  374.9  255.3  119.5    0.0
 1990 336   145  15.50  20.80  15.00  3.165  3.165  2.927  0.238  0.000  378.0  258.3  119.8    0.0
 1990 337   146  31.70  24.20  11.20  6.545  6.545  6.041  0.504  0.000  384.6  264.3  120.3    0.0
 1990 338   147  31.30  26.20  11.20  6.626  6.626  6.104  0.522  0.000  391.2  270.4  120.8    0.0
 1990 339   148  29.20  30.20  18.00  6.826  6.826  6.276  0.550  0.000  398.0  276.7  121.3    0.0
 1990 340   149  13.40  23.50  17.40  2.887  2.887  2.650  0.237  0.000  400.9  279.3  121.6    0.0
 1990 341   150  29.70  22.60  13.30  6.122  6.122  5.610  0.513  0.000  407.0  284.9  122.1    0.0
 1990 342   151  29.70  24.60  11.00  6.159  6.159  5.635  0.525  0.000  413.2  290.6  122.6    0.0
 1990 343   152  11.10  21.80  15.20  2.302  2.302  2.103  0.199  0.000  415.5  292.7  122.8    0.0
 1990 344   153  14.60  24.80  16.60  3.177  3.177  2.898  0.279  0.000  418.7  295.6  123.1    0.0
 1990 345   154  31.80  22.00  12.40  6.462  6.462  5.880  0.583  0.000  425.1  301.5  123.7    0.0
 1990 346   155  10.90  23.80  10.90  2.238  2.238  2.031  0.208  0.000  427.4  303.5  123.9    0.0
 1990 347   156  23.90  21.00  11.00  4.741  4.741  4.288  0.453  0.000  432.1  307.8  124.3    0.0
 1990 348   157  26.60  25.20  10.00  5.522  5.522  4.979  0.543  0.000  437.6  312.8  124.9    0.0
 1990 349   158  27.00  29.00  12.80  6.003  6.003  5.395  0.609  0.000  443.6  318.2  125.5    0.0
 1990 350   159  25.50  26.00  15.80  5.606  5.606  5.021  0.586  0.000  449.2  323.2  126.1    0.0
 1990 351   160   9.10  26.00  15.80  2.002  2.002  1.786  0.216  0.000  451.3  325.0  126.3    0.0
 1990 352   161   9.50  20.80  16.90  1.981  1.981  1.760  0.221  0.000  453.2  326.7  126.5    0.0
 1990 353   162  31.10  23.20  16.20  6.643  6.643  5.878  0.766  0.000  459.9  332.6  127.3    0.0
 1990 354   163  30.30  28.20  12.00  6.649  6.649  5.857  0.792  0.000  466.5  338.5  128.1    0.0
 1990 355   164  27.50  30.00  16.30  6.371  6.371  5.586  0.786  0.000  472.9  344.0  128.9    0.0
 1990 356   165  18.00  27.60  21.00  4.207  4.207  3.669  0.538  0.000  477.1  347.7  129.4    0.0
 1990 357   166  25.00  26.50  19.20  5.698  5.698  4.941  0.757  0.000  482.8  352.7  130.1    0.0
 1990 358   167  27.80  27.00  15.60  6.204  6.204  5.346  0.857  0.000  489.0  358.0  131.0    0.0
 1990 359   168  31.20  27.80  12.80  6.881  6.881  5.891  0.991  0.000  495.9  363.9  132.0    0.0
 1990 360   169  31.30  30.80  17.00  7.383  7.383  6.274  1.108  0.000  503.3  370.2  133.1    0.0
 1990 361   170  10.50  23.40  16.30  2.263  2.263  1.909  0.354  0.000  505.5  372.1  133.5    0.0
 1990 362   171  23.90  20.00  12.00  4.766  4.766  3.986  0.780  0.000  510.3  376.1  134.2    0.0
 1990 363   172  26.20  23.80   8.60  5.335  5.335  4.422  0.912  0.000  515.6  380.5  135.2    0.0
 1990 364   173  28.90  27.80  11.80  6.355  6.355  5.220  1.135  0.000  522.0  385.7  136.3    0.0
 1990 365   174  29.40  30.60  17.20  6.966  6.966  5.666  1.299  0.000  529.0  391.4  137.6    0.0
 1991 001   175  16.90  29.80  18.40  4.009  3.889  3.228  0.661  0.000  532.8  394.6  138.2    0.0
 1991 002   176  28.50  29.80  17.30  6.714  6.714  5.347  1.367  0.000  539.6  399.9  139.6    0.0
 1991 003   177  31.70  31.30  12.60  7.342  7.320  5.756  1.563  0.000  546.9  405.7  141.2    0.0
 1991 004   178  31.00  32.00  15.20  7.389  7.315  5.743  1.572  0.000  554.2  411.4  142.8    0.0
 1991 005   179  28.00  30.80  15.40  6.605  6.228  5.064  1.164  0.000  560.4  416.5  143.9    0.0
 1991 006   180  25.60  28.80  13.60  5.832  5.374  4.406  0.968  0.000  565.8  420.9  144.9    0.0
 1991 007   181  31.50  31.50  16.80  7.592  6.493  5.646  0.846  0.000  572.3  426.6  145.7    0.0
 1991 008   182  26.80  35.40  19.50  7.001  5.711  5.121  0.591  0.000  578.0  431.7  146.3    0.0
 1991 009   183  20.90  29.00  21.00  5.073  5.073  3.645  1.428  0.000  583.1  435.3  147.7    0.0
 1991 010   184  28.10  26.80  19.40  6.590  6.590  4.645  1.944  0.000  589.7  440.0  149.7    0.0
 1991 011   185  31.70  25.20  15.00  7.066  6.829  4.704  2.125  0.000  596.5  444.7  151.8    0.0
 1991 012   186  30.60  26.40  15.20  6.944  6.185  3.939  2.246  0.000  602.7  448.6  154.1    0.0
 1991 013   187  28.90  26.50  13.80  6.509  5.211  3.338  1.872  0.000  607.9  451.9  155.9    0.0
 1991 014   188  31.70  27.10  15.50  7.303  3.976  2.910  1.066  0.000  611.9  454.9  157.0    0.0
 1991 015   189  24.30  26.80  16.40  5.631  2.633  2.585  0.047  0.000  614.5  457.4  157.0    0.0
 1991 016   190  27.30  20.00  13.90  5.718  5.718  3.515  2.203  0.000  620.2  461.0  159.3    0.0
 1991 017   191  31.60  23.40  11.80  6.805  6.805  4.072  2.733  0.000  627.0  465.0  162.0    0.0
 1991 018   192  30.70  28.60  13.00  7.127  6.170  3.957  2.213  0.000  633.2  469.0  164.2    0.0
 1991 019   193  30.80  31.60  16.80  7.632  5.414  2.879  2.535  0.000  638.6  471.9  166.7    0.0
 1991 020   194  21.40  32.20  19.20  5.444  4.789  2.334  2.455  0.000  643.4  474.2  169.2    0.0
 1991 021   195  20.20  25.60  19.30  4.779  4.779  2.624  2.155  0.000  648.2  476.8  171.3    0.0
 1991 022   196  31.70  27.60  16.00  7.482  6.689  4.109  2.580  0.000  654.9  480.9  173.9    0.0
 1991 023   197  30.40  31.20  16.40  7.496  6.623  4.116  2.507  0.000  661.5  485.1  176.4    0.0
