*GROWTH ASPECTS OUTPUT FILE

*DSSAT Cropping System Model Ver. 4.0.2.000               Aug 12, 2016; 12:47:54

*RUN   1        : UYMZ                    
 MODEL          : MZCER040 - Maize           
 EXPERIMENT     : UYMZ0196 MZ    late to create DSS                             
 TREATMENT  1   : UYMZ                    

@YEAR DOY   DAS   DAP   L#SD   GSTD   LAID   LWAD   SWAD   GWAD   RWAD   CWAD   G#AD   GWGD   HIAD   PWAD   P#AD   WSPD   WSGD   NSTD   EWSD   LN%D   SH%D   HIPD   PWDD   PWTD     SLAD   CHTD   CWID   RDPD   RL1D   RL2D   RL3D   RL4D   RL5D   RL6D   RL7D   RL8D   RL9D   RL10   CDAD   LDAD   SDAD   SNW0C   SNW1C
 2001 100     3     0    0.0      0   0.00      0      0      0      0      0      0    0.0  0.000      0      0  0.000  0.000  0.000  0.000   0.00   0.00   0.00      0      0      0.0   0.00   0.00   0.03   0.00   0.00   0.00   0.00   0.00   0.00   0.00   0.00   0.00   0.00      0      0      0       0       0
 2001 101     4     1    0.0      0   0.00      0      0      0      0      0      0    0.0  0.000      0      0  0.000  0.000  0.000  0.000   0.00   0.00   0.00      0      0      0.0   0.00   0.00   0.04   0.00   0.00   0.00   0.00   0.00   0.00   0.00   0.00   0.00   0.00      0      0      0       0       0
 2001 102     5     2    0.0      0   0.00      0      0      0      0      0      0    0.0  0.000      0      0  0.000  0.000  0.000  0.000   0.00   0.00   0.00      0      0      0.0   0.00   0.00   0.06   0.00   0.00   0.00   0.00   0.00   0.00   0.00   0.00   0.00   0.00      0      0      0       0       0
 2001 103     6     3    0.0      0   0.00      0      0      0      0      0      0    0.0  0.000      0      0  0.000  0.000  0.000  0.000   0.00   0.00   0.00      0      0      0.0   0.00   0.00   0.08   0.00   0.00   0.00   0.00   0.00   0.00   0.00   0.00   0.00   0.00      0      0      0       0       0
 2001 104     7     4    0.0      0   0.00      0      0      0      0      0      0    0.0  0.000      0      0  0.000  0.000  0.000  0.000   0.00   0.00   0.00      0      0      0.0   0.00   0.00   0.11   0.00   0.00   0.00   0.00   0.00   0.00   0.00   0.00   0.00   0.00      0      0      0       0       0
 2001 105     8     5    0.0      0   0.00      0      0      0      0      0      0    0.0  0.000      0      0  0.000  0.000  0.000  0.000   0.00   0.00   0.00      0      0      0.0   0.00   0.00   0.13   0.00   0.00   0.00   0.00   0.00   0.00   0.00   0.00   0.00   0.00      0      0      0       0       0
 2001 106     9     6    1.0      1   0.00     14     14      0     14     28      0    0.0  0.000      0      0  0.000  0.000  0.012  0.000   4.40   0.00   0.00      0      0     19.1   0.00   0.00   0.14   0.28   0.11   0.00   0.00   0.00   0.00   0.00   0.00   0.00   0.00      0      0      0       0       0
 2001 107    10     7    2.0      1   0.01     14     14      0     14     28      0    0.0  0.000      0      0  0.000  0.000  0.013  0.000   4.51   0.00   0.00      0      0     38.6   0.00   0.00   0.15   0.28   0.11   0.00   0.00   0.00   0.00   0.00   0.00   0.00   0.00      0      0      0       0       0
 2001 108    11     8    2.0      1   0.01     14     14      0     15     28      0    0.0  0.000      0      0  0.000  0.000  0.000  0.000   4.51   0.00   0.00      0      0     67.4   0.00   0.00   0.16   0.29   0.12   0.00   0.00   0.00   0.00   0.00   0.00   0.00   0.00      0      0      0       0       0
 2001 109    12     9    3.0      1   0.01     14     14      0     16     28      0    0.0  0.000      0      0  0.000  0.000  0.000  0.000   4.41   0.00   0.00      0      0     93.5   0.00   0.00   0.17   0.30   0.14   0.00   0.00   0.00   0.00   0.00   0.00   0.00   0.00      0      0      0       0       0
 2001 110    13    10    3.0      1   0.02     14     14      0     18     28      0    0.0  0.000      0      0  0.000  0.000  0.000  0.000   4.37   0.00   0.00      0      0    112.6   0.00   0.00   0.18   0.31   0.16   0.01   0.00   0.00   0.00   0.00   0.00   0.00   0.00      0      0      0       0       0
 2001 111    14    11    3.0      1   0.02     14     14      0     21     28      0    0.0  0.000      0      0  0.000  0.000  0.000  0.000   4.35   0.00   0.00      0      0    127.3   0.00   0.00   0.19   0.33   0.19   0.01   0.00   0.00   0.00   0.00   0.00   0.00   0.00      0      0      0       0       0
 2001 112    15    12    3.0      1   0.02     14     14      0     23     28      0    0.0  0.000      0      0  0.000  0.000  0.000  0.000   4.33   0.00   0.00      0      0    122.9   0.00   0.00   0.19   0.34   0.22   0.02   0.00   0.00   0.00   0.00   0.00   0.00   0.00      0      0      0       0       0
 2001 113    16    13    4.0      1   0.02     14     14      0     24     28      0    0.0  0.000      0      0  0.000  0.000  0.000  0.000   4.33   0.00   0.00      0      0    174.3   0.00   0.00   0.20   0.35   0.22   0.02   0.00   0.00   0.00   0.00   0.00   0.00   0.00      0      0      0       0       0
 2001 114    17    14    4.0      1   0.03     14     14      0     26     28      0    0.0  0.000      0      0  0.000  0.000  0.000  0.000   4.28   0.00   0.00      0      0    224.7   0.00   0.00   0.20   0.36   0.25   0.03   0.00   0.00   0.00   0.00   0.00   0.00   0.00      0      0      0       0       0
 2001 115    18    15    4.0      1   0.04     14     14      0     29     28      0    0.0  0.000      0      0  0.000  0.000  0.000  0.000   4.26   0.00   0.00      0      0    271.6   0.00   0.00   0.21   0.37   0.28   0.04   0.00   0.00   0.00   0.00   0.00   0.00   0.00      0      0      0       0       1
 2001 116    19    16    4.0      1   0.05     16     14      0     32     30      0    0.0  0.000      0      0  0.000  0.000  0.000  0.000   3.92   0.00   0.00      0      0    322.5   0.00   0.00   0.22   0.39   0.32   0.05   0.00   0.00   0.00   0.00   0.00   0.00   0.00      0      0      0       0       1
 2001 117    20    17    4.0      1   0.07     21     14      0     35     35      0    0.0  0.000      0      0  0.000  0.000  0.000  0.000   3.60   0.00   0.00      0      0    308.2   0.00   0.00   0.23   0.41   0.35   0.06   0.00   0.00   0.00   0.00   0.00   0.00   0.00      0      0      0       0       1
 2001 118    21    18    5.0      1   0.07     25     14      0     36     39      0    0.0  0.000      0      0  0.000  0.000  0.000  0.000   3.81   0.00   0.00      0      0    300.4   0.00   0.00   0.23   0.41   0.35   0.06   0.00   0.00   0.00   0.00   0.00   0.00   0.00      0      0      0       0       1
 2001 119    22    19    5.0      1   0.08     27     14      0     38     41      0    0.0  0.000      0      0  0.000  0.000  0.000  0.000   3.90   0.00   0.00      0      0    292.3   0.00   0.00   0.24   0.42   0.38   0.08   0.00   0.00   0.00   0.00   0.00   0.00   0.00      0      0      0       0       1
 2001 120    23    20    5.0      1   0.09     32     14      0     39     46      0    0.0  0.000      0      0  0.000  0.000  0.000  0.000   3.67   0.00   0.00      0      0    283.8   0.00   0.00   0.24   0.42   0.39   0.08   0.00   0.00   0.00   0.00   0.00   0.00   0.00      0      0      0       0       1
 2001 121    24    21    5.0      1   0.11     40     14      0     40     54      0    0.0  0.000      0      0  0.000  0.000  0.000  0.000   3.54   0.00   0.00      0      0    273.7   0.00   0.00   0.25   0.42   0.40   0.09   0.00   0.00   0.00   0.00   0.00   0.00   0.00      0      0      0       0       2
 2001 122    25    22    5.0      1   0.12     45     14      0     50     59      0    0.0  0.000      0      0  0.000  0.000  0.000  0.000   3.73   0.00   0.00      0      0    268.0   0.00   0.00   0.26   0.41   0.47   0.15   0.00   0.00   0.00   0.00   0.00   0.00   0.00      0      0      0       0       2
 2001 123    26    23    5.0      1   0.13     48     14      0     58     62      0    0.0  0.000      0      0  0.000  0.000  0.000  0.000   3.86   0.00   0.00      0      0    264.7   0.00   0.00   0.26   0.40   0.53   0.21   0.00   0.00   0.00   0.00   0.00   0.00   0.00      0      0      0       0       2
 2001 124    27    24    6.0      1   0.14     52     14      0     64     66      0    0.0  0.000      0      0  0.000  0.000  0.000  0.000   3.81   0.00   0.00      0      0    261.0   0.00   0.00   0.26   0.40   0.58   0.26   0.00   0.00   0.00   0.00   0.00   0.00   0.00      0      0      0       0       2
 2001 125    28    25    6.0      1   0.15     58     14      0     75     72      0    0.0  0.000      0      0  0.000  0.000  0.000  0.000   3.71   0.00   0.00      0      0    256.0   0.00   0.00   0.27   0.40   0.67   0.34   0.00   0.00   0.00   0.00   0.00   0.00   0.00      0      0      0       0       3
 2001 126    29    26    6.0      1   0.15     61     14      0     83     75      0    0.0  0.000      0      0  0.000  0.000  0.000  0.000   3.81   0.00   0.00      0      0    244.7   0.00   0.00   0.27   0.40   0.73   0.41   0.00   0.00   0.00   0.00   0.00   0.00   0.00      0      0      0       0       3
 2001 127    30    27    6.0      1   0.16     68     14      0     88     82      0    0.0  0.000      0      0  0.000  0.000  0.000  0.000   3.68   0.00   0.00      0      0    240.8   0.00   0.00   0.28   0.40   0.76   0.44   0.00   0.00   0.00   0.00   0.00   0.00   0.00      0      0      0       0       4
 2001 128    31    28    6.0      1   0.18     78     14      0     89     92      0    0.0  0.000      0      0  0.000  0.000  0.000  0.000   3.54   0.00   0.00      0      0    235.6   0.00   0.00   0.29   0.40   0.77   0.45   0.00   0.00   0.00   0.00   0.00   0.00   0.00      0      0      0       0       4
 2001 129    32    29    6.0      1   0.20     88     14      0     92    102      0    0.0  0.000      0      0  0.000  0.000  0.000  0.000   3.55   0.00   0.00      0      0    230.7   0.00   0.00   0.29   0.40   0.79   0.49   0.00   0.00   0.00   0.00   0.00   0.00   0.00      0      0      0       0       4
 2001 130    33    30    7.0      1   0.22     96     14      0    104    110      0    0.0  0.000      0      0  0.000  0.000  0.000  0.000   3.65   0.00   0.00      0      0    227.5   0.00   0.00   0.30   0.40   0.87   0.59   0.00   0.00   0.00   0.00   0.00   0.00   0.00      0      0      0       0       5
 2001 131    34    31    7.0      1   0.23    101     14      0    107    115      0    0.0  0.000      0      0  0.000  0.000  0.000  0.000   3.76   0.00   0.00      0      0    225.7   0.00   0.00   0.30   0.39   0.89   0.62   0.00   0.00   0.00   0.00   0.00   0.00   0.00      0      0      0       0       5
 2001 132    35    32    7.0      1   0.24    108     14      0    120    122      0    0.0  0.000      0      0  0.000  0.000  0.000  0.000   3.67   0.00   0.00      0      0    223.1   0.00   0.00   0.30   0.39   0.96   0.72   0.00   0.00   0.00   0.00   0.00   0.00   0.00      0      0      0       0       6
 2001 133    36    33    7.0      1   0.23    110     14      0    129    124      0    0.0  0.000      0      0  0.000  0.000  0.000  0.000   3.82   0.00   0.00      0      0    211.5   0.00   0.00   0.31   0.39   1.02   0.80   0.00   0.00   0.00   0.00   0.00   0.00   0.00      0      0      0       0       7
 2001 134    37    34    7.0      2   0.23    107     14      0    146    121      0    0.0  0.000      0      0  0.000  0.000  0.000  0.000   4.00   0.00   0.00      0      0    212.8   0.00   0.00   0.31   0.40   1.12   0.94   0.00   0.00   0.00   0.00   0.00   0.00   0.00      0      0      0       0       7
 2001 135    38    35    7.0      2   0.24    112     14      0    148    126      0    0.0  0.000      0      0  0.000  0.000  0.001  0.000   3.82   0.00   0.00      0      0    212.0   0.00   0.00   0.31   0.40   1.13   0.96   0.00   0.00   0.00   0.00   0.00   0.00   0.00      0      0      0       0       7
 2001 136    39    36    7.0      2   0.26    121     14      0    149    135      0    0.0  0.000      0      0  0.000  0.000  0.000  0.000   3.57   0.00   0.00      0      0    210.6   0.00   0.00   0.31   0.40   1.13   0.97   0.00   0.00   0.00   0.00   0.00   0.00   0.00      0      0      0       0       7
 2001 137    40    37    7.0      2   0.28    136     14      0    162    150      0    0.0  0.000      0      0  0.000  0.000  0.000  0.000   3.77   0.00   0.00      0      0    208.6   0.00   0.00   0.32   0.41   1.21   1.07   0.01   0.00   0.00   0.00   0.00   0.00   0.00      0      0      0       0       8
 2001 138    41    38    7.0      3   0.30    148     14      0    166    162      0    0.0  0.000      0      0  0.000  0.000  0.022  0.000   3.68   0.00   0.00      0      0    204.7   0.00   0.00   0.33   0.41   1.23   1.10   0.01   0.00   0.00   0.00   0.00   0.00   0.00      0      0      0       0       9
 2001 139    42    39    8.0      3   0.32    160     14      0    185    174      0    0.0  0.000      0      0  0.000  0.000  0.022  0.000   3.58   0.00   0.00      0      0    202.5   0.00   0.00   0.33   0.42   1.34   1.26   0.03   0.00   0.00   0.00   0.00   0.00   0.00      0      0      0       0      10
 2001 140    43    40    8.0      3   0.35    174     14      0    187    188      0    0.0  0.000      0      0  0.000  0.000  0.022  0.000   3.58   0.00   0.00      0      0    200.1   0.00   0.00   0.34   0.42   1.35   1.27   0.04   0.00   0.00   0.00   0.00   0.00   0.00      0      0      0       0      10
 2001 141    44    41    8.0      3   0.37    187     14      0    188    201      0    0.0  0.000      0      0  0.000  0.000  0.022  0.000   3.59   0.00   0.00      0      0    197.9   0.00   0.00   0.35   0.42   1.36   1.28   0.04   0.00   0.00   0.00   0.00   0.00   0.00      0      0      0       0      11
 2001 142    45    42    8.0      3   0.40    207     14      0    189    222      0    0.0  0.000      0      0  0.000  0.000  0.022  0.000   3.50   0.00   0.00      0      0    195.1   0.00   0.00   0.36   0.42   1.36   1.29   0.04   0.00   0.00   0.00   0.00   0.00   0.00      0      0      0       0      12
 2001 143    46    43    8.0      3   0.43    223     15      0    211    238      0    0.0  0.000      0      0  0.000  0.000  0.022  0.000   3.48   0.00   0.00      0      0    192.8   0.00   0.00   0.37   0.43   1.47   1.44   0.08   0.00   0.00   0.00   0.00   0.00   0.00      0      0      0       0      13
 2001 144    47    44    8.0      3   0.46    242     15      0    239    257      0    0.0  0.000      0      0  0.000  0.000  0.022  0.000   3.45   0.00   0.00      0      0    190.3   0.00   0.00   0.38   0.45   1.62   1.64   0.14   0.00   0.00   0.00   0.00   0.00   0.00      0      0      0       0      14
 2001 145    48    45    9.0      3   0.50    266     16      0    266    282      0    0.0  0.000      0      0  0.000  0.000  0.022  0.000   3.42   0.00   0.00      0      0    187.6   0.00   0.00   0.39   0.46   1.75   1.84   0.22   0.00   0.00   0.00   0.00   0.00   0.00      0      0      0       0      16
 2001 146    49    46    9.0      3   0.54    294     17      0    289    311      0    0.0  0.000      0      0  0.000  0.000  0.022  0.000   3.39   0.00   0.00      0      0    184.7   0.00   0.00   0.40   0.47   1.86   1.99   0.28   0.00   0.00   0.00   0.00   0.00   0.00      0      0      0       0      17
 2001 147    50    47    9.0      3   0.59    328     19      0    306    347      0    0.0  0.000      0      0  0.000  0.000  0.022  0.000   3.35   0.00   0.00      0      0    181.4   0.00   0.00   0.41   0.49   1.94   2.10   0.34   0.00   0.00   0.00   0.00   0.00   0.00      0      0      0       0      18
 2001 148    51    48    9.0      3   0.63    351     21      0    323    372      0    0.0  0.000      0      0  0.000  0.000  0.022  0.000   3.32   0.00   0.00      0      0    179.2   0.00   0.00   0.42   0.50   2.01   2.21   0.40   0.00   0.00   0.00   0.00   0.00   0.00      0      0      0       0      20
 2001 149    52    49   10.0      3   0.70    396     25      0    336    422      0    0.0  0.000      0      0  0.000  0.000  0.022  0.000   3.29   0.00   0.00      0      0    175.8   0.00   0.00   0.44   0.50   2.06   2.29   0.46   0.00   0.00   0.00   0.00   0.00   0.00      0      0      0       0      21
 2001 150    53    50   10.0      3   0.74    427     29      0    337    456      0    0.0  0.000      0      0  0.000  0.000  0.022  0.000   3.25   0.00   0.00      0      0    173.4   0.00   0.00   0.45   0.50   2.06   2.29   0.46   0.00   0.00   0.00   0.00   0.00   0.00      0      0      0       0      23
 2001 151    54    51   10.0      3   0.78    455     33      0    337    489      0    0.0  0.000      0      0  0.000  0.000  0.022  0.000   3.21   0.00   0.00      0      0    171.4   0.00   0.00   0.47   0.47   1.93   2.16   0.44   0.00   0.00   0.00   0.00   0.00   0.00      0      0      0       0      25
 2001 152    55    52   10.0      3   0.83    491     40      0    337    531      0    0.0  0.000      0      0  0.000  0.000  0.022  0.000   3.17   0.00   0.00      0      0    169.0   0.00   0.00   0.48   0.44   1.81   2.03   0.42   0.00   0.00   0.00   0.00   0.00   0.00      0      0      0       0      27
 2001 153    56    53   11.0      3   0.87    520     46      0    338    566      0    0.0  0.000      0      0  0.000  0.000  0.022  0.119   3.13   0.00   0.00      0      0    167.2   0.00   0.00   0.49   0.41   1.70   1.91   0.40   0.00   0.00   0.00   0.00   0.00   0.00      0      0      0       0      28
 2001 154    57    54   11.0      3   0.91    549     53      0    338    602      0    0.0  0.000      0      0  0.000  0.000  0.022  0.492   3.09   0.00   0.00      0      0    165.4   0.00   0.00   0.50   0.38   1.59   1.79   0.38   0.00   0.00   0.00   0.00   0.00   0.00      0      0      0       0      30
 2001 155    58    55   11.0      3   0.93    568     58      0    344    626      0    0.0  0.000      0      0  0.000  0.000  0.022  0.640   2.98   0.00   0.00      0      0    164.1   0.00   0.00   0.52   0.36   1.48   1.71   0.40   0.02   0.00   0.00   0.00   0.00   0.00      0      0      0       0      32
 2001 156    59    56   11.0      3   0.97    596     67      0    344    663      0    0.0  0.000      0      0  0.000  0.000  0.022  0.321   3.01   0.00   0.00      0      0    162.6   0.00   0.00   0.53   0.34   1.39   1.61   0.38   0.03   0.00   0.00   0.00   0.00   0.00      0      0      0       0      33
 2001 157    60    57   11.0      3   1.00    618     74      0    389    692      0    0.0  0.000      0      0  0.000  0.000  0.022  0.233   3.02   0.00   0.00      0      0    161.3   0.00   0.00   0.53   0.33   1.31   1.63   0.61   0.19   0.00   0.00   0.00   0.00   0.00      0      0      0       0      35
 2001 158    61    58   12.0      3   1.02    659     88      0    432    747      0    0.0  0.000      0      0  0.000  0.000  0.022  0.079   2.98   0.00   0.00      0      0    154.6   0.00   0.00   0.54   0.34   1.28   1.62   0.86   0.40   0.00   0.00   0.00   0.00   0.00      0      0      0       0      37
 2001 159    62    59   12.0      3   1.06    691    101      0    433    792      0    0.0  0.000      0      0  0.000  0.000  0.022  0.064   2.97   0.00   0.00      0      0    153.3   0.00   0.00   0.55   0.33   1.24   1.58   0.85   0.41   0.00   0.00   0.00   0.00   0.00      0      0      0       0      39
 2001 160    63    60   12.0      3   1.10    720    113      0    433    833      0    0.0  0.000      0      0  0.000  0.000  0.022  0.035   2.94   0.00   0.00      0      0    152.2   0.00   0.00   0.56   0.32   1.22   1.55   0.84   0.41   0.00   0.00   0.00   0.00   0.00      0      0      0       0      41
 2001 161    64    61   12.0      3   1.13    748    126      0    433    873      0    0.0  0.000      0      0  0.000  0.000  0.022  0.017   2.91   0.00   0.00      0      0    151.1   0.00   0.00   0.58   0.32   1.21   1.53   0.84   0.42   0.00   0.00   0.00   0.00   0.00      0      0      0       0      43
 2001 162    65    62   13.0      3   1.20    807    156      0    436    963      0    0.0  0.000      0      0  0.000  0.000  0.022  0.007   2.86   0.00   0.00      0      0    149.3   0.00   0.00   0.59   0.32   1.20   1.51   0.86   0.45   0.00   0.00   0.00   0.00   0.00      0      0      0       0      46
 2001 163    66    63   13.0      3   1.26    851    203      0    439   1054      0    0.0  0.000      0      0  0.000  0.000  0.022  0.004   2.81   0.00   0.00      0      0    147.9   0.00   0.00   0.60   0.32   1.19   1.50   0.87   0.49   0.00   0.00   0.00   0.00   0.00      0      0      0       0      48
 2001 164    67    64   13.0      3   1.30    882    251      0    441   1134      0    0.0  0.000      0      0  0.000  0.000  0.022  0.002   2.77   0.00   0.00      0      0    146.8   0.00   0.00   0.61   0.32   1.19   1.50   0.88   0.52   0.00   0.00   0.00   0.00   0.00      0      0      0       0      50
 2001 165    68    65   13.0      3   1.36    932    347      0    447   1279      0    0.0  0.000      0      0  0.000  0.000  0.022  0.000   2.57   0.00   0.00      0      0    145.4   0.00   0.00   0.63   0.33   1.19   1.50   0.90   0.56   0.01   0.00   0.00   0.00   0.00      0      0      0       0      52
 2001 166    69    66   14.0      3   1.37    943    368      0    446   1311      0    0.0  0.000      0      0  0.000  0.000  0.022  0.000   2.61   0.00   0.00      0      0    144.8   0.00   0.00   0.63   0.33   1.18   1.49   0.90   0.57   0.01   0.00   0.00   0.00   0.00      0      0      0       0      54
 2001 167    70    67   14.0      3   1.38    956    396      0    446   1353      0    0.0  0.000      0      0  0.000  0.000  0.024  0.000   2.58   0.00   0.00      0      0    144.1   0.00   0.00   0.64   0.33   1.18   1.49   0.90   0.58   0.02   0.00   0.00   0.00   0.00      0      0      0       0      57
 2001 168    71    68   14.0      3   1.39    967    421      0    446   1389      0    0.0  0.000      0      0  0.000  0.000  0.024  0.000   2.57   0.00   0.00      0      0    143.5   0.00   0.00   0.64   0.33   1.18   1.48   0.89   0.58   0.02   0.00   0.00   0.00   0.00      0      0      0       0      59
 2001 169    72    69   14.0      3   1.39    984    458      0    463   1442      0    0.0  0.000      0      0  0.000  0.000  0.025  0.216   2.52   0.00   0.00      0      0    141.8   0.00   0.00   0.64   0.36   1.21   1.50   0.90   0.64   0.07   0.00   0.00   0.00   0.00      0      0      0       0      61
 2001 170    73    70   14.0      3   1.40    991    475      0    462   1466      0    0.0  0.000      0      0  0.000  0.000  0.025  0.199   2.58   0.00   0.00      0      0    141.2   0.00   0.00   0.64   0.36   1.20   1.50   0.90   0.64   0.08   0.00   0.00   0.00   0.00      0      0      0       0      63
 2001 171    74    71   14.0      3   1.35    998    491      0    468   1489      0    0.0  0.000      0      0  0.000  0.000  0.025  0.189   2.62   0.00   0.00      0      0    134.9   0.00   0.00   0.65   0.38   1.22   1.50   0.90   0.64   0.10   0.00   0.00   0.00   0.00      0      0      0       0      66
 2001 172    75    72   14.0      3   1.18   1005    509      0    475   1515      0    0.0  0.000      0      0  0.000  0.000  0.024  0.106   2.65   0.00   0.00      0      0    117.3   0.00   0.00   0.65   0.40   1.23   1.52   0.91   0.65   0.13   0.00   0.00   0.00   0.00      0      0      0       0      68
 2001 173    76    73   14.0      3   0.94   1018    539      0    483   1556      0    0.0  0.000      0      0  0.000  0.000  0.022  0.055   2.66   0.00   0.00      0      0     92.6   0.00   0.00   0.65   0.43   1.25   1.53   0.92   0.66   0.17   0.00   0.00   0.00   0.00      0      0      0       0      70
 2001 174    77    74   14.0      3   0.82   1030    568      0    486   1598      0    0.0  0.000      0      0  0.000  0.000  0.022  0.026   2.68   0.00   0.00      0      0     79.5   0.00   0.00   0.65   0.44   1.26   1.53   0.92   0.66   0.18   0.00   0.00   0.00   0.00      0      0      0       0      73
 2001 175    78    75   14.0      3   0.75   1043    599      0    486   1642      0    0.0  0.000      0      0  0.000  0.000  0.022  0.010   2.69   0.00   0.00      0      0     71.9   0.00   0.00   0.65   0.44   1.26   1.53   0.92   0.66   0.19   0.00   0.00   0.00   0.00      0      0      0       0      75
 2001 176    79    76   14.0      3   0.76   1049    615      0    485   1664      0    0.0  0.000      0      0  0.000  0.000  0.022  0.008   2.68   0.00   0.00      0      0     72.0   0.00   0.00   0.66   0.44   1.26   1.53   0.91   0.65   0.19   0.00   0.00   0.00   0.00      0      0      0       0      78
 2001 177    80    77   14.0      3   0.76   1061    647      0    485   1708      0    0.0  0.000      0      0  0.000  0.000  0.022  0.007   2.68   0.00   0.00      0      0     72.0   0.00   0.00   0.66   0.45   1.26   1.52   0.91   0.65   0.19   0.00   0.00   0.00   0.00      0      0      0       0      80
 2001 178    81    78   14.0      3   0.59   1077    689      0    488   1766      0    0.0  0.000      0      0  0.000  0.000  0.022  0.004   2.64   0.00   0.00      0      0     54.6   0.00   0.00   0.66   0.46   1.27   1.53   0.91   0.66   0.20   0.00   0.00   0.00   0.00      0      0      0       0      83
 2001 179    82    79   14.0      3   0.55   1091    727      0    488   1818      0    0.0  0.000      0      0  0.000  0.000  0.022  0.002   2.62   0.00   0.00      0      0     50.5   0.00   0.00   0.67   0.47   1.27   1.53   0.91   0.66   0.21   0.00   0.00   0.00   0.00      0      0      0       0      85
 2001 180    83    80   15.0      3   0.57   1105    766      0    489   1871      0    0.0  0.000      0      0  0.000  0.000  0.022  0.000   2.60   0.00   0.00      0      0     51.3   0.00   0.00   0.67   0.47   1.27   1.53   0.91   0.66   0.22   0.00   0.00   0.00   0.00      0      0      0       0      87
 2001 181    84    81   15.0      3   0.59   1123    816      0    490   1938      0    0.0  0.000      0      0  0.000  0.000  0.022  0.000   2.55   0.00   0.00      0      0     52.2   0.00   0.00   0.68   0.49   1.28   1.53   0.91   0.66   0.22   0.00   0.00   0.00   0.00      0      0      0       0      90
 2001 182    85    82   15.0      3   0.61   1143    876      0    492   2019      0    0.0  0.000      0      0  0.000  0.000  0.022  0.000   2.49   0.00   0.00      0      0     53.3   0.00   0.00   0.69   0.50   1.29   1.54   0.91   0.66   0.23   0.00   0.00   0.00   0.00      0      0      0       0      92
 2001 183    86    83   15.0      3   0.62   1150    898      0    491   2048      0    0.0  0.000      0      0  0.000  0.000  0.022  0.000   2.49   0.00   0.00      0      0     53.6   0.00   0.00   0.69   0.50   1.29   1.53   0.91   0.66   0.23   0.00   0.00   0.00   0.00      0      0      0       0      95
 2001 184    87    84   15.0      3   0.62   1158    922      0    491   2080      0    0.0  0.000      0      0  0.000  0.000  0.023  0.000   2.48   0.00   0.00      0      0     53.9   0.00   0.00   0.70   0.51   1.29   1.53   0.91   0.66   0.23   0.00   0.00   0.00   0.00      0      0      0       0      97
 2001 185    88    85   15.0      3   0.62   1163    940      0    490   2104      0    0.0  0.000      0      0  0.000  0.000  0.023  0.000   2.48   0.00   0.00      0      0     53.7   0.00   0.00   0.70   0.51   1.29   1.53   0.91   0.66   0.23   0.00   0.00   0.00   0.00      0      0      0       0     100
 2001 186    89    86   15.0      3   0.58   1178    988      0    491   2166      0    0.0  0.000      0      0  0.000  0.000  0.023  0.000   2.44   0.00   0.00      0      0     49.3   0.00   0.00   0.71   0.52   1.29   1.53   0.91   0.66   0.23   0.00   0.00   0.00   0.00      0      0      0       0     102
 2001 187    90    87   15.0      3   0.36   1188   1020      0    491   2208      0    0.0  0.000      0      0  0.000  0.000  0.023  0.000   2.41   0.00   0.00      0      0     30.7   0.00   0.00   0.71   0.53   1.30   1.54   0.91   0.66   0.23   0.00   0.00   0.00   0.00      0      0      0       0     105
 2001 188    91    88   16.0      3   0.38   1197   1053      0    490   2250      0    0.0  0.000      0      0  0.000  0.000  0.024  0.000   2.38   0.00   0.00      0      0     31.3   0.00   0.00   0.72   0.54   1.30   1.54   0.91   0.66   0.23   0.00   0.00   0.00   0.00      0      0      0       0     107
 2001 189    92    89   16.0      3   0.38   1204   1080      0    490   2284      0    0.0  0.000      0      0  0.000  0.000  0.024  0.000   2.37   0.00   0.00      0      0     31.8   0.00   0.00   0.73   0.54   1.30   1.54   0.91   0.66   0.22   0.00   0.00   0.00   0.00      0      0      0       0     110
 2001 190    93    90   16.0      3   0.39   1215   1119      0    490   2334      0    0.0  0.000      0      0  0.000  0.000  0.023  0.000   2.33   0.00   0.00      0      0     32.5   0.00   0.00   0.74   0.55   1.31   1.54   0.91   0.66   0.22   0.00   0.00   0.00   0.00      0      0      0       0     112
 2001 191    94    91   16.0      3   0.40   1217   1127      0    488   2343      0    0.0  0.000      0      0  0.000  0.000  0.024  0.000   2.34   0.00   0.00      0      0     32.5   0.00   0.00   0.75   0.55   1.30   1.53   0.90   0.66   0.22   0.00   0.00   0.00   0.00      0      0      0       0     114
 2001 192    95    92   16.0      3   0.40   1222   1149      0    487   2371      0    0.0  0.000      0      0  0.000  0.000  0.025  0.000   2.33   0.00   0.00      0      0     32.7   0.00   0.00   0.75   0.56   1.30   1.53   0.90   0.66   0.22   0.00   0.00   0.00   0.00      0      0      0       0     117
 2001 193    96    93   16.0      3   0.29   1226   1163      0    486   2389      0    0.0  0.000      0      0  0.000  0.000  0.025  0.000   2.33   0.00   0.00      0      0     23.3   0.00   0.00   0.75   0.56   1.30   1.52   0.90   0.65   0.22   0.00   0.00   0.00   0.00      0      0      0       0     119
 2001 194    97    94   16.0      3   0.21   1229   1175      0    484   2403      0    0.0  0.000      0      0  0.000  0.000  0.025  0.047   2.32   0.00   0.00      0      0     16.7   0.00   0.00   0.75   0.56   1.30   1.52   0.90   0.65   0.22   0.00   0.00   0.00   0.00      0      0      0       0     122
 2001 195    98    95   16.0      3   0.20   1233   1192      0    483   2426      0    0.0  0.000      0      0  0.000  0.000  0.025  0.026   2.31   0.00   0.00      0      0     16.5   0.00   0.00   0.76   0.56   1.30   1.52   0.89   0.65   0.22   0.00   0.00   0.00   0.00      0      0      0       0     124
 2001 196    99    96   16.0      3   0.14   1240   1218      0    483   2457      0    0.0  0.000      0      0  0.000  0.000  0.025  0.015   2.29   0.00   0.00      0      0     11.3   0.00   0.00   0.76   0.56   1.30   1.51   0.89   0.65   0.22   0.00   0.00   0.00   0.00      0      0      0       0     127
 2001 197   100    97   16.0      3   0.14   1243   1230      0    481   2473      0    0.0  0.000      0      0  0.000  0.000  0.024  0.009   2.29   0.00   0.00      0      0     11.6   0.00   0.00   0.77   0.56   1.30   1.51   0.89   0.65   0.22   0.00   0.00   0.00   0.00      0      0      0       0     129
 2001 198   101    98   16.0      3   0.14   1244   1236      0    479   2481      0    0.0  0.000      0      0  0.000  0.000  0.024  0.008   2.30   0.00   0.00      0      0     11.6   0.00   0.00   0.78   0.56   1.29   1.50   0.89   0.64   0.22   0.00   0.00   0.00   0.00      0      0      0       0     131
 2001 199   102    99   16.0      3   0.15   1249   1253      0    478   2502      0    0.0  0.000      0      0  0.000  0.000  0.024  0.006   2.29   0.00   0.00      0      0     12.0   0.00   0.00   0.78   0.56   1.29   1.50   0.88   0.64   0.22   0.00   0.00   0.00   0.00      0      0      0       0     134
 2001 200   103   100   16.0      3   0.15   1250   1259      0    476   2509      0    0.0  0.000      0      0  0.000  0.000  0.023  0.006   2.30   0.00   0.00      0      0     12.1   0.00   0.00   0.79   0.56   1.28   1.49   0.88   0.64   0.22   0.00   0.00   0.00   0.00      0      0      0       0     136
 2001 201   104   101   16.0      3   0.15   1252   1268      0    474   2520      0    0.0  0.000      0      0  0.000  0.000  0.023  0.018   2.30   0.00   0.00      0      0     12.2   0.00   0.00   0.79   0.56   1.28   1.49   0.88   0.64   0.22   0.00   0.00   0.00   0.00      0      0      0       0     139
 2001 202   105   102   16.0      3   0.15   1254   1277      0    472   2531      0    0.0  0.000      0      0  0.000  0.000  0.022  0.012   2.30   0.00   0.00      0      0     12.4   0.00   0.00   0.80   0.56   1.28   1.48   0.87   0.63   0.21   0.00   0.00   0.00   0.00      0      0      0       0     141
 2001 203   106   103   16.0      3   0.13   1255   1282      0    470   2537      0    0.0  0.000      0      0  0.000  0.000  0.022  0.019   2.31   0.00   0.00      0      0     10.7   0.00   0.00   0.80   0.56   1.27   1.47   0.87   0.63   0.21   0.00   0.00   0.00   0.00      0      0      0       0     143
 2001 204   107   104   16.0      3   0.07   1256   1286      0    468   2541      0    0.0  0.000      0      0  0.000  0.000  0.022  0.012   2.31   0.00   0.00      0      0      5.4   0.00   0.00   0.80   0.56   1.26   1.47   0.86   0.63   0.21   0.00   0.00   0.00   0.00      0      0      0       0     146
 2001 205   108   105   16.0      3   0.05   1256   1289      0    466   2545      0    0.0  0.000      0      0  0.000  0.000  0.022  0.011   2.32   0.00   0.00      0      0      3.6   0.00   0.00   0.80   0.56   1.26   1.46   0.86   0.62   0.21   0.00   0.00   0.00   0.00      0      0      0       0     148
 2001 206   109   106   16.0      3   0.05   1257   1290      0    464   2547      0    0.0  0.000      0      0  0.000  0.000  0.022  0.011   2.31   0.00   0.00      0      0      3.6   0.00   0.00   0.80   0.55   1.25   1.45   0.85   0.62   0.21   0.00   0.00   0.00   0.00      0      0      0       0     148
 2001 207   110   107   16.0      3   0.04   1256   1291      0    462   2547      0    0.0  0.000      0      0  0.000  0.000  0.022  0.010   2.31   0.00   0.00      0      0      3.5   0.00   0.00   0.80   0.55   1.25   1.44   0.85   0.62   0.21   0.00   0.00   0.00   0.00      0      0      0       0     148
 2001 208   111   108   16.0      3   0.03   1256   1292      0    460   2548      0    0.0  0.000      0      0  0.000  0.000  0.022  0.015   2.31   0.00   0.00      0      0      2.8   0.00   0.00   0.80   0.55   1.24   1.44   0.84   0.61   0.21   0.00   0.00   0.00   0.00      0      0      0       0     148
 2001 209   112   109   16.0      3   0.02   1256   1294      0    457   2550      0    0.0  0.000      0      0  0.000  0.000  0.022  0.015   2.31   0.00   0.00      0      0      1.8   0.00   0.00   0.81   0.54   1.23   1.43   0.84   0.61   0.21   0.00   0.00   0.00   0.00      0      0      0       0     148
 2001 210   113   110   16.0      3   0.01   1257   1296      0    455   2552      0    0.0  0.000      0      0  0.000  0.000  0.022  0.014   2.31   0.00   0.00      0      0      1.0   0.00   0.00   0.81   0.54   1.23   1.42   0.83   0.61   0.20   0.00   0.00   0.00   0.00      0      0      0       0     148
 2001 211   114   111   16.0      3   0.01   1257   1297      0    453   2553      0    0.0  0.000      0      0  0.000  0.000  0.022  0.014   2.31   0.00   0.00      0      0      1.0   0.00   0.00   0.81   0.54   1.22   1.42   0.83   0.61   0.20   0.00   0.00   0.00   0.00      0      0      0       0     148
 2001 212   115   112   16.0      3   0.01   1257   1298      0    451   2554      0    0.0  0.000      0      0  0.000  0.000  0.022  0.013   2.31   0.00   0.00      0      0      1.0   0.00   0.00   0.82   0.53   1.22   1.41   0.82   0.60   0.20   0.00   0.00   0.00   0.00      0      0      0       0     148
 2001 213   116   113   16.0      4   0.01   1241   1082      0    449   2541      0    0.0  0.000    218      0  0.000  0.000  0.022  0.011   2.54   0.00   0.09      0    218      1.0   0.00   0.00   0.84   0.53   1.21   1.40   0.82   0.60   0.20   0.00   0.00   0.00   0.00      0      0      0       0     148
 2001 214   117   114   16.0      4   0.01   1224   1082      0    446   2527      0    0.0  0.000    220      0  0.000  0.000  0.022  0.010   2.56   0.00   0.09      0    220      1.0   0.00   0.00   0.85   0.53   1.20   1.39   0.82   0.60   0.20   0.00   0.00   0.00   0.00      0      0      0       0     148
 2001 215   118   115   16.0      4   0.01   1206   1083      0    444   2512      0    0.0  0.000    222      0  0.000  0.000  0.022  0.010   2.57   0.00   0.09      0    222      1.0   0.00   0.00   0.86   0.52   1.20   1.39   0.81   0.59   0.20   0.00   0.00   0.00   0.00      0      0      0       0     148
 2001 216   119   116   16.0      4   0.01   1188   1084      0    442   2496      0    0.0  0.000    224      0  0.000  0.000  0.022  0.010   2.60   0.00   0.09      0    224      1.1   0.00   0.00   0.87   0.52   1.19   1.38   0.81   0.59   0.20   0.00   0.00   0.00   0.00      0      0      0       0     148
 2001 217   120   117   16.0      4   0.01   1169   1084      0    440   2478      0    0.0  0.000    225      0  0.000  0.000  0.022  0.010   2.62   0.00   0.09      0    225      1.1   0.00   0.00   0.88   0.52   1.19   1.37   0.81   0.59   0.20   0.00   0.00   0.00   0.00      0      0      0       0     148
 2001 218   121   118   16.0      4   0.01   1149   1085      0    438   2460      0    0.0  0.000    226      0  0.000  0.000  0.022  0.009   2.64   0.00   0.09      0    226      1.1   0.00   0.00   0.89   0.52   1.18   1.37   0.80   0.58   0.20   0.00   0.00   0.00   0.00      0      0      0       0     148
 2001 219   122   119   16.0      4   0.01   1128   1085      0    436   2442      0    0.0  0.000    228      0  0.000  0.000  0.022  0.009   2.66   0.00   0.09      0    228      1.1   0.00   0.00   0.90   0.51   1.17   1.36   0.80   0.58   0.20   0.00   0.00   0.00   0.00      0      0      0       0     148
 2001 220   123   120   16.0      4   0.01   1108   1086      0    434   2424      0    0.0  0.000    230      0  0.000  0.000  0.022  0.008   2.69   0.00   0.09      0    230      1.0   0.00   0.00   0.90   0.51   1.17   1.35   0.79   0.58   0.19   0.00   0.00   0.00   0.00      0      0      0       0     148
 2001 221   124   121   16.0      4   0.01   1087   1087      0    432   2404      0    0.0  0.000    231      0  0.000  0.000  0.022  0.008   2.71   0.00   0.10      0    231      1.0   0.00   0.00   0.91   0.51   1.16   1.35   0.79   0.57   0.19   0.00   0.00   0.00   0.00      0      0      0       0     148
 2001 222   125   122   16.0      4   0.01   1065   1087      0    430   2384      0    0.0  0.000    232      0  0.000  0.000  0.022  0.007   2.74   0.00   0.10      0    232      1.0   0.00   0.00   0.91   0.50   1.16   1.34   0.79   0.57   0.19   0.00   0.00   0.00   0.00      0      0      0       0     148
 2001 223   126   123   16.0      4   0.01   1043   1088      0    428   2364      0    0.0  0.000    233      0  0.000  0.000  0.022  0.006   2.77   0.00   0.10      0    233      1.1   0.00   0.00   0.91   0.50   1.15   1.33   0.78   0.57   0.19   0.00   0.00   0.00   0.00      0      0      0       0     148
 2001 224   127   124   16.0      4   0.01   1021   1088      0    426   2344      0    0.0  0.000    235      0  0.000  0.000  0.022  0.005   2.80   0.00   0.10      0    235      1.1   0.00   0.00   0.92   0.50   1.14   1.33   0.78   0.57   0.19   0.00   0.00   0.00   0.00      0      0      0       0     148
 2001 225   128   125   16.0      4   0.01    997   1089      0    423   2322      0    0.0  0.000    236      0  0.000  0.000  0.022  0.004   2.83   0.00   0.10      0    236      1.1   0.00   0.00   0.93   0.50   1.14   1.32   0.77   0.56   0.19   0.00   0.00   0.00   0.00      0      0      0       0     148
 2001 226   129   126   16.0      4   0.01    973   1089      0    421   2299      0    0.0  0.000    237      0  0.000  0.000  0.022  0.003   2.86   0.00   0.10      0    237      1.1   0.00   0.00   0.93   0.49   1.13   1.31   0.77   0.56   0.19   0.00   0.00   0.00   0.00      0      0      0       0     148
 2001 227   130   127   16.0      4   0.01    948   1089      0    419   2275      0    0.0  0.000    238      0  0.000  0.000  0.022  0.002   2.89   0.00   0.10      0    238      1.2   0.00   0.00   0.94   0.49   1.13   1.30   0.76   0.56   0.19   0.00   0.00   0.00   0.00      0      0      0       0     148
 2001 228   131   128   16.0      4   0.01    922   1090      0    417   2250      0    0.0  0.000    239      0  0.000  0.000  0.022  0.001   2.93   0.00   0.11      0    239      1.2   0.00   0.00   0.95   0.49   1.12   1.30   0.76   0.55   0.19   0.00   0.00   0.00   0.00      0      0      0       0     148
 2001 229   132   129   16.0      4   0.01    895   1090      0    415   2224      0    0.0  0.000    239      0  0.000  0.000  0.022  0.000   2.97   0.00   0.11      0    239      1.2   0.00   0.00   0.95   0.48   1.12   1.29   0.76   0.55   0.19   0.00   0.00   0.00   0.00      0      0      0       0     148
 2001 230   133   130   16.0      4   0.01    868   1090      0    413   2198      0    0.0  0.000    240      0  0.000  0.000  0.022  0.000   3.01   0.00   0.11      0    240      1.2   0.00   0.00   0.96   0.48   1.11   1.28   0.75   0.55   0.19   0.00   0.00   0.00   0.00      0      0      0       0     148
 2001 231   134   131   16.0      4   0.01    840   1091      0    411   2172      0    0.0  0.000    241      0  0.000  0.000  0.022  0.000   3.05   0.00   0.11      0    241      1.3   0.00   0.00   0.96   0.48   1.10   1.28   0.75   0.55   0.18   0.00   0.00   0.00   0.00      0      0      0       0     148
 2001 232   135   132   16.0      4   0.01    813   1091      0    409   2146      0    0.0  0.000    242      0  0.000  0.000  0.022  0.000   3.10   0.00   0.11      0    242      1.3   0.00   0.00   0.96   0.47   1.10   1.27   0.75   0.54   0.18   0.00   0.00   0.00   0.00      0      0      0       0     148
 2001 233   136   133   16.0      4   0.01    784   1092      0    407   2120      0    0.0  0.000    244      0  0.000  0.000  0.022  0.022   3.14   0.00   0.12      0    244      1.3   0.00   0.00   0.96   0.47   1.09   1.26   0.74   0.54   0.18   0.00   0.00   0.00   0.00      0      0      0       0     148
 2001 234   137   134   16.0      4   0.01    756   1092      0    405   2093      0    0.0  0.000    245      0  0.000  0.000  0.022  0.015   3.19   0.00   0.12      0    245      1.2   0.00   0.00   0.97   0.47   1.09   1.26   0.74   0.54   0.18   0.00   0.00   0.00   0.00      0      0      0       0     148
 2001 235   138   135   16.0      4   0.01    727   1093      0    403   2066      0    0.0  0.000    246      0  0.000  0.000  0.022  0.015   3.24   0.00   0.12      0    246      1.3   0.00   0.00   0.97   0.47   1.08   1.25   0.73   0.53   0.18   0.00   0.00   0.00   0.00      0      0      0       0     148
 2001 236   139   136   16.0      5   0.01    727   1079     12    401   2068    277    4.2  0.006    258      5  0.000  0.000  0.000  0.014   3.25   4.52   0.12      0    258      1.3   0.00   0.00   0.97   0.47   1.08   1.25   0.73   0.53   0.18   0.00   0.00   0.00   0.00      0      0      0       0     148
 2001 237   140   137   16.0      5   0.01    727   1071     19    399   2069    277    6.9  0.009    265      5  0.000  0.000  0.000  0.012   3.25   7.20   0.13      0    265      1.3   0.00   0.00   0.97   0.47   1.08   1.25   0.73   0.53   0.18   0.00   0.00   0.00   0.00      0      0      0       0     148
 2001 238   141   138   16.0      5   0.01    727   1057     31    397   2071    277   11.2  0.015    277      5  0.000  0.000  0.000  0.010   3.27  11.21   0.13      0    277      1.3   0.00   0.00   0.97   0.47   1.08   1.25   0.73   0.53   0.18   0.00   0.00   0.00   0.00      0      0      0       0     148
 2001 239   142   139   16.0      5   0.01    727   1049     38    395   2072    277   13.7  0.018    284      5  0.000  0.000  0.000  0.009   3.27  13.37   0.14      0    284      1.3   0.00   0.00   0.97   0.47   1.08   1.25   0.73   0.53   0.18   0.00   0.00   0.00   0.00      0      0      0       0     148
 2001 240   143   140   16.0      5   0.01    727   1043     44    393   2074    277   15.8  0.021    290      5  0.000  0.000  0.000  0.009   3.27  15.09   0.14      0    290      1.2   0.00   0.00   0.97   0.47   1.08   1.25   0.73   0.53   0.18   0.00   0.00   0.00   0.00      0      0      0       0     148
 2001 241   144   141   16.0      5   0.01    727   1038     50    391   2076    277   18.0  0.024    296      5  0.000  0.000  0.000  0.009   3.28  16.83   0.14      0    296      1.2   0.00   0.00   0.97   0.47   1.08   1.25   0.73   0.53   0.18   0.00   0.00   0.00   0.00      0      0      0       0     148
 2001 242   145   142   16.0      5   0.01    727   1021     64    389   2078    277   23.1  0.031    310      5  0.000  0.000  0.000  0.008   3.29  20.64   0.15      0    310      1.2   0.00   0.00   0.97   0.47   1.08   1.25   0.73   0.53   0.18   0.00   0.00   0.00   0.00      0      0      0       0     148
 2001 243   146   143   16.0      5   0.01    727   1005     77    388   2079    277   27.7  0.037    323      5  0.000  0.000  0.000  0.008   3.30  23.75   0.16      0    323      1.2   0.00   0.00   0.97   0.47   1.08   1.25   0.73   0.53   0.18   0.00   0.00   0.00   0.00      0      0      0       0     148
 2001 244   147   144   16.0      5   0.01    727    991     88    386   2080    277   32.0  0.043    335      5  0.000  0.000  0.000  0.008   3.32  26.45   0.16      0    335      1.2   0.00   0.00   0.97   0.47   1.08   1.25   0.73   0.53   0.18   0.00   0.00   0.00   0.00      0      0      0       0     148
 2001 245   148   145   16.0      5   0.01    727    984     94    384   2081    277   34.0  0.045    340      5  0.000  0.000  0.000  0.086   3.32  27.69   0.16      0    340      1.2   0.00   0.00   0.97   0.47   1.08   1.25   0.73   0.53   0.18   0.00   0.00   0.00   0.00      0      0      0       0     148
 2001 246   149   146   16.0      5   0.01    727    980    100    382   2085    277   36.1  0.048    346      5  0.000  0.000  0.000  0.086   3.32  28.90   0.17      0    346      1.2   0.00   0.00   0.97   0.47   1.08   1.25   0.73   0.53   0.18   0.00   0.00   0.00   0.00      0      0      0       0     148
 2001 247   150   147   16.0      5   0.01    727    977    106    380   2090    277   38.4  0.051    352      5  0.000  0.000  0.000  0.386   3.32  30.16   0.17      0    352      1.2   0.00   0.00   0.97   0.47   1.08   1.25   0.73   0.53   0.18   0.00   0.00   0.00   0.00      0      0      0       0     148
 2001 248   151   148   16.0      5   0.01    727    975    112    378   2096    277   40.5  0.053    358      5  0.000  0.000  0.000  0.131   3.32  31.28   0.17      0    358      1.2   0.00   0.00   0.97   0.47   1.08   1.25   0.73   0.53   0.18   0.00   0.00   0.00   0.00      0      0      0       0     148
 2001 249   152   149   16.0      5   0.01    727    972    119    376   2101    277   43.0  0.057    365      5  0.000  0.000  0.000  0.072   3.31  32.59   0.17      0    365      1.2   0.00   0.00   0.97   0.47   1.08   1.25   0.73   0.53   0.18   0.00   0.00   0.00   0.00      0      0      0       0     148
 2001 250   153   150   16.0      5   0.01    727    963    129    374   2106    277   46.6  0.061    375      5  0.000  0.000  0.000  0.080   3.32  34.38   0.18      0    375      1.2   0.00   0.00   0.97   0.47   1.08   1.25   0.73   0.53   0.18   0.00   0.00   0.00   0.00      0      0      0       0     148
 2001 251   154   151   16.0      5   0.01    727    962    135    372   2112    277   48.7  0.064    381      5  0.000  0.000  0.000  0.202   3.31  35.40   0.18      0    381      1.2   0.00   0.00   0.97   0.47   1.08   1.25   0.73   0.53   0.18   0.00   0.00   0.00   0.00      0      0      0       0     148
 2001 252   155   152   16.0      5   0.01    727    965    137    370   2118    277   49.4  0.065    383      5  0.000  0.000  0.000  0.121   3.30  35.71   0.18      0    383      1.2   0.00   0.00   0.97   0.47   1.08   1.25   0.73   0.53   0.18   0.00   0.00   0.00   0.00      0      0      0       0     148
 2001 253   156   153   16.0      5   0.01    727    966    137    369   2119    277   49.5  0.065    383      5  0.000  0.000  0.000  0.072   3.30  35.79   0.18      0    383      1.1   0.00   0.00   0.97   0.46   1.08   1.25   0.73   0.53   0.18   0.00   0.00   0.00   0.00      0      0      0       0     148
 2001 254   157   154   16.0      5   0.01    727    966    138    367   2121    277   50.0  0.065    384      5  0.000  0.000  0.000  0.043   3.30  35.99   0.18      0    384      1.1   0.00   0.00   0.97   0.46   1.07   1.24   0.73   0.53   0.18   0.00   0.00   0.00   0.00      0      0      0       0     148
 2001 255   158   155   16.0      5   0.01    727    966    140    366   2123    277   50.5  0.066    386      5  0.000  0.000  0.000  0.025   3.30  36.23   0.18      0    386      1.0   0.00   0.00   0.98   0.46   1.07   1.23   0.72   0.52   0.18   0.00   0.00   0.00   0.00      0      0      0       0     148
 2001 256   159   156   16.0      5   0.01    727    970    140    364   2127    277   50.7  0.066    386      5  0.000  0.000  0.000  0.014   3.29  36.31   0.18      0    386      1.0   0.00   0.00   0.98   0.46   1.07   1.23   0.72   0.52   0.18   0.00   0.00   0.00   0.00      0      0      0       0     148
 2001 257   160   157   16.0      5   0.01    727    970    143    362   2132    277   51.8  0.067    389      5  0.000  0.000  0.000  0.013   3.28  36.81   0.18      0    389      1.0   0.00   0.00   0.98   0.46   1.07   1.23   0.72   0.52   0.18   0.00   0.00   0.00   0.00      0      0      0       0     148
 2001 258   161   158   16.0      5   0.01    727    971    143    360   2133    277   51.8  0.067    389      5  0.000  0.000  0.000  0.011   3.28  36.81   0.18      0    389      1.0   0.00   0.00   0.98   0.45   1.06   1.23   0.72   0.52   0.18   0.00   0.00   0.00   0.00      0      0      0       0     148
 2001 259   162   159   16.0      5   0.01    727    971    143    359   2133    277   51.8  0.067    389      5  0.000  0.000  0.000  0.009   3.28  36.81   0.18      0    389      0.9   0.00   0.00   0.98   0.45   1.05   1.22   0.72   0.52   0.17   0.00   0.00   0.00   0.00      0      0      0       0     148
 2001 260   163   160   16.0      5   0.00    727    972    143    357   2134    277   51.8  0.067    389      5  0.000  0.000  0.000  0.009   3.28  36.81   0.18      0    389      0.6   0.00   0.00   0.98   0.45   1.05   1.22   0.71   0.52   0.17   0.00   0.00   0.00   0.00      0      0      0       0     148
 2001 261   164   161   16.0      5   0.00    727    969    150    356   2139    277   54.1  0.070    396      5  0.000  0.000  0.000  0.009   3.28  37.86   0.19      0    396      0.6   0.00   0.00   0.98   0.45   1.05   1.22   0.71   0.52   0.17   0.00   0.00   0.00   0.00      0      0      0       0     148
 2001 262   165   162   16.0      5   0.00    727    962    159    354   2144    277   57.5  0.074    405      5  0.000  0.000  0.000  0.009   3.28  39.29   0.19      0    405      0.6   0.00   0.00   0.98   0.45   1.05   1.22   0.71   0.52   0.17   0.00   0.00   0.00   0.00      0      0      0       0     148
 2001 263   166   163   16.0      5   0.00    727    951    171    352   2150    277   61.9  0.080    417      5  0.000  0.000  0.000  0.008   3.28  41.05   0.19      0    417      0.6   0.00   0.00   0.98   0.45   1.05   1.22   0.71   0.52   0.17   0.00   0.00   0.00   0.00      0      0      0       0     148
 2001 264   167   164   16.0      5   0.00    727    942    182    350   2154    277   65.6  0.084    428      5  0.000  0.000  0.000  0.007   3.29  42.47   0.20      0    428      0.6   0.00   0.00   0.98   0.45   1.05   1.22   0.71   0.52   0.17   0.00   0.00   0.00   0.00      0      0      0       0     148
 2001 265   168   165   16.0      5   0.00    727    925    198    349   2159    277   71.5  0.092    444      5  0.000  0.000  0.000  0.007   3.30  44.58   0.21      0    444      0.6   0.00   0.00   0.98   0.45   1.05   1.22   0.71   0.52   0.17   0.00   0.00   0.00   0.00      0      0      0       0     148
 2001 266   169   166   16.0      5   0.00    727    919    199    347   2154    277   71.8  0.092    445      5  0.000  0.000  0.000  0.006   3.31  44.68   0.21      0    445      0.6   0.00   0.00   0.98   0.45   1.05   1.22   0.71   0.52   0.17   0.00   0.00   0.00   0.00      0      0      0       0     148
 2001 267   170   167   16.0      5   0.00    727    919    200    345   2155    277   72.1  0.093    446      5  0.000  0.000  0.000  0.005   3.31  44.80   0.21      0    446      0.6   0.00   0.00   0.98   0.45   1.05   1.22   0.71   0.52   0.17   0.00   0.00   0.00   0.00      0      0      0       0     148
 2001 268   171   168   16.0      5   0.00    727    919    200    343   2156    277   72.4  0.093    447      5  0.000  0.000  0.000  0.004   3.31  44.90   0.21      0    447      0.6   0.00   0.00   0.98   0.45   1.05   1.22   0.71   0.52   0.17   0.00   0.00   0.00   0.00      0      0      0       0     148
 2001 269   172   169   16.0      5   0.00    727    919    201    342   2157    277   72.7  0.093    447      5  0.000  0.000  0.000  0.003   3.31  44.99   0.21      0    447      0.6   0.00   0.00   0.98   0.45   1.05   1.22   0.71   0.52   0.17   0.00   0.00   0.00   0.00      0      0      0       0     148
 2001 270   173   170   16.0      5   0.00    727    919    202    340   2158    277   72.8  0.093    448      5  0.000  0.000  0.000  0.002   3.31  45.05   0.21      0    448      0.6   0.00   0.00   0.98   0.45   1.05   1.22   0.71   0.52   0.17   0.00   0.00   0.00   0.00      0      0      0       0     148
 2001 271   174   171   16.0      5   0.00    727    919    202    338   2158    277   73.0  0.094    448      5  0.000  0.000  0.000  0.001   3.31  45.10   0.21      0    448      0.6   0.00   0.00   0.98   0.45   1.05   1.22   0.71   0.52   0.17   0.00   0.00   0.00   0.00      0      0      0       0     148
 2001 272   175   172   16.0      5   0.00    727    919    203    337   2159    277   73.2  0.094    449      5  0.000  0.000  0.000  0.000   3.31  45.16   0.21      0    449      0.6   0.00   0.00   0.98   0.45   1.05   1.22   0.71   0.52   0.17   0.00   0.00   0.00   0.00      0      0      0       0     148
 2001 273   176   173   16.0      5   0.00    727    919    203    335   2159    277   73.3  0.094    449      5  0.000  0.000  0.000  0.000   3.31  45.21   0.21      0    449      0.6   0.00   0.00   0.98   0.45   1.05   1.22   0.71   0.52   0.17   0.00   0.00   0.00   0.00      0      0      0       0     148
 2001 274   177   174   16.0      5   0.00    727    919    204    333   2161    277   73.7  0.094    450      5  0.000  0.000  0.000  0.000   3.30  45.34   0.21      0    450      0.6   0.00   0.00   0.98   0.45   1.05   1.22   0.71   0.52   0.17   0.00   0.00   0.00   0.00      0      0      0       0     148
 2001 275   178   175   16.0      5   0.00    727    919    205    332   2161    277   73.9  0.095    451      5  0.000  0.000  0.000  0.000   3.30  45.41   0.21      0    451      0.6   0.00   0.00   0.98   0.45   1.05   1.22   0.71   0.52   0.17   0.00   0.00   0.00   0.00      0      0      0       0     148
 2001 276   179   176   16.0      5   0.00    727    919    205    330   2162    277   74.2  0.095    451      5  0.000  0.000  0.000  0.295   3.30  45.50   0.21      0    451      0.6   0.00   0.00   0.98   0.45   1.05   1.22   0.71   0.52   0.17   0.00   0.00   0.00   0.00      0      0      0       0     148
 2001 277   180   177   16.0      5   0.00    727    919    206    328   2163    277   74.5  0.095    452      5  0.000  0.000  0.000  0.229   3.30  45.60   0.21      0    452      0.6   0.00   0.00   0.98   0.45   1.05   1.22   0.71   0.52   0.17   0.00   0.00   0.00   0.00      0      0      0       0     148
 2001 278   181   178   16.0      5   0.00    727    919    207    327   2165    277   74.8  0.096    453      5  0.000  0.000  0.000  0.201   3.30  45.71   0.21      0    453      0.6   0.00   0.00   0.98   0.45   1.05   1.22   0.71   0.52   0.17   0.00   0.00   0.00   0.00      0      0      0       0     148
 2001 279   182   179   16.0      5   0.00    727    919    208    325   2166    277   75.3  0.096    454      5  0.000  0.000  0.000  0.182   3.30  45.85   0.21      0    454      0.6   0.00   0.00   0.98   0.45   1.05   1.22   0.71   0.52   0.17   0.00   0.00   0.00   0.00      0      0      0       0     148
 2001 280   183   180   16.0      5   0.00    727    919    209    323   2167    277   75.4  0.096    455      5  0.000  0.000  0.000  0.109   3.30  45.91   0.21      0    455      0.6   0.00   0.00   0.98   0.45   1.05   1.22   0.71   0.52   0.17   0.00   0.00   0.00   0.00      0      0      0       0     148
 2001 281   184   181   16.0      5   0.00    727    919    209    322   2168    277   75.6  0.097    456      5  0.000  0.000  0.000  0.088   3.30  45.98   0.21      0    456      0.6   0.00   0.00   0.98   0.45   1.05   1.22   0.71   0.52   0.17   0.00   0.00   0.00   0.00      0      0      0       0     148
 2001 282   185   182   16.0      5   0.00    727    919    210    320   2168    277   75.8  0.097    456      5  0.000  0.000  0.000  0.080   3.30  46.04   0.21      0    456      0.6   0.00   0.00   0.98   0.45   1.05   1.22   0.71   0.52   0.17   0.00   0.00   0.00   0.00      0      0      0       0     148
 2001 283   186   183   16.0      5   0.00    727    919    211    319   2170    277   76.3  0.097    457      5  0.000  0.000  0.000  0.082   3.29  46.19   0.21      0    457      0.6   0.00   0.00   0.98   0.45   1.05   1.22   0.71   0.52   0.17   0.00   0.00   0.00   0.00      0      0      0       0     148
 2001 284   187   184   16.0      5   0.00    727    919    213    317   2172    277   76.8  0.098    459      5  0.000  0.000  0.000  0.082   3.29  46.36   0.21      0    459      0.6   0.00   0.00   0.98   0.45   1.05   1.22   0.71   0.52   0.17   0.00   0.00   0.00   0.00      0      0      0       0     148
 2001 285   188   185   16.0      5   0.00    727    919    214    315   2173    277   77.1  0.098    460      5  0.000  0.000  0.000  0.049   3.29  46.46   0.21      0    460      0.6   0.00   0.00   0.98   0.45   1.05   1.22   0.71   0.52   0.17   0.00   0.00   0.00   0.00      0      0      0       0     148
 2001 286   189   186   16.0      5   0.00    727    919    215    314   2175    277   77.7  0.099    461      5  0.000  0.000  0.000  0.029   3.29  46.64   0.21      0    461      0.6   0.00   0.00   0.98   0.45   1.05   1.22   0.71   0.52   0.17   0.00   0.00   0.00   0.00      0      0      0       0     148
 2001 287   190   187   16.0      5   0.00    727    919    216    312   2176    277   78.0  0.099    462      5  0.000  0.000  0.000  0.016   3.29  46.75   0.21      0    462      0.6   0.00   0.00   0.98   0.45   1.05   1.22   0.71   0.52   0.17   0.00   0.00   0.00   0.00      0      0      0       0     148
 2001 288   191   188   16.0      5   0.00    727    919    216    311   2177    277   78.2  0.099    463      5  0.000  0.000  0.000  0.013   3.29  46.80   0.21      0    463      0.6   0.00   0.00   0.98   0.45   1.05   1.22   0.71   0.52   0.17   0.00   0.00   0.00   0.00      0      0      0       0     148
 2001 289   192   189   16.0      5   0.00    727    919    217    309   2178    277   78.3  0.100    463      5  0.000  0.000  0.000  0.011   3.29  46.86   0.21      0    463      0.6   0.00   0.00   0.98   0.45   1.05   1.22   0.71   0.52   0.17   0.00   0.00   0.00   0.00      0      0      0       0     148
 2001 290   193   190   16.0      5   0.00    727    919    217    308   2178    277   78.5  0.100    464      5  0.000  0.000  0.000  0.220   3.29  46.91   0.21      0    464      0.6   0.00   0.00   0.98   0.45   1.05   1.22   0.71   0.52   0.17   0.00   0.00   0.00   0.00      0      0      0       0     148
 2001 291   194   191   16.0      5   0.00    727    919    218    306   2179    277   78.8  0.100    464      5  0.000  0.000  0.000  0.202   3.29  46.99   0.21      0    464      0.6   0.00   0.00   0.98   0.45   1.05   1.22   0.71   0.52   0.17   0.00   0.00   0.00   0.00      0      0      0       0     148
 2001 292   195   192   16.0      5   0.00    727    919    219    304   2181    277   79.2  0.101    465      5  0.000  0.000  0.000  0.121   3.28  47.13   0.21      0    465      0.6   0.00   0.00   0.98   0.45   1.05   1.22   0.71   0.52   0.17   0.00   0.00   0.00   0.00      0      0      0       0     148
 2001 293   196   193   16.0      5   0.00    727    919    221    303   2182    277   79.7  0.101    467      5  0.000  0.000  0.000  0.072   3.28  47.27   0.21      0    467      0.6   0.00   0.00   0.98   0.45   1.05   1.22   0.71   0.52   0.17   0.00   0.00   0.00   0.00      0      0      0       0     148
 2001 294   197   194   16.0      5   0.00    727    919    222    301   2184    277   80.1  0.102    468      5  0.000  0.000  0.000  0.150   3.28  47.41   0.21      0    468      0.6   0.00   0.00   0.98   0.45   1.05   1.22   0.71   0.52   0.17   0.00   0.00   0.00   0.00      0      0      0       0     148
 2001 295   198   195   16.0      5   0.00    727    919    223    300   2186    277   80.6  0.102    469      5  0.000  0.000  0.000  0.090   3.28  47.56   0.21      0    469      0.6   0.00   0.00   0.98   0.45   1.05   1.22   0.71   0.52   0.17   0.00   0.00   0.00   0.00      0      0      0       0     148
 2001 296   199   196   16.0      5   0.00    727    919    225    298   2188    277   81.2  0.103    471      5  0.000  0.000  0.000  0.053   3.28  47.74   0.22      0    471      0.6   0.00   0.00   0.98   0.45   1.05   1.22   0.71   0.52   0.17   0.00   0.00   0.00   0.00      0      0      0       0     148
 2001 297   200   197   16.0      5   0.00    727    919    226    297   2190    277   81.8  0.103    472      5  0.000  0.000  0.000  0.031   3.27  47.92   0.22      0    472      0.6   0.00   0.00   0.98   0.45   1.05   1.22   0.71   0.52   0.17   0.00   0.00   0.00   0.00      0      0      0       0     148
 2001 298   201   198   16.0      5   0.00    727    919    228    295   2192    277   82.3  0.104    474      5  0.000  0.000  0.000  0.018   3.27  48.07   0.22      0    474      0.6   0.00   0.00   0.98   0.45   1.05   1.22   0.71   0.52   0.17   0.00   0.00   0.00   0.00      0      0      0       0     148
 2001 299   202   199   16.0      5   0.00    727    919    228    294   2192    277   82.4  0.104    474      5  0.000  0.000  0.000  0.012   3.27  48.12   0.22      0    474      0.6   0.00   0.00   0.98   0.45   1.05   1.22   0.71   0.52   0.17   0.00   0.00   0.00   0.00      0      0      0       0     148
 2001 300   203   200   16.0      5   0.00    727    919    229    293   2193    277   82.6  0.104    475      5  0.000  0.000  0.000  0.047   3.27  48.18   0.22      0    475      0.6   0.00   0.00   0.98   0.45   1.05   1.22   0.71   0.52   0.17   0.00   0.00   0.00   0.00      0      0      0       0     148
 2001 301   204   201   16.0      5   0.00    727    919    229    293   2193    277   82.6  0.104    475      5  0.000  0.000  0.000  0.047   3.27  48.18   0.22      0    475      0.6   0.00   0.00   0.98   0.45   1.05   1.22   0.71   0.52   0.17   0.00   0.00   0.00   0.00      0      0      0       0     148
 2001 302   205   202   16.0      5   0.00    727    919    229    293   2193    277   82.6  0.104    475      5  0.000  0.000  0.000  0.047   3.27  48.18   0.22      0    475      0.6   0.00   0.00   0.98   0.45   1.05   1.22   0.71   0.52   0.17   0.00   0.00   0.00   0.00      0      0      0       0     148
 2001 303   206   203   16.0      5   0.00    727    919    229    293   2193    277   82.6  0.104    475      5  0.000  0.000  0.000  0.047   3.27  48.18   0.22      0    475      0.6   0.00   0.00   0.98   0.45   1.05   1.22   0.71   0.52   0.17   0.00   0.00   0.00   0.00      0      0      0       0     148
 2001 304   207   204   16.0      5   0.00    727    919    229    293   2193    277   82.6  0.104    475      5  0.000  0.000  0.000  0.047   3.27  48.18   0.22      0    475      0.6   0.00   0.00   0.98   0.45   1.05   1.22   0.71   0.52   0.17   0.00   0.00   0.00   0.00      0      0      0       0     148
 2001 305   208   205   16.0      5   0.00    727    919    229    293   2193    277   82.6  0.104    475      5  0.000  0.000  0.000  0.047   3.27  48.18   0.22      0    475      0.6   0.00   0.00   0.98   0.45   1.05   1.22   0.71   0.52   0.17   0.00   0.00   0.00   0.00      0      0      0       0     148

*DSSAT Cropping System Model Ver. 4.0.2.000               Aug 12, 2016; 12:47:54

*RUN   2        : UYMZ                    
 MODEL          : MZCER040 - Maize           
 EXPERIMENT     : UYMZ0196 MZ    late to create DSS                             
 TREATMENT  1   : UYMZ                    

@YEAR DOY   DAS   DAP   L#SD   GSTD   LAID   LWAD   SWAD   GWAD   RWAD   CWAD   G#AD   GWGD   HIAD   PWAD   P#AD   WSPD   WSGD   NSTD   EWSD   LN%D   SH%D   HIPD   PWDD   PWTD     SLAD   CHTD   CWID   RDPD   RL1D   RL2D   RL3D   RL4D   RL5D   RL6D   RL7D   RL8D   RL9D   RL10   CDAD   LDAD   SDAD   SNW0C   SNW1C
 2002 100     3     0    0.0      0   0.00      0      0      0      0      0      0    0.0  0.000      0      0  0.000  0.000  0.000  0.000   0.00   0.00   0.00      0      0      0.0   0.00   0.00   0.03   0.00   0.00   0.00   0.00   0.00   0.00   0.00   0.00   0.00   0.00      0      0      0       0       0
 2002 101     4     1    0.0      0   0.00      0      0      0      0      0      0    0.0  0.000      0      0  0.000  0.000  0.000  0.000   0.00   0.00   0.00      0      0      0.0   0.00   0.00   0.04   0.00   0.00   0.00   0.00   0.00   0.00   0.00   0.00   0.00   0.00      0      0      0       0       0
 2002 102     5     2    0.0      0   0.00      0      0      0      0      0      0    0.0  0.000      0      0  0.000  0.000  0.000  0.000   0.00   0.00   0.00      0      0      0.0   0.00   0.00   0.05   0.00   0.00   0.00   0.00   0.00   0.00   0.00   0.00   0.00   0.00      0      0      0       0       0
 2002 103     6     3    0.0      0   0.00      0      0      0      0      0      0    0.0  0.000      0      0  0.000  0.000  0.000  0.000   0.00   0.00   0.00      0      0      0.0   0.00   0.00   0.06   0.00   0.00   0.00   0.00   0.00   0.00   0.00   0.00   0.00   0.00      0      0      0       0       0
 2002 104     7     4    0.0      0   0.00      0      0      0      0      0      0    0.0  0.000      0      0  0.000  0.000  0.000  0.000   0.00   0.00   0.00      0      0      0.0   0.00   0.00   0.08   0.00   0.00   0.00   0.00   0.00   0.00   0.00   0.00   0.00   0.00      0      0      0       0       0
 2002 105     8     5    0.0      0   0.00      0      0      0      0      0      0    0.0  0.000      0      0  0.000  0.000  0.000  0.000   0.00   0.00   0.00      0      0      0.0   0.00   0.00   0.10   0.00   0.00   0.00   0.00   0.00   0.00   0.00   0.00   0.00   0.00      0      0      0       0       0
 2002 106     9     6    0.0      0   0.00      0      0      0      0      0      0    0.0  0.000      0      0  0.000  0.000  0.000  0.000   0.00   0.00   0.00      0      0      0.0   0.00   0.00   0.12   0.00   0.00   0.00   0.00   0.00   0.00   0.00   0.00   0.00   0.00      0      0      0       0       0
 2002 107    10     7    1.0      1   0.00     14     14      0     14     28      0    0.0  0.000      0      0  0.000  0.000  0.012  0.000   4.40   0.00   0.00      0      0     23.1   0.00   0.00   0.13   0.27   0.09   0.00   0.00   0.00   0.00   0.00   0.00   0.00   0.00      0      0      0       0       0
 2002 108    11     8    2.0      1   0.00     14     14      0     14     28      0    0.0  0.000      0      0  0.000  0.000  0.016  0.000   4.53   0.00   0.00      0      0     35.4   0.00   0.00   0.14   0.27   0.10   0.00   0.00   0.00   0.00   0.00   0.00   0.00   0.00      0      0      0       0       0
 2002 109    12     9    2.0      1   0.01     14     14      0     15     28      0    0.0  0.000      0      0  0.000  0.000  0.000  0.000   4.50   0.00   0.00      0      0     50.7   0.00   0.00   0.14   0.27   0.11   0.00   0.00   0.00   0.00   0.00   0.00   0.00   0.00      0      0      0       0       0
 2002 110    13    10    2.0      1   0.01     14     14      0     16     28      0    0.0  0.000      0      0  0.000  0.000  0.000  0.000   4.47   0.00   0.00      0      0     65.5   0.00   0.00   0.15   0.27   0.13   0.00   0.00   0.00   0.00   0.00   0.00   0.00   0.00      0      0      0       0       0
 2002 111    14    11    2.0      1   0.01     14     14      0     17     28      0    0.0  0.000      0      0  0.000  0.000  0.000  0.000   4.45   0.00   0.00      0      0     74.1   0.00   0.00   0.16   0.27   0.15   0.00   0.00   0.00   0.00   0.00   0.00   0.00   0.00      0      0      0       0       0
 2002 112    15    12    3.0      1   0.01     14     14      0     17     28      0    0.0  0.000      0      0  0.000  0.000  0.000  0.000   4.45   0.00   0.00      0      0     84.1   0.00   0.00   0.16   0.26   0.16   0.00   0.00   0.00   0.00   0.00   0.00   0.00   0.00      0      0      0       0       0
 2002 113    16    13    3.0      1   0.01     14     14      0     18     28      0    0.0  0.000      0      0  0.000  0.000  0.000  0.000   4.45   0.00   0.00      0      0    104.2   0.00   0.00   0.17   0.24   0.15   0.00   0.00   0.00   0.00   0.00   0.00   0.00   0.00      0      0      0       0       0
 2002 114    17    14    3.0      1   0.02     14     14      0     18     28      0    0.0  0.000      0      0  0.000  0.000  0.000  0.000   4.45   0.00   0.00      0      0    121.6   0.00   0.00   0.18   0.22   0.14   0.00   0.00   0.00   0.00   0.00   0.00   0.00   0.00      0      0      0       0       0
 2002 115    18    15    3.0      1   0.02     14     14      0     21     28      0    0.0  0.000      0      0  0.000  0.000  0.000  0.572   4.44   0.00   0.00      0      0    132.8   0.00   0.00   0.19   0.20   0.15   0.02   0.00   0.00   0.00   0.00   0.00   0.00   0.00      0      0      0       0       0
 2002 116    19    16    4.0      1   0.03     14     14      0     22     28      0    0.0  0.000      0      0  0.000  0.000  0.000  0.128   4.30   0.00   0.00      0      0    196.2   0.00   0.00   0.19   0.19   0.16   0.03   0.00   0.00   0.00   0.00   0.00   0.00   0.00      0      0      0       0       0
 2002 117    20    17    4.0      1   0.03     14     14      0     26     28      0    0.0  0.000      0      0  0.000  0.000  0.000  0.015   4.28   0.00   0.00      0      0    240.9   0.00   0.00   0.20   0.19   0.19   0.05   0.00   0.00   0.00   0.00   0.00   0.00   0.00      0      0      0       0       1
 2002 118    21    18    4.0      1   0.04     14     14      0     31     28      0    0.0  0.000      0      0  0.000  0.000  0.000  0.000   4.26   0.00   0.00      0      0    267.0   0.00   0.00   0.20   0.19   0.22   0.09   0.00   0.00   0.00   0.00   0.00   0.00   0.00      0      0      0       0       1
 2002 119    22    19    4.0      1   0.04     14     14      0     32     28      0    0.0  0.000      0      0  0.000  0.000  0.000  0.000   4.26   0.00   0.00      0      0    313.2   0.00   0.00   0.21   0.19   0.23   0.09   0.00   0.00   0.00   0.00   0.00   0.00   0.00      0      0      0       0       1
 2002 120    23    20    4.0      1   0.06     18     14      0     34     32      0    0.0  0.000      0      0  0.000  0.000  0.000  0.000   3.76   0.00   0.00      0      0    314.9   0.00   0.00   0.22   0.19   0.25   0.11   0.00   0.00   0.00   0.00   0.00   0.00   0.00      0      0      0       0       1
 2002 121    24    21    5.0      1   0.07     22     14      0     39     36      0    0.0  0.000      0      0  0.000  0.000  0.000  0.000   3.68   0.00   0.00      0      0    303.7   0.00   0.00   0.22   0.19   0.28   0.15   0.00   0.00   0.00   0.00   0.00   0.00   0.00      0      0      0       0       1
 2002 122    25    22    5.0      1   0.08     27     14      0     45     41      0    0.0  0.000      0      0  0.000  0.000  0.000  0.000   3.67   0.00   0.00      0      0    293.4   0.00   0.00   0.23   0.19   0.33   0.21   0.00   0.00   0.00   0.00   0.00   0.00   0.00      0      0      0       0       1
 2002 123    26    23    5.0      1   0.09     33     14      0     53     47      0    0.0  0.000      0      0  0.000  0.000  0.000  0.000   3.62   0.00   0.00      0      0    283.6   0.00   0.00   0.24   0.19   0.37   0.27   0.00   0.00   0.00   0.00   0.00   0.00   0.00      0      0      0       0       1
 2002 124    27    24    5.0      1   0.11     40     14      0     60     54      0    0.0  0.000      0      0  0.000  0.000  0.000  0.000   3.52   0.00   0.00      0      0    273.2   0.00   0.00   0.24   0.19   0.42   0.34   0.00   0.00   0.00   0.00   0.00   0.00   0.00      0      0      0       0       2
 2002 125    28    25    5.0      1   0.12     47     14      0     70     61      0    0.0  0.000      0      0  0.000  0.000  0.000  0.000   3.65   0.00   0.00      0      0    266.1   0.00   0.00   0.25   0.20   0.47   0.43   0.00   0.00   0.00   0.00   0.00   0.00   0.00      0      0      0       0       2
 2002 126    29    26    6.0      1   0.14     53     14      0     82     67      0    0.0  0.000      0      0  0.000  0.000  0.000  0.000   3.70   0.00   0.00      0      0    257.9   0.00   0.00   0.26   0.20   0.54   0.54   0.00   0.00   0.00   0.00   0.00   0.00   0.00      0      0      0       0       2
 2002 127    30    27    6.0      1   0.15     59     14      0     89     73      0    0.0  0.000      0      0  0.000  0.000  0.000  0.000   3.69   0.00   0.00      0      0    252.9   0.00   0.00   0.26   0.20   0.58   0.61   0.00   0.00   0.00   0.00   0.00   0.00   0.00      0      0      0       0       3
 2002 128    31    28    6.0      1   0.17     68     14      0     99     82      0    0.0  0.000      0      0  0.000  0.000  0.000  0.000   3.55   0.00   0.00      0      0    246.4   0.00   0.00   0.27   0.20   0.63   0.70   0.00   0.00   0.00   0.00   0.00   0.00   0.00      0      0      0       0       3
 2002 129    32    29    6.0      1   0.18     74     14      0    113     88      0    0.0  0.000      0      0  0.000  0.000  0.000  0.000   3.74   0.00   0.00      0      0    240.6   0.00   0.00   0.27   0.21   0.70   0.84   0.00   0.00   0.00   0.00   0.00   0.00   0.00      0      0      0       0       4
 2002 130    33    30    6.0      1   0.19     82     14      0    123     96      0    0.0  0.000      0      0  0.000  0.000  0.000  0.000   3.62   0.00   0.00      0      0    236.1   0.00   0.00   0.28   0.21   0.75   0.93   0.00   0.00   0.00   0.00   0.00   0.00   0.00      0      0      0       0       4
 2002 131    34    31    7.0      1   0.22     96     14      0    137    110      0    0.0  0.000      0      0  0.000  0.000  0.000  0.000   3.42   0.00   0.00      0      0    229.6   0.00   0.00   0.29   0.22   0.81   1.06   0.00   0.00   0.00   0.00   0.00   0.00   0.00      0      0      0       0       5
 2002 132    35    32    7.0      2   0.26    108     14      0    138    122      0    0.0  0.000      0      0  0.000  0.000  0.000  0.000   3.53   0.00   0.00      0      0    241.0   0.00   0.00   0.30   0.22   0.82   1.07   0.00   0.00   0.00   0.00   0.00   0.00   0.00      0      0      0       0       5
 2002 133    36    33    7.0      2   0.28    120     14      0    139    134      0    0.0  0.000      0      0  0.000  0.000  0.001  0.000   3.54   0.00   0.00      0      0    236.3   0.00   0.00   0.31   0.20   0.77   1.02   0.00   0.00   0.00   0.00   0.00   0.00   0.00      0      0      0       0       6
 2002 134    37    34    8.0      2   0.35    156     14      0    152    170      0    0.0  0.000      0      0  0.000  0.000  0.000  0.000   3.01   0.00   0.00      0      0    224.0   0.00   0.00   0.33   0.20   0.78   1.10   0.02   0.00   0.00   0.00   0.00   0.00   0.00      0      0      0       0       7
 2002 135    38    35    8.0      2   0.38    171     14      0    154    185      0    0.0  0.000      0      0  0.000  0.000  0.000  0.008   3.77   0.00   0.00      0      0    219.6   0.00   0.00   0.35   0.19   0.73   1.05   0.03   0.00   0.00   0.00   0.00   0.00   0.00      0      0      0       0       8
 2002 136    39    36    8.0      3   0.41    193     14      0    154    207      0    0.0  0.000      0      0  0.000  0.000  0.022  0.010   3.67   0.00   0.00      0      0    212.9   0.00   0.00   0.36   0.17   0.69   0.99   0.03   0.00   0.00   0.00   0.00   0.00   0.00      0      0      0       0       8
 2002 137    40    37    8.0      3   0.45    215     14      0    155    229      0    0.0  0.000      0      0  0.000  0.000  0.022  0.019   3.56   0.00   0.00      0      0    208.1   0.00   0.00   0.37   0.16   0.64   0.94   0.03   0.00   0.00   0.00   0.00   0.00   0.00      0      0      0       0       9
 2002 138    41    38    9.0      3   0.50    246     14      0    158    260      0    0.0  0.000      0      0  0.000  0.000  0.022  0.014   3.52   0.00   0.00      0      0    202.6   0.00   0.00   0.39   0.15   0.60   0.90   0.05   0.00   0.00   0.00   0.00   0.00   0.00      0      0      0       0      10
 2002 139    42    39    9.0      3   0.53    269     15      0    183    284      0    0.0  0.000      0      0  0.000  0.000  0.022  0.023   3.47   0.00   0.00      0      0    198.8   0.00   0.00   0.40   0.16   0.58   0.95   0.25   0.00   0.00   0.00   0.00   0.00   0.00      0      0      0       0      11
 2002 140    43    40    9.0      3   0.56    288     15      0    193    303      0    0.0  0.000      0      0  0.000  0.000  0.022  0.052   3.49   0.00   0.00      0      0    195.9   0.00   0.00   0.40   0.16   0.57   0.93   0.34   0.00   0.00   0.00   0.00   0.00   0.00      0      0      0       0      12
 2002 141    44    41    9.0      3   0.58    301     16      0    226    317      0    0.0  0.000      0      0  0.000  0.000  0.022  0.037   3.49   0.00   0.00      0      0    193.7   0.00   0.00   0.41   0.19   0.59   0.94   0.71   0.00   0.00   0.00   0.00   0.00   0.00      0      0      0       0      13
 2002 142    45    42    9.0      3   0.55    313     16      0    258    329      0    0.0  0.000      0      0  0.000  0.000  0.022  0.025   3.47   0.00   0.00      0      0    177.4   0.00   0.00   0.41   0.22   0.61   0.96   1.06   0.00   0.00   0.00   0.00   0.00   0.00      0      0      0       0      14
 2002 143    46    43    9.0      3   0.60    340     17      0    292    357      0    0.0  0.000      0      0  0.000  0.000  0.022  0.000   3.40   0.00   0.00      0      0    175.3   0.00   0.00   0.42   0.26   0.65   0.99   1.45   0.00   0.00   0.00   0.00   0.00   0.00      0      0      0       0      15
 2002 144    47    44   10.0      3   0.65    374     19      0    325    392      0    0.0  0.000      0      0  0.000  0.000  0.022  0.000   3.34   0.00   0.00      0      0    172.9   0.00   0.00   0.43   0.30   0.68   1.01   1.82   0.00   0.00   0.00   0.00   0.00   0.00      0      0      0       0      16
[...]
 2011 127    30    27    5.0      1   0.07     31     14      0     51     45      0    0.0  0.000      0      0  0.000  0.000  0.000  0.000   3.82   0.00   0.00      0      0    239.0   0.00   0.00   0.23   0.33   0.48   0.19   0.00   0.00   0.00   0.00   0.00   0.00   0.00      0      0      0       0       1
 2011 128    31    28    5.0      1   0.07     33     14      0     56     47      0    0.0  0.000      0      0  0.000  0.000  0.000  0.000   3.96   0.00   0.00      0      0    200.5   0.00   0.00   0.23   0.34   0.52   0.22   0.00   0.00   0.00   0.00   0.00   0.00   0.00      0      0      0       0       2
 2011 129    32    29    5.0      1   0.05     35     14      0     61     49      0    0.0  0.000      0      0  0.000  0.000  0.000  0.000   3.97   0.00   0.00      0      0    129.5   0.00   0.00   0.23   0.35   0.55   0.26   0.00   0.00   0.00   0.00   0.00   0.00   0.00      0      0      0       0       2
 2011 130    33    30    5.0      1   0.05     39     14      0     63     53      0    0.0  0.000      0      0  0.000  0.000  0.000  0.000   3.80   0.00   0.00      0      0    122.0   0.00   0.00   0.24   0.36   0.57   0.27   0.00   0.00   0.00   0.00   0.00   0.00   0.00      0      0      0       0       2
 2011 131    34    31    5.0      1   0.06     47     14      0     65     61      0    0.0  0.000      0      0  0.000  0.000  0.000  0.000   3.61   0.00   0.00      0      0    137.6   0.00   0.00   0.24   0.37   0.58   0.28   0.00   0.00   0.00   0.00   0.00   0.00   0.00      0      0      0       0       2
 2011 132    35    32    5.0      1   0.07     50     14      0     65     64      0    0.0  0.000      0      0  0.000  0.000  0.000  0.000   3.87   0.00   0.00      0      0    142.9   0.00   0.00   0.25   0.37   0.58   0.29   0.00   0.00   0.00   0.00   0.00   0.00   0.00      0      0      0       0       3
 2011 133    36    33    6.0      1   0.08     55     14      0     66     69      0    0.0  0.000      0      0  0.000  0.000  0.000  0.000   3.77   0.00   0.00      0      0    149.4   0.00   0.00   0.25   0.37   0.59   0.29   0.00   0.00   0.00   0.00   0.00   0.00   0.00      0      0      0       0       3
 2011 134    37    34    6.0      1   0.09     60     14      0     66     74      0    0.0  0.000      0      0  0.000  0.000  0.000  0.000   3.78   0.00   0.00      0      0    154.3   0.00   0.00   0.26   0.37   0.59   0.29   0.00   0.00   0.00   0.00   0.00   0.00   0.00      0      0      0       0       3
 2011 135    38    35    6.0      1   0.10     65     14      0     69     79      0    0.0  0.000      0      0  0.000  0.000  0.000  0.000   3.79   0.00   0.00      0      0    158.0   0.00   0.00   0.26   0.38   0.61   0.32   0.00   0.00   0.00   0.00   0.00   0.00   0.00      0      0      0       0       4
 2011 136    39    36    6.0      1   0.10     68     14      0     73     82      0    0.0  0.000      0      0  0.000  0.000  0.000  0.000   3.88   0.00   0.00      0      0    143.6   0.00   0.00   0.26   0.40   0.64   0.35   0.00   0.00   0.00   0.00   0.00   0.00   0.00      0      0      0       0       4
 2011 137    40    37    6.0      1   0.10     72     14      0     75     86      0    0.0  0.000      0      0  0.000  0.000  0.000  0.000   3.84   0.00   0.00      0      0    143.8   0.00   0.00   0.27   0.40   0.65   0.37   0.00   0.00   0.00   0.00   0.00   0.00   0.00      0      0      0       0       4
 2011 138    41    38    6.0      1   0.12     78     14      0     82     92      0    0.0  0.000      0      0  0.000  0.000  0.000  0.000   3.72   0.00   0.00      0      0    147.8   0.00   0.00   0.27   0.43   0.69   0.41   0.00   0.00   0.00   0.00   0.00   0.00   0.00      0      0      0       0       5
 2011 139    42    39    6.0      1   0.13     86     14      0     84    100      0    0.0  0.000      0      0  0.000  0.000  0.000  0.000   3.70   0.00   0.00      0      0    151.7   0.00   0.00   0.28   0.44   0.70   0.43   0.00   0.00   0.00   0.00   0.00   0.00   0.00      0      0      0       0       5
 2011 140    43    40    7.0      1   0.15     97     14      0     90    111      0    0.0  0.000      0      0  0.000  0.000  0.000  0.000   3.53   0.00   0.00      0      0    156.4   0.00   0.00   0.28   0.46   0.73   0.47   0.00   0.00   0.00   0.00   0.00   0.00   0.00      0      0      0       0       6
 2011 141    44    41    7.0      1   0.18    110     14      0     97    124      0    0.0  0.000      0      0  0.000  0.000  0.000  0.000   3.53   0.00   0.00      0      0    159.8   0.00   0.00   0.29   0.49   0.77   0.53   0.00   0.00   0.00   0.00   0.00   0.00   0.00      0      0      0       0       6
 2011 142    45    42    7.0      1   0.20    122     14      0    100    136      0    0.0  0.000      0      0  0.000  0.000  0.000  0.000   3.53   0.00   0.00      0      0    162.1   0.00   0.00   0.30   0.50   0.79   0.56   0.00   0.00   0.00   0.00   0.00   0.00   0.00      0      0      0       0       7
 2011 143    46    43    7.0      2   0.21    119     14      0    112    133      0    0.0  0.000      0      0  0.000  0.000  0.000  0.000   3.99   0.00   0.00      0      0    176.6   0.00   0.00   0.30   0.53   0.86   0.65   0.00   0.00   0.00   0.00   0.00   0.00   0.00      0      0      0       0       7
 2011 144    47    44    7.0      2   0.20    122     14      0    117    136      0    0.0  0.000      0      0  0.000  0.000  0.001  0.000   3.90   0.00   0.00      0      0    165.1   0.00   0.00   0.30   0.50   0.83   0.66   0.00   0.00   0.00   0.00   0.00   0.00   0.00      0      0      0       0       7
 2011 145    48    45    7.0      2   0.22    132     14      0    118    146      0    0.0  0.000      0      0  0.000  0.000  0.000  0.000   3.62   0.00   0.00      0      0    167.1   0.00   0.00   0.31   0.46   0.77   0.62   0.00   0.00   0.00   0.00   0.00   0.00   0.00      0      0      0       0       7
 2011 146    49    46    7.0      2   0.24    141     14      0    120    155      0    0.0  0.000      0      0  0.000  0.000  0.000  0.000   3.83   0.00   0.00      0      0    168.5   0.00   0.00   0.31   0.44   0.75   0.61   0.00   0.00   0.00   0.00   0.00   0.00   0.00      0      0      0       0       8
 2011 147    50    47    7.0      3   0.25    151     14      0    129    165      0    0.0  0.000      0      0  0.000  0.000  0.022  0.000   3.71   0.00   0.00      0      0    167.7   0.00   0.00   0.31   0.43   0.76   0.68   0.00   0.00   0.00   0.00   0.00   0.00   0.00      0      0      0       0       8
 2011 148    51    48    8.0      3   0.27    161     14      0    143    175      0    0.0  0.000      0      0  0.000  0.000  0.022  0.001   3.61   0.00   0.00      0      0    168.1   0.00   0.00   0.32   0.42   0.81   0.80   0.02   0.00   0.00   0.00   0.00   0.00   0.00      0      0      0       0       9
 2011 149    52    49    8.0      3   0.25    166     14      0    150    180      0    0.0  0.000      0      0  0.000  0.000  0.022  0.001   3.61   0.00   0.00      0      0    153.3   0.00   0.00   0.32   0.42   0.83   0.86   0.02   0.00   0.00   0.00   0.00   0.00   0.00      0      0      0       0      10
 2011 150    53    50    8.0      3   0.26    172     14      0    153    186      0    0.0  0.000      0      0  0.000  0.000  0.022  0.001   3.61   0.00   0.00      0      0    153.2   0.00   0.00   0.33   0.42   0.84   0.89   0.03   0.00   0.00   0.00   0.00   0.00   0.00      0      0      0       0      10
 2011 151    54    51    8.0      3   0.29    186     14      0    161    200      0    0.0  0.000      0      0  0.000  0.000  0.022  0.001   3.54   0.00   0.00      0      0    154.6   0.00   0.00   0.33   0.41   0.87   0.96   0.04   0.00   0.00   0.00   0.00   0.00   0.00      0      0      0       0      11
 2011 152    55    52    8.0      3   0.31    196     14      0    170    211      0    0.0  0.000      0      0  0.000  0.000  0.022  0.001   3.55   0.00   0.00      0      0    155.3   0.00   0.00   0.34   0.41   0.90   1.04   0.06   0.00   0.00   0.00   0.00   0.00   0.00      0      0      0       0      12
 2011 153    56    53    8.0      3   0.29    203     14      0    180    217      0    0.0  0.000      0      0  0.000  0.000  0.022  0.000   3.55   0.00   0.00      0      0    143.6   0.00   0.00   0.34   0.41   0.94   1.13   0.08   0.00   0.00   0.00   0.00   0.00   0.00      0      0      0       0      13
 2011 154    57    54    8.0      3   0.31    212     14      0    187    226      0    0.0  0.000      0      0  0.000  0.000  0.022  0.000   3.55   0.00   0.00      0      0    144.4   0.00   0.00   0.35   0.41   0.96   1.19   0.09   0.00   0.00   0.00   0.00   0.00   0.00      0      0      0       0      14
 2011 155    58    55    8.0      3   0.24    214     14      0    196    228      0    0.0  0.000      0      0  0.000  0.000  0.022  0.000   3.54   0.00   0.00      0      0    111.4   0.00   0.00   0.35   0.41   0.99   1.26   0.11   0.00   0.00   0.00   0.00   0.00   0.00      0      0      0       0      15
 2011 156    59    56    8.0      3   0.08    216     14      0    202    230      0    0.0  0.000      0      0  0.000  0.000  0.022  0.000   3.53   0.00   0.00      0      0     36.7   0.00   0.00   0.35   0.41   1.01   1.32   0.13   0.00   0.00   0.00   0.00   0.00   0.00      0      0      0       0      16
 2011 157    60    57    8.0      3   0.05    217     14      0    202    231      0    0.0  0.000      0      0  0.000  0.000  0.022  0.000   3.52   0.00   0.00      0      0     24.4   0.00   0.00   0.35   0.41   1.01   1.32   0.13   0.00   0.00   0.00   0.00   0.00   0.00      0      0      0       0      16
 2011 158    61    58    8.0      3   0.06    219     14      0    201    234      0    0.0  0.000      0      0  0.000  0.000  0.022  0.000   3.48   0.00   0.00      0      0     25.7   0.00   0.00   0.35   0.41   1.01   1.31   0.13   0.00   0.00   0.00   0.00   0.00   0.00      0      0      0       0      16
 2011 159    62    59    8.0      3   0.06    224     15      0    201    239      0    0.0  0.000      0      0  0.000  0.000  0.022  0.000   3.40   0.00   0.00      0      0     28.7   0.00   0.00   0.36   0.40   1.00   1.31   0.13   0.00   0.00   0.00   0.00   0.00   0.00      0      0      0       0      16
 2011 160    63    60    8.0      3   0.07    227     15      0    200    241      0    0.0  0.000      0      0  0.000  0.000  0.022  0.000   3.37   0.00   0.00      0      0     29.8   0.00   0.00   0.36   0.40   1.00   1.30   0.12   0.00   0.00   0.00   0.00   0.00   0.00      0      0      0       0      16
 2011 161    64    61    8.0      3   0.08    234     15      0    199    248      0    0.0  0.000      0      0  0.000  0.000  0.023  0.000   3.48   0.00   0.00      0      0     33.8   0.00   0.00   0.37   0.40   1.00   1.30   0.12   0.00   0.00   0.00   0.00   0.00   0.00      0      0      0       0      17
 2011 162    65    62    9.0      3   0.09    243     15      0    199    258      0    0.0  0.000      0      0  0.000  0.000  0.022  0.000   3.43   0.00   0.00      0      0     39.0   0.00   0.00   0.37   0.40   0.99   1.29   0.12   0.00   0.00   0.00   0.00   0.00   0.00      0      0      0       0      18
 2011 163    66    63    9.0      3   0.11    255     15      0    198    270      0    0.0  0.000      0      0  0.000  0.000  0.022  0.000   3.40   0.00   0.00      0      0     44.4   0.00   0.00   0.38   0.40   0.99   1.29   0.13   0.00   0.00   0.00   0.00   0.00   0.00      0      0      0       0      19
 2011 164    67    64    9.0      3   0.11    260     16      0    199    276      0    0.0  0.000      0      0  0.000  0.000  0.022  0.000   3.44   0.00   0.00      0      0     43.7   0.00   0.00   0.38   0.40   0.99   1.30   0.13   0.00   0.00   0.00   0.00   0.00   0.00      0      0      0       0      20
 2011 165    68    65    9.0      3   0.08    265     16      0    200    281      0    0.0  0.000      0      0  0.000  0.000  0.022  0.000   3.43   0.00   0.00      0      0     31.6   0.00   0.00   0.39   0.39   0.99   1.30   0.13   0.00   0.00   0.00   0.00   0.00   0.00      0      0      0       0      21
 2011 166    69    66    9.0      3   0.09    271     16      0    199    288      0    0.0  0.000      0      0  0.000  0.000  0.022  0.000   3.35   0.00   0.00      0      0     34.5   0.00   0.00   0.40   0.39   0.99   1.30   0.13   0.00   0.00   0.00   0.00   0.00   0.00      0      0      0       0      21
 2011 167    70    67    9.0      3   0.10    277     17      0    199    294      0    0.0  0.000      0      0  0.000  0.000  0.022  0.000   3.33   0.00   0.00      0      0     37.1   0.00   0.00   0.41   0.37   0.93   1.23   0.13   0.00   0.00   0.00   0.00   0.00   0.00      0      0      0       0      22
 2011 168    71    68    9.0      3   0.11    282     17      0    198    299      0    0.0  0.000      0      0  0.000  0.000  0.022  0.000   3.30   0.00   0.00      0      0     39.2   0.00   0.00   0.42   0.36   0.90   1.18   0.12   0.00   0.00   0.00   0.00   0.00   0.00      0      0      0       0      23
 2011 169    72    69   10.0      3   0.12    288     18      0    197    306      0    0.0  0.000      0      0  0.000  0.000  0.022  0.061   3.24   0.00   0.00      0      0     41.6   0.00   0.00   0.43   0.32   0.81   1.06   0.11   0.00   0.00   0.00   0.00   0.00   0.00      0      0      0       0      24
 2011 170    73    70   10.0      3   0.13    295     18      0    197    314      0    0.0  0.000      0      0  0.000  0.000  0.022  0.061   3.17   0.00   0.00      0      0     44.3   0.00   0.00   0.44   0.28   0.72   0.95   0.10   0.00   0.00   0.00   0.00   0.00   0.00      0      0      0       0      25
 2011 171    74    71   10.0      3   0.14    301     19      0    196    320      0    0.0  0.000      0      0  0.000  0.000  0.022  0.270   3.22   0.00   0.00      0      0     46.5   0.00   0.00   0.45   0.27   0.68   0.89   0.10   0.00   0.00   0.00   0.00   0.00   0.00      0      0      0       0      26
 2011 172    75    72   10.0      3   0.12    307     20      0    198    327      0    0.0  0.000      0      0  0.000  0.000  0.022  0.022   3.26   0.00   0.00      0      0     38.4   0.00   0.00   0.45   0.26   0.65   0.87   0.10   0.00   0.00   0.00   0.00   0.00   0.00      0      0      0       0      27
 2011 173    76    73   10.0      3   0.14    319     22      0    197    340      0    0.0  0.000      0      0  0.000  0.000  0.022  0.041   3.20   0.00   0.00      0      0     42.5   0.00   0.00   0.46   0.24   0.61   0.82   0.10   0.00   0.00   0.00   0.00   0.00   0.00      0      0      0       0      28
 2011 174    77    74   10.0      3   0.14    325     23      0    197    348      0    0.0  0.000      0      0  0.000  0.000  0.022  0.025   3.17   0.00   0.00      0      0     44.6   0.00   0.00   0.47   0.23   0.58   0.79   0.10   0.00   0.00   0.00   0.00   0.00   0.00      0      0      0       0      29
 2011 175    78    75   10.0      3   0.16    338     25      0    197    363      0    0.0  0.000      0      0  0.000  0.000  0.022  0.015   3.22   0.00   0.00      0      0     48.8   0.00   0.00   0.47   0.22   0.57   0.77   0.10   0.00   0.00   0.00   0.00   0.00   0.00      0      0      0       0      29
 2011 176    79    76   11.0      3   0.16    344     26      0    197    370      0    0.0  0.000      0      0  0.000  0.000  0.022  0.009   3.20   0.00   0.00      0      0     47.8   0.00   0.00   0.47   0.22   0.56   0.76   0.11   0.00   0.00   0.00   0.00   0.00   0.00      0      0      0       0      30
 2011 177    80    77   11.0      3   0.17    347     27      0    196    373      0    0.0  0.000      0      0  0.000  0.000  0.022  0.009   3.21   0.00   0.00      0      0     48.3   0.00   0.00   0.47   0.21   0.55   0.75   0.10   0.00   0.00   0.00   0.00   0.00   0.00      0      0      0       0      31
 2011 178    81    78   11.0      3   0.18    354     28      0    196    382      0    0.0  0.000      0      0  0.000  0.000  0.022  0.004   3.23   0.00   0.00      0      0     50.2   0.00   0.00   0.47   0.21   0.54   0.74   0.10   0.00   0.00   0.00   0.00   0.00   0.00      0      0      0       0      32
 2011 179    82    79   11.0      3   0.18    366     30      0    197    396      0    0.0  0.000      0      0  0.000  0.000  0.022  0.002   3.22   0.00   0.00      0      0     49.3   0.00   0.00   0.48   0.21   0.53   0.74   0.12   0.00   0.00   0.00   0.00   0.00   0.00      0      0      0       0      33
 2011 180    83    80   11.0      3   0.16    377     33      0    197    410      0    0.0  0.000      0      0  0.000  0.000  0.022  0.001   3.21   0.00   0.00      0      0     43.2   0.00   0.00   0.48   0.21   0.53   0.74   0.12   0.01   0.00   0.00   0.00   0.00   0.00      0      0      0       0      34
 2011 181    84    81   11.0      3   0.11    390     35      0    197    425      0    0.0  0.000      0      0  0.000  0.000  0.022  0.001   3.17   0.00   0.00      0      0     27.6   0.00   0.00   0.48   0.20   0.52   0.74   0.12   0.01   0.00   0.00   0.00   0.00   0.00      0      0      0       0      35
 2011 182    85    82   11.0      3   0.05    393     36      0    196    429      0    0.0  0.000      0      0  0.000  0.000  0.022  0.000   3.22   0.00   0.00      0      0     12.4   0.00   0.00   0.48   0.20   0.52   0.73   0.12   0.01   0.00   0.00   0.00   0.00   0.00      0      0      0       0      36
 2011 183    86    83   11.0      3   0.02    393     36      0    196    429      0    0.0  0.000      0      0  0.000  0.000  0.022  0.000   3.22   0.00   0.00      0      0      4.9   0.00   0.00   0.49   0.20   0.51   0.72   0.12   0.01   0.00   0.00   0.00   0.00   0.00      0      0      0       0      36
 2011 184    87    84   11.0      3   0.01    393     36      0    195    429      0    0.0  0.000      0      0  0.000  0.000  0.022  0.000   3.22   0.00   0.00      0      0      2.2   0.00   0.00   0.49   0.19   0.50   0.71   0.12   0.01   0.00   0.00   0.00   0.00   0.00      0      0      0       0      36
 2011 185    88    85   11.0      3   0.01    393     36      0    194    429      0    0.0  0.000      0      0  0.000  0.000  0.022  0.000   3.22   0.00   0.00      0      0      1.6   0.00   0.00   0.49   0.19   0.50   0.70   0.12   0.00   0.00   0.00   0.00   0.00   0.00      0      0      0       0      36
 2011 186    89    86   11.0      3   0.00    393     36      0    193    430      0    0.0  0.000      0      0  0.000  0.000  0.022  0.000   3.22   0.00   0.00      0      0      1.0   0.00   0.00   0.49   0.19   0.49   0.69   0.12   0.00   0.00   0.00   0.00   0.00   0.00      0      0      0       0      36
 2011 187    90    87   11.0      3   0.00    393     36      0    192    430      0    0.0  0.000      0      0  0.000  0.000  0.022  0.000   3.22   0.00   0.00      0      0      0.6   0.00   0.00   0.49   0.19   0.49   0.69   0.11   0.00   0.00   0.00   0.00   0.00   0.00      0      0      0       0      36
 2011 188    91    88   11.0      3   0.00    393     36      0    191    430      0    0.0  0.000      0      0  0.000  0.000  0.022  0.000   3.22   0.00   0.00      0      0      0.1   0.00   0.00   0.49   0.18   0.48   0.68   0.11   0.00   0.00   0.00   0.00   0.00   0.00      0      0      0       0      36
 2011 189    92    89   11.0      6   0.00    393     36      0    190    430      0    0.0  0.000      0      0  0.000  0.000  0.022  0.000   3.22   0.00   0.00      0      0      0.1   0.00   0.00   0.49   0.18   0.48   0.68   0.11   0.00   0.00   0.00   0.00   0.00   0.00      0      0      0       0      36
