*SOIL NITROGEN DAILY OUTPUT FILE

*DSSAT Cropping System Model Ver. 4.0.2.000               Aug 12, 2016; 12:47:54

*RUN   1        : UYMZ                    
 MODEL          : MZCER040 - Maize           
 EXPERIMENT     : UYMZ0196 MZ    late to create DSS                             
 TREATMENT  1   : UYMZ                    

@YEAR DOY   DAS  NAPC  NI#M    NLCC   NIAD    NOAD   NITD   NHTD  NI1D  NI2D  NI3D  NI4D  NI5D  NI6D  NI7D  NI8D  NI9D  NI10  NH1D  NH2D  NH3D  NH4D  NH5D  NH6D  NH7D  NH8D  NH9D  NH10    NMNC    NITC    NDNC    NIMC    AMLC
 2001 097     0     0     0     0.0   46.9   12327   26.7   20.2   6.0   5.3   5.9   3.5   0.1   0.0   0.0   0.0   0.0   0.0   0.5   1.3   1.5   1.4   1.4  1.50  1.48  0.00  0.00  0.00    0.43    1.54    0.00    0.00    0.00
 2001 098     1     0     0     0.0   47.3   12326   27.8   19.5   6.4   5.6   6.0   3.5   0.2   0.0   0.1   0.0   0.0   0.0   0.2   1.2   1.4   1.4   1.4  1.50  1.45  0.00  0.00  0.00    0.87    2.67    0.00    0.00    0.00
 2001 099     2     0     0     0.0   47.8   12326   28.8   19.0   6.6   5.8   6.1   3.6   0.2   0.1   0.1   0.0   0.0   0.0   0.1   1.0   1.4   1.3   1.3  1.50  1.43  0.00  0.00  0.00    1.32    3.66    0.00    0.00    0.00
 2001 100     3     0     0     0.0   48.2   12325   29.7   18.5   4.1   7.3   6.2   3.7   0.3   0.1   0.1   0.0   0.0   0.0   0.1   0.9   1.3   1.3   1.3  1.50  1.41  0.00  0.00  0.00    1.76    4.54    0.00    0.00    0.00
 2001 101     4     0     0     0.0   48.7   12325   30.5   18.1   4.2   7.4   6.3   3.7   0.4   0.1   0.2   0.0   0.0   0.0   0.1   0.8   1.3   1.3   1.3  1.50  1.38  0.00  0.00  0.00    2.22    5.40    0.00    0.00    0.00
 2001 102     5     0     0     0.0   49.1   12324   31.4   17.7   4.3   7.6   6.5   3.8   0.5   0.1   0.2   0.0   0.0   0.0   0.1   0.7   1.3   1.2   1.2  1.50  1.36  0.00  0.00  0.00    2.68    6.25    0.00    0.00    0.00
 2001 103     6     0     0     0.0   49.6   12324   32.2   17.4   4.3   7.7   6.6   3.9   0.5   0.1   0.2   0.0   0.0   0.0   0.1   0.7   1.2   1.2   1.2  1.50  1.34  0.00  0.00  0.00    3.16    7.09    0.00    0.00    0.00
 2001 104     7     0     0     0.0   50.1   12323   33.0   17.1   4.4   7.8   6.7   3.9   0.6   0.2   0.2   0.0   0.0   0.0   0.1   0.6   1.2   1.1   1.1  1.50  1.32  0.00  0.00  0.00    3.63    7.90    0.00    0.00    0.00
 2001 105     8     0     0     0.0   50.6   12323   33.9   16.7   4.5   7.9   6.9   4.0   0.7   0.2   0.3   0.0   0.0   0.0   0.1   0.6   1.2   1.1   1.1  1.50  1.30  0.00  0.00  0.00    4.14    8.73    0.00    0.00    0.00
 2001 106     9     0     0     0.0   51.1   12322   34.7   16.4   4.6   8.1   7.0   4.0   0.7   0.2   0.3   0.0   0.0   0.0   0.1   0.5   1.1   1.0   1.1  1.50  1.28  0.00  0.00  0.00    4.65    9.55    0.00    0.00    0.00
 2001 107    10     0     0     0.0   51.6   12322   35.5   16.1   4.7   8.2   7.1   4.1   0.8   0.2   0.3   0.0   0.0   0.0   0.1   0.5   1.1   1.0   1.0  1.50  1.26  0.00  0.00  0.00    5.16   10.33    0.00    0.00    0.00
 2001 108    11     0     0     0.0   51.9   12321   36.0   15.9   4.7   8.2   7.2   4.2   0.9   0.2   0.4   0.0   0.0   0.0   0.1   0.5   1.1   1.0   1.0  1.50  1.24  0.00  0.00  0.00    5.66   11.09    0.00    0.00    0.00
 2001 109    12     0     0     0.0   52.4   12321   36.8   15.6   4.8   8.3   7.3   4.2   0.9   0.3   0.4   0.0   0.0   0.0   0.1   0.5   1.1   1.0   1.0  1.50  1.22  0.00  0.00  0.00    6.18   11.84    0.00    0.00    0.00
 2001 110    13     0     0     0.0   53.0   12320   37.5   15.4   4.9   8.5   7.4   4.3   1.0   0.3   0.4   0.0   0.0   0.0   0.1   0.4   1.1   0.9   0.9  1.50  1.20  0.00  0.00  0.00    6.68   12.57    0.00    0.00    0.00
 2001 111    14     0     0     0.0   53.4   12320   38.2   15.2   5.0   8.6   7.4   4.3   1.0   0.3   0.4   0.0   0.0   0.0   0.1   0.4   1.0   0.9   0.9  1.49  1.18  0.00  0.00  0.00    7.14   13.25    0.00    0.00    0.00
 2001 112    15     0     0     0.0   53.8   12320   38.8   15.0   5.1   8.7   7.5   4.4   1.1   0.3   0.5   0.0   0.0   0.0   0.1   0.4   1.0   0.9   0.9  1.49  1.16  0.00  0.00  0.00    7.58   13.89    0.00    0.00    0.00
 2001 113    16     0     0     0.0   54.2   12319   39.4   14.8   5.1   8.8   7.6   4.4   1.1   0.3   0.5   0.0   0.0   0.0   0.1   0.4   1.0   0.9   0.9  1.49  1.14  0.00  0.00  0.00    7.96   14.49    0.00    0.00    0.00
 2001 114    17     0     0     0.0   54.5   12319   39.9   14.6   4.3   9.3   7.6   4.4   1.2   0.4   0.5   0.0   0.0   0.0   0.1   0.4   1.0   0.8   0.8  1.49  1.12  0.00  0.00  0.00    8.32   15.03    0.00    0.00    0.00
 2001 115    18     0     0     0.0   54.9   12318   40.4   14.5   4.0   9.5   7.7   4.5   1.2   0.4   0.5   0.0   0.0   0.0   0.1   0.4   0.9   0.8   0.8  1.49  1.11  0.00  0.00  0.00    8.69   15.52    0.00    0.00    0.00
 2001 116    19     0     0     0.0   55.2   12318   40.9   14.3   4.0   9.5   7.8   4.5   1.3   0.4   0.5   0.0   0.0   0.0   0.1   0.4   0.9   0.8   0.8  1.49  1.09  0.00  0.00  0.00    9.05   16.02    0.00    0.00    0.00
 2001 117    20     0     0     0.0   55.5   12318   41.3   14.2   4.1   9.6   7.9   4.6   1.3   0.4   0.6   0.0   0.0   0.0   0.1   0.4   0.9   0.8   0.8  1.49  1.08  0.00  0.00  0.00    9.41   16.52    0.00    0.00    0.00
 2001 118    21     0     0     0.0   55.8   12317   41.7   14.1   4.1   9.6   7.9   4.6   1.4   0.4   0.6   0.0   0.0   0.0   0.1   0.4   0.9   0.8   0.8  1.49  1.06  0.00  0.00  0.00    9.77   17.01    0.00    0.00    0.00
 2001 119    22     0     0     0.0   56.0   12317   42.0   13.9   4.1   9.5   7.9   4.6   1.4   0.5   0.6   0.0   0.0   0.0   0.1   0.4   0.9   0.8   0.8  1.49  1.05  0.00  0.00  0.00   10.13   17.50    0.00    0.00    0.00
 2001 120    23     0     0     0.0   56.1   12317   42.3   13.8   4.1   9.5   8.0   4.7   1.4   0.5   0.6   0.0   0.0   0.0   0.1   0.4   0.9   0.8   0.7  1.49  1.03  0.00  0.00  0.00   10.48   17.97    0.00    0.00    0.00
 2001 121    24     0     0     0.0   56.4   12316   42.7   13.7   1.7   9.1   9.0   4.7   1.5   0.5   0.7   0.0   0.0   0.0   0.1   0.4   0.8   0.7   0.7  1.49  1.02  0.00  0.00  0.00   10.83   18.43    0.00    0.00    0.00
 2001 122    25     0     0     0.0   56.6   12316   42.9   13.7   0.7   5.4   8.7   6.5   2.4   0.6   0.7   0.0   0.0   0.0   0.1   0.4   0.8   0.7   0.7  1.49  1.00  0.00  0.00  0.00   11.21   18.82    0.00    0.00    0.00
 2001 123    26     0     0     0.3   56.1   12316   42.2   13.9   0.6   4.9   8.0   6.4   2.8   0.7   0.7   0.0   0.0   0.0   0.2   0.5   0.9   0.8   0.7  1.50  0.99  0.00  0.00  0.00   11.58   18.98    0.00    0.00    0.00
 2001 124    27     0     0     0.5   56.0   12315   41.9   14.1   0.7   4.7   7.7   6.3   3.0   0.8   0.6   0.0   0.0   0.0   0.1   0.5   0.9   0.8   0.8  1.51  0.98  0.00  0.00  0.00   11.95   19.19    0.00    0.00    0.00
 2001 125    28     0     0     0.5   56.2   12315   42.0   14.2   0.8   4.6   7.5   6.4   3.0   0.8   0.7   0.0   0.0   0.0   0.1   0.5   0.9   0.8   0.8  1.52  0.97  0.00  0.00  0.00   12.32   19.41    0.00    0.00    0.00
 2001 126    29     0     0     0.6   56.2   12314   41.9   14.3   0.9   4.5   7.4   6.3   3.1   0.8   0.7   0.0   0.0   0.0   0.1   0.5   1.0   0.8   0.8  1.53  0.96  0.00  0.00  0.00   12.69   19.68    0.00    0.00    0.00
 2001 127    30     0     0     0.7   56.2   12314   41.8   14.4   1.0   4.5   7.3   6.3   3.1   0.9   0.7   0.0   0.0   0.0   0.1   0.5   1.0   0.8   0.8  1.54  0.95  0.00  0.00  0.00   13.05   19.95    0.02    0.00    0.00
 2001 128    31     0     0     0.7   56.4   12314   42.0   14.4   1.2   4.5   7.3   6.3   3.1   0.9   0.7   0.0   0.0   0.0   0.1   0.5   1.0   0.8   0.8  1.55  0.94  0.00  0.00  0.00   13.41   20.27    0.03    0.00    0.00
 2001 129    32     0     0     0.7   56.5   12313   42.1   14.4   1.0   4.4   7.3   6.3   3.2   0.9   0.7   0.0   0.0   0.0   0.1   0.5   1.0   0.9   0.8  1.56  0.93  0.00  0.00  0.00   13.78   20.59    0.04    0.00    0.00
 2001 130    33     0     0     0.8   56.4   12313   41.8   14.6   0.9   4.1   7.1   6.3   3.3   0.9   0.7   0.0   0.0   0.0   0.1   0.5   1.0   0.9   0.8  1.57  0.91  0.00  0.00  0.00   14.16   20.80    0.05    0.00    0.00
 2001 131    34     0     0     0.8   56.1   12313   41.4   14.7   1.0   3.9   6.9   6.3   3.3   1.0   0.7   0.0   0.0   0.0   0.1   0.5   1.0   0.9   0.9  1.58  0.90  0.00  0.00  0.00   14.54   21.05    0.06    0.00    0.00
 2001 132    35     0     0     0.8   56.2   12312   41.4   14.8   1.0   3.9   6.8   6.3   3.3   1.0   0.8   0.0   0.0   0.0   0.1   0.6   1.0   0.9   0.9  1.59  0.89  0.00  0.00  0.00   14.90   21.30    0.07    0.00    0.00
 2001 133    36     0     0     0.8   56.1   12312   41.3   14.9   1.1   3.8   6.7   6.4   3.3   1.0   0.8   0.0   0.0   0.0   0.1   0.5   1.0   0.9   0.9  1.60  0.89  0.00  0.00  0.00   15.27   21.59    0.07    0.00    0.00
 2001 134    37     0     0     0.8   56.0   12311   41.2   14.9   1.2   3.8   6.6   6.4   3.3   1.0   0.8   0.0   0.0   0.0   0.1   0.5   1.0   0.9   0.9  1.61  0.88  0.00  0.00  0.00   15.62   21.91    0.08    0.00    0.00
 2001 135    38     0     0     0.8   56.1   12311   41.2   14.9   1.3   3.7   6.5   6.4   3.3   1.0   0.8   0.0   0.0   0.0   0.1   0.5   1.0   0.9   0.9  1.62  0.87  0.00  0.00  0.00   15.95   22.22    0.09    0.00    0.00
 2001 136    39     0     0     0.8   56.4   12311   41.5   14.9   1.4   3.8   6.6   6.4   3.3   1.0   0.8   0.0   0.0   0.0   0.1   0.5   1.0   1.0   0.9  1.63  0.86  0.00  0.00  0.00   16.28   22.52    0.10    0.00    0.00
 2001 137    40     0     0     0.8   56.7   12310   41.8   14.9   1.4   3.9   6.6   6.4   3.4   1.0   0.8   0.0   0.0   0.0   0.1   0.5   1.0   1.0   0.9  1.64  0.85  0.00  0.00  0.00   16.61   22.82    0.10    0.00    0.00
 2001 138    41     0     0     0.8   56.2   12310   41.3   14.9   1.2   3.8   6.4   6.4   3.4   1.0   0.9   0.0   0.0   0.0   0.1   0.5   0.9   1.0   0.9  1.65  0.84  0.00  0.00  0.00   16.95   23.11    0.11    0.00    0.00
 2001 139    42     0     0     0.8   56.3   12310   41.4   14.9   1.3   3.8   6.3   6.5   3.4   1.0   0.9   0.0   0.0   0.0   0.1   0.5   0.9   1.0   0.9  1.66  0.83  0.00  0.00  0.00   17.30   23.49    0.11    0.00    0.00
 2001 140    43     0     0     0.8   56.0   12309   41.1   14.9   1.3   3.7   6.1   6.5   3.4   1.0   0.9   0.0   0.0   0.0   0.1   0.5   0.9   0.9   1.0  1.67  0.82  0.00  0.00  0.00   17.66   23.87    0.11    0.00    0.00
 2001 141    44     0     0     0.8   56.0   12309   41.2   14.8   1.3   3.7   6.1   6.5   3.4   1.0   0.9   0.0   0.0   0.0   0.1   0.5   0.9   0.9   1.0  1.68  0.81  0.00  0.00  0.00   18.03   24.25    0.12    0.00    0.00
 2001 142    45     0     0     0.8   55.9   12309   41.1   14.8   1.3   3.7   6.0   6.5   3.4   1.0   0.9   0.0   0.0   0.0   0.1   0.5   0.9   0.9   1.0  1.69  0.81  0.00  0.00  0.00   18.39   24.62    0.12    0.00    0.00
 2001 143    46     0     0     0.8   55.7   12308   40.9   14.8   1.2   3.5   5.9   6.6   3.4   1.0   0.9   0.0   0.0   0.0   0.1   0.5   0.9   0.9   1.0  1.70  0.80  0.00  0.00  0.00   18.76   24.98    0.12    0.00    0.00
 2001 144    47     0     0     0.8   55.1   12308   40.4   14.7   1.2   3.4   5.6   6.6   3.4   1.0   0.9   0.0   0.0   0.0   0.1   0.4   0.9   0.9   1.0  1.71  0.79  0.00  0.00  0.00   19.13   25.36    0.13    0.00    0.00
 2001 145    48     0     0     0.8   54.5   12308   39.8   14.7   1.2   3.2   5.4   6.5   3.5   1.1   1.0   0.0   0.0   0.0   0.1   0.4   0.8   0.8   1.0  1.72  0.78  0.00  0.00  0.00   19.50   25.74    0.13    0.00    0.00
 2001 146    49     0     0     0.8   53.8   12307   39.2   14.6   1.2   3.1   5.2   6.4   3.5   1.1   1.0   0.0   0.0   0.0   0.1   0.4   0.8   0.8   1.0  1.72  0.77  0.00  0.00  0.00   19.89   26.12    0.13    0.00    0.00
 2001 147    50     0     0     0.8   53.2   12307   38.6   14.6   1.2   2.9   4.9   6.3   3.5   1.1   1.0   0.0   0.0   0.0   0.1   0.4   0.8   0.8   1.0  1.73  0.77  0.00  0.00  0.00   20.30   26.53    0.13    0.00    0.00
 2001 148    51     0     0     0.8   52.4   12306   37.8   14.6   1.3   2.8   4.7   6.2   3.5   1.1   1.0   0.0   0.0   0.0   0.1   0.4   0.8   0.8   1.0  1.74  0.76  0.00  0.00  0.00   20.73   26.94    0.14    0.00    0.00
 2001 149    52     0     0     0.8   51.9   12306   37.3   14.5   1.3   2.7   4.5   6.1   3.5   1.1   1.0   0.0   0.0   0.0   0.1   0.4   0.8   0.8   1.1  1.75  0.75  0.00  0.00  0.00   21.16   27.35    0.14    0.00    0.00
 2001 150    53     0     0     0.8   50.7   12306   36.2   14.5   1.3   2.5   4.2   5.9   3.5   1.1   1.0   0.0   0.0   0.0   0.1   0.4   0.8   0.7   1.1  1.76  0.74  0.00  0.00  0.00   21.59   27.77    0.14    0.00    0.00
 2001 151    54     0     0     0.8   50.3   12305   35.8   14.5   0.4   1.7   3.9   5.9   4.0   1.2   1.0   0.0   0.0   0.0   0.1   0.4   0.8   0.7   1.1  1.77  0.73  0.00  0.00  0.00   22.02   28.17    0.14    0.00    0.00
 2001 152    55     0     0     1.0   49.6   12305   34.9   14.7   0.3   1.3   3.3   5.4   4.2   1.5   1.1   0.0   0.0   0.0   0.1   0.5   0.8   0.7   1.1  1.78  0.73  0.00  0.00  0.00   22.44   28.33    0.17    0.00    0.00
 2001 153    56     0     0     1.2   48.7   12304   33.7   14.9   0.3   1.1   2.9   5.1   4.3   1.5   1.1   0.0   0.0   0.0   0.2   0.5   0.8   0.8   1.1  1.80  0.72  0.00  0.00  0.00   22.86   28.48    0.22    0.00    0.00
 2001 154    57     0     0     1.6   47.8   12304   32.7   15.1   0.2   0.7   2.3   4.6   4.3   1.8   1.2   0.0   0.0   0.0   0.2   0.6   0.8   0.8   1.1  1.81  0.72  0.00  0.00  0.00   23.30   28.66    0.27    0.00    0.00
 2001 155    58     0     0     2.1   46.7   12303   31.4   15.3   0.1   0.3   1.8   4.1   4.2   2.1   1.3   0.0   0.0   0.0   0.2   0.6   0.8   0.8   1.1  1.82  0.71  0.00  0.00  0.00   23.69   28.79    0.34    0.00    0.00
 2001 156    59     0     0     2.8   46.1   12303   30.5   15.5   0.1   0.3   1.5   3.6   4.1   2.2   1.4   0.0   0.0   0.0   0.3   0.6   0.9   0.8   1.2  1.84  0.71  0.00  0.00  0.00   24.04   28.87    0.51    0.00    0.00
 2001 157    60     0     0     3.5   44.3   12303   28.7   15.5   0.1   0.2   0.9   3.1   3.9   2.3   1.4   0.0   0.0   0.0   0.3   0.6   0.8   0.8   1.2  1.85  0.71  0.00  0.00  0.00   24.44   29.01    0.65    0.00    0.00
 2001 158    61     0     0     4.7   41.4   12302   26.0   15.4   0.2   0.3   0.5   2.4   3.6   2.3   1.3   0.0   0.0   0.0   0.3   0.6   0.7   0.8   1.2  1.86  0.71  0.00  0.00  0.00   24.84   29.16    0.76    0.00    0.00
 2001 159    62     0     0     5.4   39.3   12302   24.1   15.2   0.4   0.3   0.4   2.0   3.2   2.3   1.3   0.0   0.0   0.0   0.2   0.6   0.7   0.8   1.1  1.88  0.71  0.00  0.00  0.00   25.24   29.42    0.81    0.00    0.00
 2001 160    63     0     0     5.9   38.4   12302   23.2   15.2   0.4   0.3   0.3   1.9   3.0   2.3   1.2   0.0   0.0   0.0   0.1   0.6   0.7   0.8   1.1  1.89  0.71  0.00  0.00  0.00   25.63   29.67    0.84    0.00    0.00
 2001 161    64     0     0     6.1   37.6   12301   22.4   15.1   0.4   0.3   0.3   1.7   2.8   2.3   1.2   0.0   0.0   0.0   0.1   0.6   0.7   0.8   1.1  1.90  0.70  0.00  0.00  0.00   26.03   29.91    0.86    0.00    0.00
 2001 162    65     0     0     6.2   36.9   12301   21.9   15.1   0.4   0.3   0.3   1.6   2.6   2.3   1.2   0.0   0.0   0.0   0.1   0.6   0.7   0.8   1.1  1.91  0.70  0.00  0.00  0.00   26.42   30.21    0.87    0.00    0.00
 2001 163    66     0     0     6.3   35.1   12300   20.5   14.6   0.3   0.3   0.3   1.3   2.2   2.3   1.2   0.0   0.0   0.0   0.1   0.5   0.6   0.7   1.0  1.91  0.69  0.00  0.00  0.00   26.83   30.55    0.87    0.00    0.00
 2001 164    67     0     0     6.3   33.3   12300   19.1   14.2   0.3   0.3   0.3   1.0   1.7   2.3   1.2   0.0   0.0   0.0   0.1   0.5   0.6   0.7   0.9  1.92  0.68  0.00  0.00  0.00   27.25   30.94    0.88    0.00    0.00
 2001 165    68     0     0     6.3   32.0   12299   18.1   13.9   0.3   0.3   0.3   0.8   1.4   2.3   1.2   0.0   0.0   0.0   0.1   0.5   0.6   0.6   0.8  1.93  0.68  0.00  0.00  0.00   27.68   31.40    0.88    0.00    0.00
 2001 166    69     0     0     6.3   30.9   12299   17.3   13.6   0.2   0.4   0.3   0.6   1.1   2.3   1.3   0.0   0.0   0.0   0.1   0.5   0.6   0.6   0.7  1.94  0.67  0.00  0.00  0.00   28.14   31.85    0.88    0.00    0.00
 2001 167    70     0     0     6.4   29.9   12299   16.4   13.6   0.1   0.2   0.3   0.5   0.9   2.3   1.3   0.0   0.0   0.0   0.2   0.5   0.6   0.6   0.6  1.93  0.67  0.00  0.00  0.00   28.58   32.14    0.88    0.00    0.00
 2001 168    71     0     0     6.5   29.5   12298   15.9   13.6   0.2   0.2   0.3   0.4   0.8   2.2   1.3   0.0   0.0   0.0   0.2   0.6   0.6   0.6   0.6  1.92  0.66  0.00  0.00  0.00   28.99   32.28    0.89    0.00    0.00
 2001 169    72     0     0     6.6   29.0   12298   15.4   13.6   0.2   0.2   0.3   0.3   0.7   2.2   1.3   0.0   0.0   0.0   0.2   0.6   0.6   0.6   0.6  1.90  0.65  0.00  0.00  0.00   29.37   32.44    0.90    0.00    0.00
 2001 170    73     0     0     6.8   28.3   12297   14.9   13.5   0.2   0.3   0.3   0.3   0.6   2.1   1.4   0.0   0.0   0.0   0.2   0.5   0.6   0.6   0.6  1.88  0.65  0.00  0.00  0.00   29.72   32.59    0.91    0.00    0.00
 2001 171    74     0     0     7.0   27.0   12297   14.0   13.0   0.2   0.3   0.3   0.3   0.5   1.9   1.4   0.0   0.0   0.0   0.2   0.5   0.6   0.6   0.6  1.78  0.65  0.00  0.00  0.00   30.03   32.74    0.92    0.00    0.00
 2001 172    75     0     0     7.7   25.3   12297   12.6   12.7   0.2   0.3   0.3   0.2   0.4   1.7   1.3   0.0   0.0   0.0   0.2   0.5   0.6   0.6   0.6  1.70  0.64  0.00  0.00  0.00   30.32   32.86    0.94    0.00    0.00
 2001 173    76     0     0     8.1   23.8   12297   11.6   12.2   0.3   0.3   0.3   0.2   0.3   1.5   1.3   0.0   0.0   0.0   0.2   0.5   0.6   0.6   0.6  1.60  0.64  0.00  0.00  0.00   30.60   33.00    0.95    0.00    0.00
 2001 174    77     0     0     8.2   22.5   12296   10.8   11.7   0.3   0.3   0.3   0.3   0.3   1.3   1.3   0.0   0.0   0.0   0.2   0.5   0.6   0.6   0.6  1.49  0.63  0.00  0.00  0.00   30.88   33.17    0.95    0.00    0.00
 2001 175    78     0     0     8.3   21.4   12296   10.2   11.2   0.3   0.3   0.3   0.3   0.3   1.1   1.3   0.0   0.0   0.0   0.1   0.5   0.5   0.6   0.6  1.38  0.63  0.00  0.00  0.00   31.15   33.34    0.95    0.00    0.00
 2001 176    79     0     0     8.3   20.4   12296    9.7   10.7   0.3   0.3   0.3   0.3   0.3   1.0   1.3   0.0   0.0   0.0   0.1   0.5   0.5   0.6   0.6  1.28  0.62  0.00  0.00  0.00   31.43   33.54    0.95    0.00    0.00
 2001 177    80     0     0     8.3   20.2   12295    9.6   10.6   0.3   0.3   0.3   0.3   0.3   1.0   1.3   0.0   0.0   0.0   0.1   0.5   0.5   0.6   0.6  1.26  0.62  0.00  0.00  0.00   31.72   33.74    0.96    0.00    0.00
 2001 178    81     0     0     8.3   19.4   12295    9.3   10.2   0.3   0.3   0.3   0.3   0.3   0.9   1.3   0.0   0.0   0.0   0.1   0.5   0.5   0.6   0.6  1.17  0.61  0.00  0.00  0.00   32.01   33.98    0.96    0.00    0.00
 2001 179    82     0     0     8.3   18.7   12295    8.9    9.8   0.3   0.3   0.3   0.3   0.3   0.8   1.3   0.0   0.0   0.0   0.1   0.5   0.5   0.5   0.6  1.10  0.61  0.00  0.00  0.00   32.31   34.21    0.96    0.00    0.00
 2001 180    83     0     0     8.3   18.0   12295    8.6    9.5   0.3   0.3   0.3   0.3   0.3   0.7   1.3   0.0   0.0   0.0   0.1   0.5   0.5   0.5   0.6  1.03  0.60  0.00  0.00  0.00   32.62   34.48    0.96    0.00    0.00
 2001 181    84     0     0     8.3   17.4   12294    8.3    9.2   0.3   0.3   0.3   0.3   0.3   0.6   1.3   0.0   0.0   0.0   0.1   0.5   0.5   0.5   0.5  0.97  0.60  0.00  0.00  0.00   32.94   34.74    0.96    0.00    0.00
 2001 182    85     0     0     8.3   16.9   12294    8.0    8.9   0.3   0.3   0.3   0.3   0.3   0.5   1.3   0.0   0.0   0.0   0.1   0.5   0.5   0.5   0.5  0.92  0.60  0.00  0.00  0.00   33.28   35.02    0.96    0.00    0.00
 2001 183    86     0     0     8.3   16.5   12294    7.8    8.7   0.3   0.3   0.3   0.3   0.3   0.4   1.3   0.0   0.0   0.0   0.1   0.4   0.5   0.5   0.5  0.88  0.59  0.00  0.00  0.00   33.63   35.30    0.96    0.00    0.00
 2001 184    87     0     0     8.3   16.2   12293    7.6    8.5   0.3   0.3   0.3   0.3   0.3   0.4   1.4   0.0   0.0   0.0   0.1   0.4   0.5   0.5   0.5  0.84  0.59  0.00  0.00  0.00   33.99   35.59    0.96    0.00    0.00
 2001 185    88     0     0     8.3   15.9   12293    7.5    8.4   0.3   0.3   0.3   0.3   0.3   0.3   1.4   0.0   0.0   0.0   0.1   0.4   0.5   0.5   0.5  0.80  0.58  0.00  0.00  0.00   34.36   35.88    0.96    0.00    0.00
 2001 186    89     0     0     8.3   15.6   12293    7.3    8.2   0.3   0.3   0.3   0.3   0.3   0.3   1.4   0.0   0.0   0.0   0.1   0.4   0.5   0.5   0.5  0.78  0.58  0.00  0.00  0.00   34.73   36.17    0.96    0.00    0.00
 2001 187    90     0     0     8.3   15.3   12292    7.2    8.1   0.3   0.3   0.3   0.3   0.3   0.3   1.4   0.0   0.0   0.0   0.1   0.4   0.5   0.5   0.5  0.75  0.57  0.00  0.00  0.00   35.08   36.45    0.96    0.00    0.00
 2001 188    91     0     0     8.3   15.2   12292    7.3    8.0   0.3   0.3   0.3   0.3   0.3   0.3   1.4   0.0   0.0   0.0   0.1   0.4   0.5   0.5   0.5  0.72  0.57  0.00  0.00  0.00   35.41   36.73    0.96    0.00    0.00
 2001 189    92     0     0     8.3   15.2   12292    7.3    7.9   0.3   0.3   0.3   0.3   0.3   0.3   1.4   0.0   0.0   0.0   0.1   0.4   0.5   0.5   0.5  0.70  0.57  0.00  0.00  0.00   35.76   37.03    0.96    0.00    0.00
 2001 190    93     0     0     8.3   15.1   12291    7.3    7.8   0.3   0.3   0.3   0.3   0.3   0.3   1.4   0.0   0.0   0.0   0.1   0.4   0.5   0.5   0.5  0.68  0.56  0.00  0.00  0.00   36.13   37.33    0.96    0.00    0.00
 2001 191    94     0     0     8.3   15.1   12291    7.4    7.7   0.3   0.3   0.3   0.3   0.3   0.3   1.4   0.0   0.0   0.0   0.1   0.4   0.5   0.5   0.5  0.67  0.56  0.00  0.00  0.00   36.53   37.66    0.96    0.00    0.00
 2001 192    95     0     0     8.3   15.1   12290    7.4    7.7   0.1   0.3   0.3   0.3   0.3   0.3   1.4   0.0   0.0   0.0   0.1   0.4   0.5   0.5   0.5  0.65  0.55  0.00  0.00  0.00   36.92   37.98    0.96    0.00    0.00
 2001 193    96     0     0     8.9   14.4   12290    6.6    7.8   0.1   0.3   0.2   0.3   0.3   0.3   1.3   0.0   0.0   0.0   0.1   0.5   0.6   0.5   0.5  0.65  0.55  0.00  0.00  0.00   37.31   38.09    0.96    0.00    0.00
 2001 194    97     0     0     9.2   14.3   12290    6.4    7.9   0.2   0.3   0.2   0.2   0.3   0.3   1.2   0.0   0.0   0.0   0.1   0.5   0.6   0.5   0.5  0.64  0.55  0.00  0.00  0.00   37.66   38.24    0.96    0.00    0.00
 2001 195    98     0     0     9.4   14.2   12289    6.3    7.9   0.2   0.3   0.3   0.3   0.3   0.3   1.2   0.0   0.0   0.0   0.1   0.5   0.6   0.6   0.5  0.64  0.54  0.00  0.00  0.00   37.98   38.37    0.96    0.00    0.00
 2001 196    99     0     0     9.4   14.2   12289    6.3    7.8   0.3   0.3   0.3   0.3   0.3   0.3   1.1   0.0   0.0   0.0   0.1   0.5   0.6   0.6   0.5  0.63  0.54  0.00  0.00  0.00   38.26   38.51    0.96    0.00    0.00
 2001 197   100     0     0     9.4   14.2   12289    6.4    7.8   0.3   0.3   0.3   0.3   0.3   0.3   1.1   0.0   0.0   0.0   0.1   0.5   0.6   0.6   0.6  0.63  0.54  0.00  0.00  0.00   38.56   38.67    0.96    0.00    0.00
 2001 198   101     0     0     9.4   14.2   12289    6.5    7.7   0.3   0.3   0.3   0.3   0.3   0.3   1.2   0.0   0.0   0.0   0.1   0.5   0.5   0.6   0.6  0.62  0.53  0.00  0.00  0.00   38.88   38.87    0.97    0.00    0.00
 2001 199   102     0     0     9.4   14.2   12288    6.5    7.7   0.2   0.3   0.3   0.3   0.3   0.3   1.2   0.0   0.0   0.0   0.1   0.5   0.5   0.6   0.6  0.62  0.53  0.00  0.00  0.00   39.23   39.07    0.97    0.00    0.00
 2001 200   103     0     0     9.4   14.2   12288    6.5    7.8   0.3   0.3   0.3   0.3   0.3   0.3   1.2   0.0   0.0   0.0   0.2   0.5   0.5   0.6   0.6  0.62  0.53  0.00  0.00  0.00   39.60   39.25    0.97    0.00    0.00
 2001 201   104     0     0     9.5   14.3   12287    6.5    7.8   0.2   0.3   0.3   0.3   0.3   0.3   1.2   0.0   0.0   0.0   0.1   0.5   0.6   0.6   0.6  0.62  0.52  0.00  0.00  0.00   39.98   39.43    0.97    0.00    0.00
 2001 202   105     0     0     9.8   14.0   12287    6.1    7.9   0.2   0.3   0.3   0.3   0.3   0.3   1.1   0.0   0.0   0.0   0.2   0.6   0.6   0.6   0.6  0.62  0.52  0.00  0.00  0.00   40.34   39.54    0.97    0.00    0.00
 2001 203   106     0     0    10.0   13.9   12287    6.0    7.9   0.3   0.3   0.3   0.3   0.3   0.3   1.0   0.0   0.0   0.0   0.1   0.6   0.6   0.6   0.6  0.62  0.52  0.00  0.00  0.00   40.68   39.70    0.97    0.00    0.00
 2001 204   107     0     0    10.1   13.9   12286    6.0    7.9   0.3   0.3   0.3   0.3   0.3   0.3   1.0   0.0   0.0   0.0   0.1   0.5   0.6   0.6   0.6  0.62  0.51  0.00  0.00  0.00   41.00   39.85    0.97    0.00    0.00
 2001 205   108     0     0    10.1   13.9   12286    6.0    7.9   0.3   0.3   0.3   0.3   0.3   0.3   1.0   0.0   0.0   0.0   0.1   0.5   0.6   0.6   0.6  0.62  0.51  0.00  0.00  0.00   41.29   40.01    0.97    0.00    0.00
 2001 206   109     0     0    10.1   14.1   12286    6.1    8.0   0.3   0.3   0.3   0.3   0.3   0.3   1.0   0.0   0.0   0.0   0.1   0.5   0.6   0.6   0.6  0.63  0.51  0.00  0.00  0.00   41.56   40.17    0.97    0.00    0.00
 2001 207   110     0     0    10.1   14.3   12286    6.3    8.1   0.3   0.4   0.3   0.3   0.3   0.3   1.0   0.0   0.0   0.0   0.1   0.5   0.6   0.6   0.6  0.65  0.51  0.00  0.00  0.00   41.83   40.33    0.97    0.00    0.00
 2001 208   111     0     0    10.1   14.6   12285    6.4    8.2   0.3   0.4   0.3   0.3   0.3   0.3   1.0   0.0   0.0   0.0   0.1   0.5   0.6   0.6   0.6  0.66  0.50  0.00  0.00  0.00   42.08   40.47    0.97    0.00    0.00
 2001 209   112     0     0    10.1   14.8   12285    6.5    8.3   0.3   0.4   0.3   0.3   0.3   0.3   1.0   0.0   0.0   0.0   0.1   0.5   0.6   0.6   0.6  0.67  0.50  0.00  0.00  0.00   42.33   40.59    0.97    0.00    0.00
 2001 210   113     0     0    10.2   15.1   12285    6.6    8.4   0.4   0.4   0.3   0.3   0.3   0.3   1.1   0.0   0.0   0.0   0.1   0.5   0.7   0.6   0.6  0.68  0.50  0.00  0.00  0.00   42.59   40.72    0.97    0.00    0.00
 2001 211   114     0     0    10.2   15.3   12285    6.8    8.5   0.4   0.5   0.3   0.3   0.3   0.3   1.1   0.0   0.0   0.0   0.1   0.5   0.7   0.7   0.7  0.70  0.49  0.00  0.00  0.00   42.85   40.88    0.98    0.00    0.00
 2001 212   115     0     0    10.2   15.6   12284    7.0    8.6   0.5   0.5   0.4   0.3   0.3   0.3   1.1   0.0   0.0   0.0   0.1   0.5   0.7   0.7   0.7  0.71  0.49  0.00  0.00  0.00   43.12   41.06    0.98    0.00    0.00
 2001 213   116     0     0    10.2   15.9   12284    7.2    8.7   0.5   0.6   0.4   0.3   0.3   0.3   1.1   0.0   0.0   0.0   0.1   0.5   0.7   0.7   0.7  0.72  0.49  0.00  0.00  0.00   43.42   41.26    0.98    0.00    0.00
 2001 214   117     0     0    10.2   16.3   12284    7.4    8.8   0.5   0.7   0.4   0.3   0.3   0.3   1.1   0.0   0.0   0.0   0.1   0.5   0.7   0.7   0.7  0.73  0.49  0.00  0.00  0.00   43.78   41.50    0.98    0.00    0.00
 2001 215   118     0     0    10.2   16.7   12283    7.7    9.0   0.6   0.7   0.5   0.3   0.3   0.3   1.1   0.0   0.0   0.0   0.1   0.5   0.7   0.7   0.7  0.75  0.48  0.00  0.00  0.00   44.19   41.77    0.98    0.00    0.00
 2001 216   119     0     0    10.2   17.1   12283    8.0    9.1   0.7   0.8   0.5   0.3   0.3   0.3   1.1   0.0   0.0   0.0   0.1   0.5   0.7   0.7   0.7  0.76  0.48  0.00  0.00  0.00   44.64   42.09    0.98    0.00    0.00
 2001 217   120     0     0    10.2   17.6   12282    8.4    9.2   0.8   0.9   0.6   0.4   0.4   0.3   1.1   0.0   0.0   0.0   0.1   0.5   0.7   0.7   0.7  0.78  0.48  0.00  0.00  0.00   45.12   42.49    0.98    0.00    0.00
 2001 218   121     0     0    10.2   18.1   12282    8.8    9.3   0.9   1.0   0.6   0.4   0.4   0.3   1.1   0.0   0.0   0.0   0.1   0.4   0.8   0.7   0.8  0.79  0.48  0.00  0.00  0.00   45.60   42.89    0.98    0.00    0.00
 2001 219   122     0     0    10.2   18.5   12282    9.2    9.3   0.9   1.1   0.7   0.5   0.4   0.3   1.1   0.0   0.0   0.0   0.1   0.4   0.8   0.7   0.8  0.81  0.47  0.00  0.00  0.00   46.06   43.28    0.98    0.00    0.00
 2001 220   123     0     0    10.2   19.0   12281    9.5    9.4   0.9   1.2   0.7   0.5   0.4   0.3   1.1   0.0   0.0   0.0   0.1   0.4   0.8   0.7   0.8  0.82  0.47  0.00  0.00  0.00   46.50   43.61    0.98    0.00    0.00
 2001 221   124     0     0    10.2   19.4   12281    9.9    9.5   1.0   1.3   0.8   0.5   0.4   0.3   1.2   0.0   0.0   0.0   0.1   0.4   0.8   0.7   0.8  0.84  0.47  0.00  0.00  0.00   46.90   43.96    0.98    0.00    0.00
 2001 222   125     0     0    10.2   19.7   12280   10.2    9.6   1.1   1.3   0.8   0.6   0.4   0.3   1.2   0.0   0.0   0.0   0.1   0.4   0.8   0.7   0.8  0.85  0.47  0.00  0.00  0.00   47.28   44.27    0.98    0.00    0.00
 2001 223   126     0     0    10.2   20.1   12280   10.5    9.6   1.1   1.4   0.9   0.6   0.4   0.3   1.2   0.0   0.0   0.0   0.1   0.4   0.8   0.7   0.8  0.86  0.47  0.00  0.00  0.00   47.64   44.56    0.98    0.00    0.00
 2001 224   127     0     0    10.2   20.5   12280   10.7    9.7   1.2   1.4   0.9   0.6   0.4   0.3   1.2   0.0   0.0   0.0   0.1   0.4   0.8   0.7   0.8  0.87  0.46  0.00  0.00  0.00   47.99   44.85    0.98    0.00    0.00
 2001 225   128     0     0    10.2   20.8   12279   11.1    9.8   1.3   1.5   1.0   0.7   0.4   0.3   1.2   0.0   0.0   0.0   0.1   0.4   0.8   0.7   0.9  0.89  0.46  0.00  0.00  0.00   48.35   45.15    0.98    0.00    0.00
 2001 226   129     0     0    10.2   21.2   12279   11.4    9.8   1.4   1.5   1.0   0.7   0.5   0.3   1.2   0.0   0.0   0.0   0.1   0.4   0.8   0.7   0.9  0.90  0.46  0.00  0.00  0.00   48.73   45.46    0.99    0.00    0.00
 2001 227   130     0     0    10.2   21.6   12279   11.7    9.9   1.5   1.6   1.1   0.7   0.5   0.3   1.2   0.0   0.0   0.0   0.1   0.4   0.8   0.7   0.9  0.91  0.46  0.00  0.00  0.00   49.15   45.81    0.99    0.00    0.00
 2001 228   131     0     0    10.2   22.0   12278   12.1    9.9   1.3   1.8   1.1   0.8   0.5   0.3   1.2   0.0   0.0   0.0   0.1   0.4   0.8   0.7   0.9  0.93  0.45  0.00  0.00  0.00   49.57   46.22    0.99    0.00    0.00
 2001 229   132     0     0    10.2   22.5   12278   12.5   10.0   1.1   1.9   1.2   0.8   0.6   0.3   1.2   0.0   0.0   0.0   0.2   0.4   0.8   0.7   0.8  0.94  0.45  0.00  0.00  0.00   50.01   46.61    0.99    0.00    0.00
 2001 230   133     0     0    10.2   22.9   12277   12.9   10.0   1.0   1.9   1.3   0.9   0.6   0.3   1.2   0.0   0.0   0.0   0.2   0.5   0.8   0.6   0.8  0.95  0.45  0.00  0.00  0.00   50.43   46.96    0.99    0.00    0.00
 2001 231   134     0     0    10.2   23.3   12277   13.1   10.2   0.7   1.8   1.5   0.9   0.7   0.3   1.2   0.0   0.0   0.0   0.2   0.5   0.9   0.6   0.8  0.97  0.45  0.00  0.00  0.00   50.84   47.24    0.99    0.00    0.00
 2001 232   135     0     0    10.6   23.3   12277   12.9   10.4   0.8   1.7   1.4   1.0   0.7   0.4   1.1   0.0   0.0   0.0   0.2   0.6   0.9   0.7   0.8  0.98  0.45  0.00  0.00  0.00   51.22   47.40    0.99    0.00    0.00
 2001 233   136     0     0    10.7   23.4   12276   12.9   10.5   0.9   1.7   1.4   1.0   0.7   0.4   1.1   0.0   0.0   0.0   0.2   0.6   0.9   0.7   0.8  0.99  0.45  0.00  0.00  0.00   51.58   47.61    0.99    0.00    0.00
 2001 234   137     0     0    10.8   23.7   12276   13.0   10.7   1.0   1.7   1.4   1.0   0.7   0.4   1.1   0.0   0.0   0.0   0.1   0.6   1.0   0.7   0.8  1.00  0.44  0.00  0.00  0.00   51.93   47.81    0.99    0.00    0.00
 2001 235   138     0     0    10.8   24.0   12276   13.2   10.8   1.1   1.8   1.5   1.0   0.7   0.4   1.1   0.0   0.0   0.0   0.1   0.6   1.0   0.7   0.9  1.01  0.44  0.00  0.00  0.00   52.27   48.05    0.99    0.00    0.00
 2001 236   139     0     0    10.8   24.4   12275   13.5   10.9   1.2   1.8   1.5   1.0   0.8   0.4   1.1   0.0   0.0   0.0   0.1   0.6   1.0   0.7   0.9  1.03  0.44  0.00  0.00  0.00   52.61   48.28    0.99    0.00    0.00
 2001 237   140     0     0    10.8   24.7   12275   13.8   11.0   1.3   1.9   1.5   1.0   0.8   0.4   1.1   0.0   0.0   0.0   0.1   0.6   1.0   0.7   0.9  1.04  0.44  0.00  0.00  0.00   52.96   48.57    1.00    0.00    0.00
 2001 238   141     0     0    10.8   25.1   12275   14.1   11.0   1.4   1.9   1.6   1.0   0.8   0.4   1.1   0.0   0.0   0.0   0.1   0.5   1.0   0.8   0.9  1.05  0.44  0.00  0.00  0.00   53.32   48.87    1.00    0.00    0.00
 2001 239   142     0     0    10.8   25.5   12274   14.4   11.1   1.4   2.1   1.6   1.0   0.8   0.4   1.1   0.0   0.0   0.0   0.1   0.5   1.0   0.8   0.9  1.06  0.44  0.00  0.00  0.00   53.70   49.17    1.00    0.00    0.00
 2001 240   143     0     0    10.8   25.8   12274   14.7   11.2   1.3   2.2   1.7   1.1   0.8   0.4   1.1   0.0   0.0   0.0   0.1   0.5   1.0   0.8   0.9  1.07  0.43  0.00  0.00  0.00   54.08   49.46    1.00    0.00    0.00
 2001 241   144     0     0    10.8   26.2   12273   15.0   11.2   1.4   2.2   1.7   1.1   0.8   0.4   1.1   0.0   0.0   0.0   0.1   0.5   1.0   0.8   0.9  1.09  0.43  0.00  0.00  0.00   54.48   49.85    1.00    0.00    0.00
 2001 242   145     0     0    10.8   26.6   12273   15.4   11.2   1.5   2.3   1.8   1.1   0.8   0.4   1.1   0.0   0.0   0.0   0.1   0.5   1.0   0.8   0.9  1.10  0.43  0.00  0.00  0.00   54.87   50.22    1.00    0.00    0.00
 2001 243   146     0     0    10.8   27.0   12273   15.8   11.2   1.6   2.4   1.9   1.2   0.8   0.4   1.1   0.0   0.0   0.0   0.1   0.5   1.0   0.8   1.0  1.11  0.43  0.00  0.00  0.00   55.28   50.60    1.00    0.00    0.00
 2001 244   147     0     0    10.8   27.4   12272   16.1   11.3   1.4   2.6   1.9   1.2   0.9   0.4   1.1   0.0   0.0   0.0   0.1   0.5   1.0   0.7   1.0  1.12  0.43  0.00  0.00  0.00   55.68   50.96    1.00    0.00    0.00
 2001 245   148     0     0    11.0   27.7   12272   16.3   11.4   0.6   1.8   2.1   1.6   1.0   0.5   1.1   0.0   0.0   0.0   0.2   0.5   1.0   0.7   1.0  1.13  0.43  0.00  0.00  0.00   56.08   51.26    1.00    0.00    0.00
 2001 246   149     0     0    11.2   27.8   12271   16.2   11.6   0.3   1.4   2.0   1.6   1.1   0.6   1.1   0.0   0.0   0.0   0.2   0.6   1.0   0.8   1.0  1.15  0.43  0.00  0.00  0.00   56.43   51.36    1.02    0.00    0.00
 2001 247   150     0     0    11.7   27.6   12271   15.8   11.9   0.3   1.3   1.9   1.6   1.2   0.6   1.0   0.0   0.0   0.0   0.2   0.6   1.0   0.8   1.0  1.16  0.43  0.00  0.00  0.00   56.73   51.43    1.04    0.00    0.00
 2001 248   151     0     0    12.4   27.2   12271   15.1   12.1   0.4   1.2   1.8   1.5   1.2   0.6   0.9   0.0   0.0   0.0   0.2   0.6   1.1   0.8   1.0  1.17  0.43  0.00  0.00  0.00   57.06   51.55    1.06    0.00    0.00
 2001 249   152     0     0    12.9   27.0   12271   14.8   12.2   0.5   1.2   1.7   1.5   1.2   0.6   0.8   0.0   0.0   0.0   0.2   0.7   1.1   0.8   1.0  1.18  0.43  0.00  0.00  0.00   57.40   51.74    1.08    0.00    0.00
 2001 250   153     0     0    13.0   27.2   12270   14.9   12.4   0.5   1.3   1.7   1.5   1.2   0.6   0.8   0.0   0.0   0.0   0.1   0.7   1.1   0.8   1.0  1.20  0.43  0.00  0.00  0.00   57.73   51.94    1.09    0.00    0.00
 2001 251   154     0     0    13.2   27.4   12270   14.9   12.5   0.3   1.0   1.7   1.6   1.3   0.7   0.8   0.0   0.0   0.0   0.2   0.7   1.1   0.8   1.1  1.21  0.43  0.00  0.00  0.00   58.07   52.12    1.11    0.00    0.00
 2001 252   155     0     0    13.7   27.1   12270   14.5   12.7   0.4   0.9   1.6   1.5   1.3   0.7   0.7   0.0   0.0   0.0   0.1   0.7   1.2   0.9   1.1  1.22  0.43  0.00  0.00  0.00   58.41   52.27    1.16    0.00    0.00
 2001 253   156     0     0    14.0   27.2   12269   14.3   12.9   0.4   0.9   1.5   1.5   1.3   0.8   0.7   0.0   0.0   0.0   0.1   0.7   1.2   0.9   1.1  1.23  0.43  0.00  0.00  0.00   58.75   52.46    1.19    0.00    0.00
 2001 254   157     0     0    14.2   27.3   12269   14.3   13.0   0.5   1.0   1.5   1.5   1.3   0.8   0.6   0.0   0.0   0.0   0.1   0.7   1.2   0.9   1.1  1.24  0.42  0.00  0.00  0.00   59.10   52.67    1.21    0.00    0.00
 2001 255   158     0     0    14.2   27.6   12269   14.5   13.1   0.6   1.1   1.5   1.5   1.3   0.8   0.6   0.0   0.0   0.0   0.1   0.7   1.2   0.9   1.1  1.25  0.42  0.00  0.00  0.00   59.44   52.95    1.22    0.00    0.00
 2001 256   159     0     0    14.3   27.9   12268   14.7   13.1   0.7   1.1   1.6   1.5   1.3   0.8   0.6   0.0   0.0   0.0   0.1   0.7   1.3   0.9   1.1  1.26  0.42  0.00  0.00  0.00   59.79   53.22    1.22    0.00    0.00
 2001 257   160     0     0    14.3   28.2   12268   15.1   13.1   0.8   1.2   1.6   1.5   1.3   0.8   0.6   0.0   0.0   0.0   0.1   0.6   1.2   0.9   1.1  1.27  0.42  0.00  0.00  0.00   60.11   53.54    1.23    0.00    0.00
 2001 258   161     0     0    14.3   28.5   12268   15.4   13.1   0.8   1.3   1.7   1.5   1.4   0.8   0.6   0.0   0.0   0.0   0.1   0.6   1.2   0.9   1.1  1.28  0.42  0.00  0.00  0.00   60.44   53.85    1.23    0.00    0.00
 2001 259   162     0     0    14.3   28.8   12267   15.7   13.2   0.9   1.3   1.7   1.5   1.4   0.8   0.7   0.0   0.0   0.0   0.1   0.6   1.2   1.0   1.1  1.29  0.42  0.00  0.00  0.00   60.75   54.15    1.23    0.00    0.00
 2001 260   163     0     0    14.3   29.1   12267   16.0   13.2   1.0   1.4   1.8   1.5   1.4   0.8   0.7   0.0   0.0   0.0   0.1   0.6   1.2   1.0   1.1  1.30  0.42  0.00  0.00  0.00   61.06   54.44    1.23    0.00    0.00
 2001 261   164     0     0    14.3   29.4   12267   16.3   13.1   1.0   1.4   1.8   1.6   1.4   0.8   0.7   0.0   0.0   0.0   0.1   0.5   1.2   0.9   1.1  1.31  0.42  0.00  0.00  0.00   61.35   54.77    1.23    0.00    0.00
 2001 262   165     0     0    14.3   29.8   12266   16.6   13.1   1.1   1.5   1.9   1.6   1.4   0.8   0.7   0.0   0.0   0.0   0.1   0.5   1.2   0.9   1.1  1.32  0.41  0.00  0.00  0.00   61.67   55.12    1.23    0.00    0.00
 2001 263   166     0     0    14.3   30.1   12266   17.0   13.1   1.2   1.6   2.0   1.7   1.4   0.8   0.7   0.0   0.0   0.0   0.1   0.5   1.1   0.9   1.2  1.33  0.41  0.00  0.00  0.00   62.02   55.49    1.24    0.00    0.00
 2001 264   167     0     0    14.3   30.5   12266   17.4   13.1   1.3   1.6   2.0   1.7   1.4   0.8   0.7   0.0   0.0   0.0   0.1   0.5   1.1   0.9   1.2  1.34  0.41  0.00  0.00  0.00   62.40   55.89    1.24    0.00    0.00
 2001 265   168     0     0    14.3   30.9   12265   17.8   13.1   1.4   1.7   2.1   1.8   1.5   0.8   0.7   0.0   0.0   0.0   0.1   0.5   1.1   0.9   1.2  1.35  0.41  0.00  0.00  0.00   62.80   56.31    1.24    0.00    0.00
 2001 266   169     0     0    14.3   31.3   12265   18.3   13.0   1.5   1.8   2.2   1.8   1.5   0.8   0.7   0.0   0.0   0.0   0.1   0.5   1.1   0.9   1.2  1.36  0.41  0.00  0.00  0.00   63.23   56.76    1.24    0.00    0.00
 2001 267   170     0     0    14.3   31.7   12264   18.7   13.0   1.6   1.9   2.2   1.8   1.5   0.8   0.7   0.0   0.0   0.0   0.1   0.5   1.1   0.8   1.2  1.38  0.41  0.00  0.00  0.00   63.68   57.22    1.24    0.00    0.00
 2001 268   171     0     0    14.3   32.2   12264   19.2   13.0   1.7   2.0   2.3   1.9   1.5   0.8   0.7   0.0   0.0   0.0   0.1   0.5   1.1   0.8   1.2  1.39  0.41  0.00  0.00  0.00   64.11   57.67    1.24    0.00    0.00
 2001 269   172     0     0    14.3   32.6   12264   19.6   13.0   1.7   2.1   2.4   1.9   1.5   0.8   0.7   0.0   0.0   0.0   0.1   0.5   1.1   0.8   1.2  1.40  0.41  0.00  0.00  0.00   64.53   58.09    1.24    0.00    0.00
 2001 270   173     0     0    14.3   33.0   12263   20.1   12.9   1.8   2.2   2.4   2.0   1.6   0.8   0.7   0.0   0.0   0.0   0.1   0.5   1.1   0.8   1.2  1.41  0.40  0.00  0.00  0.00   64.94   58.57    1.24    0.00    0.00
 2001 271   174     0     0    14.3   33.4   12263   20.5   12.9   1.9   2.2   2.5   2.0   1.6   0.9   0.7   0.0   0.0   0.0   0.1   0.5   1.0   0.8   1.1  1.42  0.40  0.00  0.00  0.00   65.32   59.02    1.24    0.00    0.00
 2001 272   175     0     0    14.3   33.8   12262   20.9   12.8   2.0   2.3   2.6   2.0   1.7   0.9   0.7   0.0   0.0   0.0   0.1   0.4   1.0   0.8   1.1  1.43  0.40  0.00  0.00  0.00   65.69   59.44    1.24    0.00    0.00
 2001 273   176     0     0    14.3   34.1   12262   21.4   12.8   1.7   2.5   2.6   2.1   1.7   0.9   0.8   0.0   0.0   0.0   0.1   0.4   1.0   0.8   1.1  1.44  0.40  0.00  0.00  0.00   66.04   59.86    1.25    0.00    0.00
 2001 274   177     0     0    14.3   34.4   12262   21.7   12.8   0.8   1.9   2.8   2.4   2.0   0.9   0.8   0.0   0.0   0.0   0.1   0.5   1.0   0.8   1.1  1.45  0.40  0.00  0.00  0.00   66.40   60.21    1.25    0.00    0.00
 2001 275   178     0     0    14.4   34.7   12261   21.7   13.0   0.6   1.7   2.6   2.4   2.0   1.0   0.8   0.0   0.0   0.0   0.1   0.5   1.1   0.8   1.1  1.46  0.40  0.00  0.00  0.00   66.77   60.37    1.25    0.00    0.00
 2001 276   179     0     0    14.6   34.9   12261   21.7   13.2   0.6   1.7   2.6   2.4   2.1   1.0   0.8   0.0   0.0   0.0   0.2   0.6   1.1   0.8   1.1  1.47  0.40  0.00  0.00  0.00   67.14   60.50    1.26    0.00    0.00
 2001 277   180     0     0    14.7   35.1   12261   21.7   13.5   0.6   1.6   2.5   2.4   2.1   1.1   0.8   0.0   0.0   0.0   0.2   0.6   1.1   0.8   1.1  1.48  0.40  0.00  0.00  0.00   67.53   60.65    1.27    0.00    0.00
 2001 278   181     0     0    14.9   35.4   12260   21.7   13.6   0.7   1.6   2.5   2.4   2.1   1.1   0.8   0.0   0.0   0.0   0.1   0.6   1.2   0.8   1.1  1.49  0.40  0.00  0.00  0.00   67.93   60.85    1.28    0.00    0.00
 2001 279   182     0     0    15.0   35.6   12260   21.7   13.8   0.8   1.6   2.4   2.3   2.1   1.1   0.8   0.0   0.0   0.0   0.1   0.7   1.2   0.9   1.1  1.50  0.40  0.00  0.00  0.00   68.33   61.06    1.35    0.00    0.00
 2001 280   183     0     0    15.4   35.6   12259   21.6   13.9   0.9   1.7   2.4   2.3   2.1   1.1   0.8   0.0   0.0   0.0   0.1   0.6   1.2   0.9   1.1  1.51  0.40  0.00  0.00  0.00   68.73   61.35    1.40    0.00    0.00
 2001 281   184     0     0    15.4   35.9   12259   21.8   14.0   1.0   1.8   2.4   2.3   2.1   1.1   0.8   0.0   0.0   0.0   0.1   0.6   1.3   0.9   1.2  1.53  0.40  0.00  0.00  0.00   69.13   61.65    1.43    0.00    0.00
 2001 282   185     0     0    15.5   36.2   12259   22.0   14.2   0.8   1.9   2.5   2.3   2.1   1.1   0.8   0.0   0.0   0.0   0.1   0.6   1.3   0.9   1.2  1.54  0.40  0.00  0.00  0.00   69.54   61.93    1.45    0.00    0.00
 2001 283   186     0     0    15.6   36.5   12258   22.1   14.4   0.8   1.9   2.5   2.3   2.1   1.1   0.8   0.0   0.0   0.0   0.2   0.6   1.3   0.9   1.2  1.55  0.40  0.00  0.00  0.00   69.94   62.15    1.47    0.00    0.00
 2001 284   187     0     0    15.6   36.8   12258   22.3   14.5   0.9   1.9   2.5   2.3   2.1   1.2   0.8   0.0   0.0   0.0   0.1   0.6   1.3   0.9   1.2  1.56  0.40  0.00  0.00  0.00   70.36   62.42    1.49    0.00    0.00
 2001 285   188     0     0    15.8   37.0   12257   22.4   14.6   1.0   2.0   2.5   2.3   2.1   1.2   0.7   0.0   0.0   0.0   0.1   0.7   1.3   1.0   1.2  1.57  0.40  0.00  0.00  0.00   70.76   62.69    1.52    0.00    0.00
 2001 286   189     0     0    15.9   37.3   12257   22.6   14.7   1.1   2.0   2.5   2.3   2.1   1.2   0.7   0.0   0.0   0.0   0.1   0.6   1.4   1.0   1.2  1.58  0.40  0.00  0.00  0.00   71.16   63.02    1.53    0.00    0.00
 2001 287   190     0     0    15.9   37.7   12257   23.0   14.7   1.3   2.1   2.6   2.3   2.1   1.2   0.7   0.0   0.0   0.0   0.1   0.6   1.3   1.0   1.2  1.58  0.40  0.00  0.00  0.00   71.56   63.43    1.54    0.00    0.00
 2001 288   191     0     0    15.9   38.1   12256   23.4   14.7   1.4   2.2   2.7   2.3   2.1   1.2   0.8   0.0   0.0   0.0   0.1   0.6   1.3   1.0   1.2  1.59  0.40  0.00  0.00  0.00   71.96   63.84    1.54    0.00    0.00
 2001 289   192     0     0    15.9   38.5   12256   23.8   14.7   1.3   2.4   2.8   2.3   2.1   1.2   0.8   0.0   0.0   0.0   0.1   0.5   1.3   1.0   1.2  1.60  0.39  0.00  0.00  0.00   72.35   64.22    1.55    0.00    0.00
 2001 290   193     0     0    16.0   38.8   12255   24.0   14.7   0.5   1.7   2.7   2.5   2.3   1.3   0.8   0.0   0.0   0.0   0.1   0.5   1.3   1.0   1.2  1.61  0.39  0.00  0.00  0.00   72.73   64.57    1.55    0.00    0.00
 2001 291   194     0     0    16.2   38.9   12255   24.0   15.0   0.5   1.7   2.7   2.5   2.3   1.4   0.8   0.0   0.0   0.0   0.2   0.6   1.3   1.0   1.3  1.62  0.39  0.00  0.00  0.00   73.10   64.70    1.60    0.00    0.00
 2001 292   195     0     0    16.7   38.7   12255   23.5   15.2   0.6   1.6   2.6   2.4   2.3   1.4   0.8   0.0   0.0   0.0   0.2   0.6   1.3   1.1   1.3  1.63  0.39  0.00  0.00  0.00   73.48   64.86    1.65    0.00    0.00
 2001 293   196     0     0    17.1   38.7   12254   23.4   15.3   0.7   1.6   2.5   2.4   2.3   1.4   0.8   0.0   0.0   0.0   0.1   0.6   1.4   1.1   1.3  1.64  0.39  0.00  0.00  0.00   73.88   65.13    1.68    0.00    0.00
 2001 294   197     0     0    17.1   39.1   12254   23.7   15.4   0.5   1.6   2.6   2.5   2.3   1.4   0.8   0.0   0.0   0.0   0.1   0.6   1.4   1.1   1.3  1.65  0.39  0.00  0.00  0.00   74.30   65.48    1.69    0.00    0.00
 2001 295   198     0     0    17.5   39.0   12253   23.4   15.6   0.5   1.5   2.5   2.4   2.3   1.4   0.8   0.0   0.0   0.0   0.1   0.6   1.4   1.1   1.3  1.66  0.39  0.00  0.00  0.00   74.74   65.68    1.75    0.00    0.00
 2001 296   199     0     0    17.8   39.2   12253   23.4   15.8   0.6   1.5   2.4   2.4   2.3   1.5   0.8   0.0   0.0   0.0   0.1   0.7   1.4   1.1   1.3  1.67  0.39  0.00  0.00  0.00   75.17   65.97    1.79    0.00    0.00
 2001 297   200     0     0    17.9   39.5   12253   23.7   15.8   0.8   1.7   2.4   2.4   2.3   1.5   0.8   0.0   0.0   0.0   0.1   0.6   1.5   1.1   1.3  1.68  0.39  0.00  0.00  0.00   75.61   66.35    1.81    0.00    0.00
 2001 298   201     0     0    17.9   39.9   12252   24.0   15.9   0.9   1.8   2.4   2.4   2.3   1.5   0.8   0.0   0.0   0.0   0.1   0.6   1.5   1.2   1.3  1.69  0.39  0.00  0.00  0.00   76.05   66.73    1.82    0.00    0.00
 2001 299   202     0     0    17.9   40.3   12252   24.4   15.9   1.0   1.9   2.5   2.4   2.3   1.5   0.8   0.0   0.0   0.0   0.1   0.6   1.5   1.2   1.3  1.70  0.39  0.00  0.00  0.00   76.50   67.12    1.83    0.00    0.00
 2001 300   203     0     0    18.0   40.8   12251   24.9   15.9   0.7   1.9   2.7   2.4   2.4   1.5   0.8   0.0   0.0   0.0   0.1   0.5   1.5   1.2   1.3  1.71  0.39  0.00  0.00  0.00   76.95   67.63    1.83    0.00    0.00
 2001 301   204     0     0    18.0   41.2   12251   25.1   16.1   0.7   1.9   2.7   2.5   2.4   1.5   0.9   0.0   0.0   0.0   0.2   0.6   1.5   1.2   1.3  1.72  0.39  0.00  0.00  0.00   77.42   67.88    1.84    0.00    0.00
 2001 302   205     0     0    18.0   41.6   12250   25.3   16.3   0.7   1.8   2.7   2.5   2.4   1.6   0.9   0.0   0.0   0.0   0.2   0.6   1.5   1.2   1.3  1.73  0.39  0.00  0.00  0.00   77.88   68.14    1.86    0.00    0.00
 2001 303   206     0     0    18.1   42.0   12250   25.5   16.5   0.6   1.7   2.7   2.5   2.5   1.6   0.9   0.0   0.0   0.0   0.2   0.7   1.5   1.2   1.4  1.74  0.39  0.00  0.00  0.00   78.33   68.39    1.89    0.00    0.00
 2001 304   207     0     0    18.5   41.9   12249   25.3   16.7   0.8   1.7   2.6   2.5   2.4   1.6   0.9   0.0   0.0   0.0   0.1   0.7   1.6   1.2   1.4  1.75  0.39  0.00  0.00  0.00   78.76   68.67    1.92    0.00    0.00
 2001 305   208     0     0    18.7   42.1   12249   25.3   16.8   0.9   1.7   2.6   2.4   2.4   1.6   0.9   0.0   0.0   0.0   0.1   0.7   1.6   1.3   1.4  1.76  0.38  0.00  0.00  0.00   79.19   68.97    1.96    0.00    0.00

*DSSAT Cropping System Model Ver. 4.0.2.000               Aug 12, 2016; 12:47:54

*RUN   2        : UYMZ                    
 MODEL          : MZCER040 - Maize           
 EXPERIMENT     : UYMZ0196 MZ    late to create DSS                             
 TREATMENT  1   : UYMZ                    

@YEAR DOY   DAS  NAPC  NI#M    NLCC   NIAD    NOAD   NITD   NHTD  NI1D  NI2D  NI3D  NI4D  NI5D  NI6D  NI7D  NI8D  NI9D  NI10  NH1D  NH2D  NH3D  NH4D  NH5D  NH6D  NH7D  NH8D  NH9D  NH10    NMNC    NITC    NDNC    NIMC    AMLC
 2002 097     0     0     0     0.0   47.0   12327   27.3   19.7   6.6   5.4   5.9   3.5   0.1   0.0   0.0   0.0   0.0   0.0   0.0   1.2   1.4   1.4   1.4  1.50  1.47  0.00  0.00  0.00    0.53    2.13    0.00    0.00    0.00
 2002 098     1     0     0     0.0   47.5   12326   28.4   19.1   6.6   5.7   6.1   3.6   0.2   0.1   0.1   0.0   0.0   0.0   0.1   1.0   1.4   1.4   1.4  1.50  1.45  0.00  0.00  0.00    1.07    3.27    0.00    0.00    0.00
 2002 099     2     0     0     0.0   48.1   12325   29.5   18.5   6.7   6.0   6.2   3.7   0.3   0.1   0.1   0.0   0.0   0.0   0.1   0.9   1.3   1.3   1.3  1.50  1.42  0.00  0.00  0.00    1.61    4.37    0.00    0.00    0.00
 2002 100     3     0     0     0.0   48.6   12325   30.5   18.1   6.8   6.3   6.3   3.7   0.4   0.1   0.1   0.0   0.0   0.0   0.1   0.7   1.3   1.3   1.3  1.50  1.40  0.00  0.00  0.00    2.14    5.40    0.00    0.00    0.00
 2002 101     4     0     0     0.0   49.1   12324   31.5   17.6   2.1   8.3   6.8   3.8   0.5   0.1   0.2   0.0   0.0   0.0   0.1   0.7   1.2   1.2   1.2  1.50  1.38  0.00  0.00  0.00    2.66    6.33    0.00    0.00    0.00
 2002 102     5     0     0     0.0   49.6   12324   32.2   17.4   1.5   7.5   7.6   3.9   0.5   0.1   0.2   0.0   0.0   0.0   0.2   0.7   1.2   1.2   1.2  1.50  1.35  0.00  0.00  0.00    3.15    7.04    0.00    0.00    0.00
 2002 103     6     0     0     0.0   50.1   12323   32.9   17.2   1.6   7.1   8.0   3.9   0.6   0.2   0.2   0.0   0.0   0.0   0.2   0.7   1.2   1.1   1.1  1.50  1.33  0.00  0.00  0.00    3.62    7.72    0.00    0.00    0.00
 2002 104     7     0     0     0.0   50.5   12323   33.6   17.0   1.7   6.9   8.3   4.0   0.7   0.2   0.3   0.0   0.0   0.0   0.1   0.8   1.2   1.1   1.1  1.50  1.31  0.00  0.00  0.00    4.07    8.41    0.00    0.00    0.00
 2002 105     8     0     0     0.0   51.0   12323   34.3   16.7   1.8   7.0   8.4   4.1   0.7   0.2   0.3   0.0   0.0   0.0   0.1   0.7   1.1   1.1   1.1  1.50  1.29  0.00  0.00  0.00    4.49    9.12    0.00    0.00    0.00
 2002 106     9     0     0     0.0   51.4   12322   35.0   16.4   1.1   6.6   9.0   4.2   0.8   0.2   0.3   0.0   0.0   0.0   0.1   0.7   1.1   1.0   1.0  1.50  1.27  0.00  0.00  0.00    4.92    9.81    0.00    0.00    0.00
 2002 107    10     0     0     0.0   51.8   12322   35.4   16.4   0.5   4.4   8.1   5.6   1.7   0.3   0.3   0.0   0.0   0.0   0.2   0.7   1.1   1.0   1.0  1.50  1.25  0.00  0.00  0.00    5.36   10.30    0.00    0.00    0.00
 2002 108    11     0     0     0.2   52.1   12321   35.5   16.6   0.6   4.2   7.6   5.6   2.0   0.4   0.3   0.0   0.0   0.0   0.1   0.7   1.2   1.0   1.0  1.51  1.24  0.00  0.00  0.00    5.81   10.56    0.00    0.00    0.00
 2002 109    12     0     0     0.3   52.2   12321   35.5   16.7   0.7   4.0   7.4   5.6   2.2   0.5   0.3   0.0   0.0   0.0   0.1   0.8   1.2   1.0   1.0  1.52  1.22  0.00  0.00  0.00    6.27   10.87    0.00    0.00    0.00
 2002 110    13     0     0     0.3   52.7   12320   35.9   16.8   0.6   3.7   7.4   5.7   2.3   0.5   0.4   0.0   0.0   0.0   0.1   0.8   1.3   1.1   1.1  1.53  1.20  0.00  0.00  0.00    6.73   11.22    0.00    0.00    0.00
 2002 111    14     0     0     0.5   52.9   12320   35.9   17.0   0.6   3.6   7.1   5.7   2.5   0.6   0.4   0.0   0.0   0.0   0.2   0.8   1.3   1.1   1.1  1.54  1.19  0.00  0.00  0.00    7.17   11.48    0.08    0.00    0.00
 2002 112    15     0     0     0.5   53.2   12319   36.1   17.1   0.7   3.5   6.9   5.6   2.7   0.6   0.4   0.0   0.0   0.0   0.1   0.8   1.3   1.1   1.1  1.55  1.17  0.00  0.00  0.00    7.60   11.81    0.14    0.00    0.00
 2002 113    16     0     0     0.6   53.5   12319   36.3   17.2   0.3   2.3   6.1   6.1   3.4   0.9   0.5   0.0   0.0   0.0   0.1   0.8   1.3   1.1   1.1  1.56  1.16  0.00  0.00  0.00    8.01   12.14    0.18    0.00    0.00
 2002 114    17     0     0     0.7   53.5   12319   36.1   17.4   0.2   1.8   5.4   5.8   3.8   1.2   0.5   0.0   0.0   0.0   0.2   0.8   1.4   1.1   1.1  1.57  1.14  0.00  0.00  0.00    8.39   12.30    0.41    0.00    0.00
 2002 115    18     0     0     1.0   53.4   12318   35.7   17.7   0.1   1.4   4.7   5.5   4.0   1.4   0.7   0.0   0.0   0.0   0.2   0.9   1.4   1.2   1.1  1.59  1.13  0.00  0.00  0.00    8.76   12.41    0.65    0.00    0.00
 2002 116    19     0     0     1.8   52.7   12318   34.8   17.9   0.2   1.3   4.2   5.1   4.1   1.6   0.7   0.0   0.0   0.0   0.2   0.9   1.5   1.2   1.1  1.60  1.13  0.00  0.00  0.00    9.13   12.52    0.88    0.00    0.00
 2002 117    20     0     0     1.9   52.8   12318   34.7   18.1   0.3   1.3   4.0   5.0   4.2   1.6   0.7   0.0   0.0   0.0   0.1   1.0   1.5   1.2   1.2  1.61  1.12  0.00  0.00  0.00    9.52   12.77    1.02    0.00    0.00
 2002 118    21     0     0     2.4   52.6   12317   34.4   18.2   0.4   1.3   3.8   4.8   4.1   1.7   0.8   0.0   0.0   0.0   0.1   0.9   1.5   1.2   1.2  1.63  1.11  0.00  0.00  0.00    9.93   13.04    1.14    0.00    0.00
 2002 119    22     0     0     2.5   52.7   12317   34.5   18.2   0.5   1.3   3.7   4.7   4.1   1.7   0.8   0.0   0.0   0.0   0.1   0.9   1.6   1.2   1.2  1.64  1.10  0.00  0.00  0.00   10.34   13.37    1.22    0.00    0.00
 2002 120    23     0     0     2.6   53.0   12316   34.7   18.3   0.3   1.4   3.7   4.7   4.2   1.8   0.8   0.0   0.0   0.0   0.2   0.9   1.6   1.3   1.2  1.65  1.09  0.00  0.00  0.00   10.74   13.75    1.28    0.00    0.00
 2002 121    24     0     0     3.0   52.9   12316   34.5   18.4   0.4   1.3   3.6   4.5   4.1   1.9   0.8   0.0   0.0   0.0   0.2   0.9   1.6   1.3   1.2  1.66  1.08  0.00  0.00  0.00   11.13   13.99    1.35    0.00    0.00
 2002 122    25     0     0     3.3   52.8   12316   34.3   18.4   0.5   1.3   3.4   4.5   4.1   1.9   0.9   0.0   0.0   0.0   0.1   0.9   1.6   1.3   1.2  1.67  1.06  0.00  0.00  0.00   11.53   14.31    1.40    0.00    0.00
 2002 123    26     0     0     3.4   52.7   12315   34.3   18.4   0.5   1.3   3.4   4.4   4.1   1.9   0.9   0.0   0.0   0.0   0.1   0.9   1.6   1.3   1.2  1.68  1.05  0.00  0.00  0.00   11.93   14.66    1.42    0.00    0.00
 2002 124    27     0     0     3.4   52.8   12315   34.5   18.3   0.6   1.4   3.3   4.4   4.1   2.0   0.9   0.0   0.0   0.0   0.1   0.8   1.6   1.3   1.2  1.69  1.04  0.00  0.00  0.00   12.34   15.10    1.44    0.00    0.00
 2002 125    28     0     0     3.4   52.9   12314   34.8   18.2   0.7   1.5   3.3   4.4   4.1   2.0   0.9   0.0   0.0   0.0   0.1   0.7   1.5   1.3   1.2  1.70  1.03  0.00  0.00  0.00   12.77   15.65    1.44    0.00    0.00
 2002 126    29     0     0     3.4   52.9   12314   35.0   18.0   0.8   1.5   3.3   4.5   4.2   2.0   0.9   0.0   0.0   0.0   0.1   0.7   1.4   1.3   1.3  1.71  1.01  0.00  0.00  0.00   13.20   16.19    1.45    0.00    0.00
 2002 127    30     0     0     3.4   52.9   12313   35.1   17.8   0.9   1.5   3.2   4.5   4.2   2.0   1.0   0.0   0.0   0.0   0.1   0.6   1.3   1.3   1.3  1.72  1.00  0.00  0.00  0.00   13.63   16.69    1.46    0.00    0.00
 2002 128    31     0     0     3.4   53.1   12313   35.4   17.7   0.9   1.6   3.2   4.5   4.2   2.0   1.0   0.0   0.0   0.0   0.1   0.6   1.3   1.3   1.3  1.73  0.99  0.00  0.00  0.00   14.06   17.17    1.46    0.00    0.00
 2002 129    32     0     0     3.4   53.2   12313   35.5   17.6   1.0   1.6   3.2   4.5   4.2   2.0   1.0   0.0   0.0   0.0   0.1   0.5   1.2   1.3   1.3  1.74  0.98  0.00  0.00  0.00   14.48   17.64    1.47    0.00    0.00
 2002 130    33     0     0     3.4   53.0   12312   35.5   17.4   1.0   1.5   3.1   4.6   4.2   2.0   1.0   0.0   0.0   0.0   0.1   0.5   1.2   1.3   1.3  1.75  0.97  0.00  0.00  0.00   14.88   18.17    1.47    0.00    0.00
 2002 131    34     0     0     3.4   53.1   12312   35.9   17.3   1.1   1.6   3.1   4.7   4.2   2.0   1.0   0.0   0.0   0.0   0.1   0.5   1.1   1.3   1.3  1.76  0.95  0.00  0.00  0.00   15.28   18.68    1.48    0.00    0.00
 2002 132    35     0     0     3.4   53.1   12311   36.0   17.1   0.6   1.6   3.1   4.7   4.3   2.0   1.1   0.0   0.0   0.0   0.1   0.5   1.1   1.2   1.3  1.77  0.94  0.00  0.00  0.00   15.70   19.20    1.48    0.00    0.00
 2002 133    36     0     0     3.5   53.0   12311   35.9   17.1   0.3   1.2   2.7   4.7   4.6   2.2   1.1   0.0   0.0   0.0   0.2   0.5   1.1   1.2   1.3  1.78  0.93  0.00  0.00  0.00   16.14   19.56    1.48    0.00    0.00
 2002 134    37     0     0     4.3   52.2   12311   34.9   17.3   0.3   1.0   2.4   4.4   4.4   2.3   1.1   0.0   0.0   0.0   0.2   0.6   1.1   1.2   1.3  1.79  0.92  0.00  0.00  0.00   16.58   19.77    1.53    0.00    0.00
 2002 135    38     0     0     4.4   51.9   12310   34.6   17.4   0.3   0.8   2.0   4.2   4.5   2.4   1.2   0.0   0.0   0.0   0.1   0.6   1.1   1.2   1.3  1.80  0.91  0.00  0.00  0.00   17.06   20.11    1.56    0.00    0.00
 2002 136    39     0     0     4.6   50.4   12310   33.1   17.3   0.2   0.5   1.4   4.0   4.5   2.5   1.3   0.0   0.0   0.0   0.2   0.6   1.0   1.2   1.4  1.81  0.90  0.00  0.00  0.00   17.54   20.33    1.62    0.00    0.00
 2002 137    40     0     0     4.8   50.0   12309   32.6   17.4   0.3   0.4   1.2   3.8   4.4   2.6   1.3   0.0   0.0   0.0   0.2   0.6   1.0   1.2   1.4  1.82  0.89  0.00  0.00  0.00   18.02   20.55    1.69    0.00    0.00
 2002 138    41     0     0     5.0   49.5   12309   32.0   17.5   0.3   0.4   1.0   3.7   4.4   2.6   1.3   0.0   0.0   0.0   0.2   0.7   0.9   1.3   1.4  1.83  0.88  0.00  0.00  0.00   18.47   20.78    1.80    0.00    0.00
 2002 139    42     0     0     5.3   48.6   12308   31.2   17.4   0.2   0.3   0.7   3.5   4.3   2.6   1.4   0.0   0.0   0.0   0.2   0.6   0.9   1.3   1.4  1.84  0.88  0.00  0.00  0.00   18.92   21.03    1.89    0.00    0.00
 2002 140    43     0     0     6.2   46.8   12308   29.5   17.2   0.3   0.3   0.4   3.0   4.1   2.7   1.4   0.0   0.0   0.0   0.2   0.6   0.8   1.3   1.4  1.86  0.87  0.00  0.00  0.00   19.33   21.23    1.98    0.00    0.00
 2002 141    44     0     0     6.8   45.8   12307   28.7   17.2   0.3   0.3   0.4   2.7   4.0   2.7   1.4   0.0   0.0   0.0   0.2   0.6   0.8   1.2   1.4  1.87  0.86  0.00  0.00  0.00   19.72   21.47    2.03    0.00    0.00
 2002 142    45     0     0     7.1   44.6   12307   27.7   16.9   0.4   0.3   0.3   2.3   3.9   2.7   1.4   0.0   0.0   0.0   0.2   0.6   0.7   1.1   1.4  1.88  0.85  0.00  0.00  0.00   20.11   21.76    2.06    0.00    0.00
 2002 143    46     0     0     7.3   44.2   12307   27.4   16.8   0.4   0.3   0.3   2.1   3.9   2.7   1.4   0.0   0.0   0.0   0.1   0.6   0.7   1.1   1.4  1.88  0.84  0.00  0.00  0.00   20.48   22.08    2.08    0.00    0.00
 2002 144    47     0     0     7.3   43.5   12306   27.0   16.5   0.4   0.3   0.3   1.8   3.9   2.7   1.4   0.0   0.0   0.0   0.1   0.5   0.7   1.0   1.4  1.89  0.83  0.00  0.00  0.00   20.85   22.43    2.08    0.00    0.00
 2002 145    48     0     0     7.3   42.6   12306   26.5   16.2   0.3   0.3   0.3   1.5   3.9   2.7   1.4   0.0   0.0   0.0   0.1   0.5   0.6   0.9   1.5  1.90  0.83  0.00  0.00  0.00   21.24   22.84    2.09    0.00    0.00
 2002 146    49     0     0     7.3   41.9   12305   26.0   15.9   0.3   0.3   0.3   1.2   4.0   2.7   1.4   0.0   0.0   0.0   0.1   0.5   0.6   0.8   1.5  1.91  0.82  0.00  0.00  0.00   21.64   23.25    2.09    0.00    0.00
 2002 147    50     0     0     7.3   41.3   12305   25.6   15.7   0.3   0.3   0.3   0.9   4.0   2.7   1.5   0.0   0.0   0.0   0.1   0.5   0.6   0.7   1.5  1.92  0.81  0.00  0.00  0.00   22.05   23.65    2.10    0.00    0.00
 2002 148    51     0     0     7.3   40.8   12305   25.3   15.6   0.1   0.3   0.3   0.7   4.0   2.7   1.5   0.0   0.0   0.0   0.1   0.5   0.5   0.6   1.5  1.93  0.80  0.00  0.00  0.00   22.47   24.04    2.10    0.00    0.00
 2002 149    52     0     0     7.5   40.4   12304   24.7   15.7   0.1   0.2   0.2   0.5   3.5   2.9   1.6   0.0   0.0   0.0   0.2   0.5   0.6   0.6   1.5  1.94  0.79  0.00  0.00  0.00   22.88   24.22    2.11    0.00    0.00
 2002 150    53     0     0     7.9   40.1   12304   24.3   15.8   0.1   0.2   0.2   0.5   3.1   3.0   1.7   0.0   0.0   0.0   0.2   0.6   0.6   0.7   1.5  1.95  0.78  0.00  0.00  0.00   23.26   24.36    2.17    0.00    0.00
 2002 151    54     0     0     9.1   38.7   12303   22.8   15.9   0.1   0.2   0.2   0.4   2.7   2.9   1.6   0.0   0.0   0.0   0.2   0.6   0.6   0.7   1.4  1.96  0.78  0.00  0.00  0.00   23.65   24.52    2.22    0.00    0.00
 2002 152    55     0     0     9.8   36.9   12303   21.3   15.6   0.2   0.3   0.2   0.3   2.1   2.8   1.6   0.0   0.0   0.0   0.2   0.5   0.6   0.6   1.3  1.97  0.77  0.00  0.00  0.00   24.03   24.72    2.26    0.00    0.00
 2002 153    56     0     0    10.0   35.6   12303   20.5   15.2   0.2   0.3   0.3   0.3   1.7   2.8   1.6   0.0   0.0   0.0   0.2   0.5   0.6   0.6   1.1  1.98  0.77  0.00  0.00  0.00   24.40   24.97    2.27    0.00    0.00
 2002 154    57     0     0    10.1   34.7   12302   19.7   15.0   0.2   0.3   0.3   0.3   1.3   2.8   1.6   0.0   0.0   0.0   0.2   0.6   0.6   0.6   1.0  1.99  0.76  0.00  0.00  0.00   24.78   25.13    2.29    0.00    0.00
 2002 155    58     0     0    10.3   34.1   12302   19.2   14.9   0.2   0.3   0.3   0.3   1.0   2.8   1.7   0.0   0.0   0.0   0.2   0.6   0.6   0.6   0.9  2.00  0.75  0.00  0.00  0.00   25.17   25.30    2.32    0.00    0.00
 2002 156    59     0     0    10.6   33.5   12302   18.6   14.9   0.2   0.2   0.3   0.3   0.8   2.7   1.7   0.0   0.0   0.0   0.2   0.6   0.6   0.6   0.9  2.01  0.75  0.00  0.00  0.00   25.58   25.46    2.34    0.00    0.00
 2002 157    60     0     0    11.3   32.8   12301   17.9   15.0   0.2   0.2   0.2   0.2   0.6   2.5   1.8   0.0   0.0   0.0   0.3   0.6   0.6   0.6   0.9  2.02  0.74  0.00  0.00  0.00   25.98   25.60    2.39    0.00    0.00
 2002 158    61     0     0    12.8   31.3   12301   16.3   15.0   0.2   0.2   0.2   0.2   0.5   2.3   1.7   0.0   0.0   0.0   0.3   0.6   0.6   0.7   0.8  2.03  0.74  0.00  0.00  0.00   26.40   25.76    2.45    0.00    0.00
 2002 159    62     0     0    13.7   30.3   12300   15.4   14.8   0.3   0.3   0.2   0.2   0.4   2.2   1.6   0.0   0.0   0.0   0.3   0.6   0.6   0.7   0.8  2.04  0.73  0.00  0.00  0.00   26.82   25.96    2.48    0.00    0.00
 2002 160    63     0     0    14.1   29.6   12300   15.0   14.6   0.4   0.3   0.3   0.2   0.3   2.1   1.5   0.0   0.0   0.0   0.2   0.5   0.6   0.6   0.7  2.05  0.73  0.00  0.00  0.00   27.22   26.23    2.49    0.00    0.00
 2002 161    64     0     0    14.4   29.3   12300   14.8   14.5   0.3   0.3   0.3   0.3   0.3   2.1   1.5   0.0   0.0   0.0   0.1   0.5   0.6   0.6   0.7  2.06  0.72  0.00  0.00  0.00   27.60   26.46    2.50    0.00    0.00
 2002 162    65     0     0    14.5   29.1   12299   14.8   14.3   0.3   0.3   0.3   0.3   0.3   2.1   1.5   0.0   0.0   0.0   0.1   0.5   0.6   0.6   0.7  2.07  0.71  0.00  0.00  0.00   27.94   26.70    2.51    0.00    0.00
 2002 163    66     0     0    14.5   29.0   12299   14.9   14.1   0.3   0.3   0.3   0.3   0.3   2.1   1.5   0.0   0.0   0.0   0.1   0.5   0.5   0.6   0.6  2.08  0.71  0.00  0.00  0.00   28.25   27.01    2.51    0.00    0.00
 2002 164    67     0     0    14.5   28.9   12299   14.9   14.0   0.3   0.3   0.3   0.3   0.3   2.1   1.5   0.0   0.0   0.0   0.1   0.5   0.5   0.6   0.6  2.08  0.70  0.00  0.00  0.00   28.55   27.30    2.51    0.00    0.00
 2002 165    68     0     0    14.5   28.9   12298   15.0   13.9   0.3   0.3   0.3   0.3   0.3   2.1   1.5   0.0   0.0   0.0   0.1   0.5   0.5   0.5   0.6  2.09  0.70  0.00  0.00  0.00   28.82   27.57    2.51    0.00    0.00
 2002 166    69     0     0    14.5   28.9   12298   15.0   13.9   0.3   0.3   0.3   0.3   0.3   2.1   1.5   0.0   0.0   0.0   0.1   0.5   0.5   0.5   0.5  2.10  0.69  0.00  0.00  0.00   29.08   27.82    2.51    0.00    0.00
 2002 167    70     0     0    14.5   28.9   12298   15.1   13.8   0.3   0.3   0.3   0.3   0.3   2.1   1.5   0.0   0.0   0.0   0.1   0.4   0.5   0.5   0.5  2.10  0.68  0.00  0.00  0.00   29.34   28.07    2.52    0.00    0.00
 2002 168    71     0     0    14.5   29.0   12298   15.2   13.8   0.3   0.3   0.3   0.3   0.3   2.2   1.6   0.0   0.0   0.0   0.1   0.4   0.5   0.5   0.5  2.11  0.68  0.00  0.00  0.00   29.60   28.32    2.52    0.00    0.00
 2002 169    72     0     0    14.5   29.0   12297   15.2   13.8   0.2   0.3   0.3   0.3   0.3   2.2   1.6   0.0   0.0   0.0   0.1   0.4   0.5   0.5   0.5  2.12  0.67  0.00  0.00  0.00   29.89   28.58    2.52    0.00    0.00
 2002 170    73     0     0    14.7   28.8   12297   15.0   13.8   0.2   0.2   0.3   0.3   0.3   2.1   1.6   0.0   0.0   0.0   0.1   0.5   0.5   0.5   0.5  2.12  0.67  0.00  0.00  0.00   30.19   28.78    2.52    0.00    0.00
 2002 171    74     0     0    14.8   28.9   12297   15.0   13.9   0.2   0.3   0.3   0.3   0.3   2.1   1.6   0.0   0.0   0.0   0.1   0.5   0.5   0.5   0.5  2.13  0.66  0.00  0.00  0.00   30.50   28.98    2.52    0.00    0.00
 2002 172    75     0     0    14.9   29.0   12296   15.1   13.9   0.3   0.3   0.3   0.3   0.3   2.1   1.6   0.0   0.0   0.0   0.1   0.5   0.6   0.5   0.5  2.14  0.66  0.00  0.00  0.00   30.83   29.22    2.52    0.00    0.00
 2002 173    76     0     0    14.9   29.2   12296   15.2   13.9   0.3   0.3   0.3   0.3   0.3   2.1   1.6   0.0   0.0   0.0   0.1   0.5   0.6   0.5   0.5  2.14  0.65  0.00  0.00  0.00   31.16   29.49    2.53    0.00    0.00
 2002 174    77     0     0    14.9   29.2   12296   15.3   13.9   0.3   0.3   0.3   0.3   0.3   2.1   1.6   0.0   0.0   0.0   0.1   0.5   0.5   0.5   0.5  2.15  0.65  0.00  0.00  0.00   31.47   29.78    2.53    0.00    0.00
 2002 175    78     0     0    14.9   29.2   12295   15.4   13.9   0.3   0.3   0.3   0.3   0.3   2.2   1.6   0.0   0.0   0.0   0.1   0.5   0.5   0.5   0.5  2.16  0.64  0.00  0.00  0.00   31.76   30.05    2.53    0.00    0.00
 2002 176    79     0     0    14.9   29.3   12295   15.4   13.8   0.3   0.3   0.3   0.3   0.3   2.2   1.6   0.0   0.0   0.0   0.1   0.5   0.5   0.5   0.5  2.16  0.64  0.00  0.00  0.00   32.03   30.30    2.53    0.00    0.00
 2002 177    80     0     0    14.9   29.3   12295   15.5   13.8   0.3   0.3   0.3   0.3   0.3   2.2   1.6   0.0   0.0   0.0   0.1   0.5   0.5   0.5   0.5  2.17  0.63  0.00  0.00  0.00   32.28   30.54    2.53    0.00    0.00
 2002 178    81     0     0    14.9   29.4   12295   15.5   13.8   0.3   0.3   0.3   0.3   0.3   2.2   1.6   0.0   0.0   0.0   0.1   0.4   0.5   0.5   0.5  2.17  0.63  0.00  0.00  0.00   32.54   30.78    2.53    0.00    0.00
 2002 179    82     0     0    14.9   29.4   12294   15.6   13.8   0.3   0.3   0.3   0.3   0.3   2.2   1.7   0.0   0.0   0.0   0.1   0.4   0.5   0.5   0.5  2.18  0.62  0.00  0.00  0.00   32.79   31.01    2.53    0.00    0.00
 2002 180    83     0     0    14.9   29.5   12294   15.7   13.8   0.3   0.3   0.3   0.3   0.3   2.2   1.7   0.0   0.0   0.0   0.1   0.4   0.5   0.5   0.5  2.19  0.62  0.00  0.00  0.00   33.08   31.27    2.53    0.00    0.00
 2002 181    84     0     0    14.9   29.6   12294   15.8   13.8   0.3   0.3   0.3   0.3   0.3   2.2   1.7   0.0   0.0   0.0   0.1   0.4   0.5   0.5   0.5  2.19  0.61  0.00  0.00  0.00   33.39   31.54    2.54    0.00    0.00
 2002 182    85     0     0    14.9   29.7   12294   15.9   13.9   0.3   0.3   0.3   0.3   0.3   2.2   1.7   0.0   0.0   0.0   0.1   0.4   0.5   0.5   0.5  2.20  0.61  0.00  0.00  0.00   33.71   31.82    2.54    0.00    0.00
 2002 183    86     0     0    14.9   29.8   12293   15.9   13.9   0.3   0.3   0.3   0.3   0.3   2.2   1.7   0.0   0.0   0.0   0.1   0.4   0.5   0.5   0.5  2.21  0.60  0.00  0.00  0.00   34.04   32.10    2.54    0.00    0.00
 2002 184    87     0     0    14.9   29.9   12293   16.0   13.9   0.3   0.3   0.3   0.3   0.3   2.2   1.7   0.0   0.0   0.0   0.1   0.4   0.5   0.5   0.5  2.21  0.60  0.00  0.00  0.00   34.37   32.38    2.54    0.00    0.00
 2002 185    88     0     0    14.9   30.0   12293   16.1   13.9   0.2   0.3   0.3   0.3   0.3   2.3   1.7   0.0   0.0   0.0   0.1   0.4   0.5   0.5   0.5  2.22  0.59  0.00  0.00  0.00   34.71   32.66    2.54    0.00    0.00
 2002 186    89     0     0    14.9   30.1   12292   16.1   14.0   0.2   0.3   0.3   0.3   0.3   2.3   1.7   0.0   0.0   0.0   0.2   0.4   0.5   0.5   0.5  2.22  0.59  0.00  0.00  0.00   35.04   32.90    2.54    0.00    0.00
 2002 187    90     0     0    14.9   30.2   12292   16.1   14.0   0.1   0.2   0.3   0.3   0.3   2.3   1.7   0.0   0.0   0.0   0.2   0.5   0.5   0.5   0.5  2.23  0.58  0.00  0.00  0.00   35.39   33.14    2.54    0.00    0.00
 2002 188    91     0     0    15.7   29.5   12292   15.3   14.2   0.2   0.2   0.2   0.2   0.3   2.2   1.7   0.0   0.0   0.0   0.2   0.5   0.6   0.5   0.5  2.24  0.58  0.00  0.00  0.00   35.73   33.28    2.55    0.00    0.00
 2002 189    92     0     0    16.0   29.4   12291   15.1   14.3   0.3   0.3   0.2   0.2   0.3   2.1   1.7   0.0   0.0   0.0   0.2   0.5   0.6   0.5   0.5  2.24  0.58  0.00  0.00  0.00   36.07   33.47    2.55    0.00    0.00
 2002 190    93     0     0    16.2   29.3   12291   15.0   14.3   0.3   0.3   0.3   0.3   0.3   2.1   1.6   0.0   0.0   0.0   0.1   0.5   0.6   0.5   0.5  2.25  0.57  0.00  0.00  0.00   36.38   33.64    2.55    0.00    0.00
 2002 191    94     0     0    16.3   29.3   12291   15.0   14.3   0.3   0.3   0.3   0.3   0.3   2.1   1.6   0.0   0.0   0.0   0.1   0.5   0.6   0.6   0.5  2.26  0.57  0.00  0.00  0.00   36.68   33.81    2.55    0.00    0.00
 2002 192    95     0     0    16.4   29.4   12290   15.1   14.3   0.3   0.3   0.3   0.3   0.3   2.1   1.7   0.0   0.0   0.0   0.1   0.5   0.5   0.6   0.5  2.26  0.56  0.00  0.00  0.00   36.94   33.99    2.55    0.00    0.00
 2002 193    96     0     0    16.4   29.4   12290   15.1   14.3   0.3   0.3   0.3   0.3   0.3   2.1   1.7   0.0   0.0   0.0   0.1   0.5   0.5   0.6   0.6  2.27  0.56  0.00  0.00  0.00   37.19   34.16    2.56    0.00    0.00
 2002 194    97     0     0    16.4   29.5   12290   15.2   14.3   0.3   0.3   0.3   0.3   0.3   2.1   1.7   0.0   0.0   0.0   0.1   0.5   0.5   0.6   0.6  2.27  0.56  0.00  0.00  0.00   37.43   34.35    2.56    0.00    0.00

*DSSAT Cropping System Model Ver. 4.0.2.000               Aug 12, 2016; 12:47:54

*RUN   3        : UYMZ                    
 MODEL          : MZCER040 - Maize           
 EXPERIMENT     : UYMZ0196 MZ    late to create DSS                             
 TREATMENT  1   : UYMZ                    

@YEAR DOY   DAS  NAPC  NI#M    NLCC   NIAD    NOAD   NITD   NHTD  NI1D  NI2D  NI3D  NI4D  NI5D  NI6D  NI7D  NI8D  NI9D  NI10  NH1D  NH2D  NH3D  NH4D  NH5D  NH6D  NH7D  NH8D  NH9D  NH10    NMNC    NITC    NDNC    NIMC    AMLC
 2003 097     0     0     0     0.0   46.9   12327   26.9   20.1   6.2   5.3   5.9   3.5   0.1   0.0   0.0   0.0   0.0   0.0   0.4   1.3   1.5   1.4   1.4  1.50  1.48  0.00  0.00  0.00    0.47    1.71    0.00    0.00    0.00
 2003 098     1     0     0     0.0   47.4   12326   28.0   19.4   6.5   5.6   6.0   3.5   0.2   0.0   0.1   0.0   0.0   0.0   0.2   1.1   1.4   1.4   1.4  1.50  1.45  0.00  0.00  0.00    0.93    2.86    0.00    0.00    0.00
 2003 099     2     0     0     0.0   47.9   12326   29.0   18.9   6.6   5.9   6.1   3.6   0.3   0.1   0.1   0.0   0.0   0.0   0.1   1.0   1.4   1.3   1.3  1.50  1.43  0.00  0.00  0.00    1.41    3.86    0.00    0.00    0.00
 2003 100     3     0     0     0.0   48.3   12325   29.9   18.4   6.7   6.1   6.2   3.7   0.3   0.1   0.1   0.0   0.0   0.0   0.1   0.9   1.3   1.3   1.3  1.50  1.40  0.00  0.00  0.00    1.88    4.79    0.00    0.00    0.00
 2003 101     4     0     0     0.0   48.8   12325   30.8   18.0   6.8   6.3   6.3   3.8   0.4   0.1   0.2   0.0   0.0   0.0   0.1   0.8   1.3   1.2   1.2  1.50  1.38  0.00  0.00  0.00    2.35    5.66    0.00    0.00    0.00
 2003 102     5     0     0     0.0   49.2   12324   31.6   17.7   6.9   6.5   6.4   3.8   0.5   0.1   0.2   0.0   0.0   0.0   0.1   0.7   1.3   1.2   1.2  1.50  1.36  0.00  0.00  0.00    2.79    6.45    0.00    0.00    0.00
 2003 103     6     0     0     0.0   49.7   12324   32.3   17.3   7.0   6.6   6.5   3.9   0.5   0.1   0.2   0.0   0.0   0.0   0.1   0.7   1.2   1.2   1.2  1.50  1.34  0.00  0.00  0.00    3.22    7.19    0.00    0.00    0.00
 2003 104     7     0     0     0.0   50.1   12323   33.0   17.1   7.1   6.7   6.6   3.9   0.6   0.2   0.2   0.0   0.0   0.0   0.1   0.6   1.2   1.1   1.1  1.50  1.32  0.00  0.00  0.00    3.63    7.88    0.00    0.00    0.00
 2003 105     8     0     0     0.0   50.5   12323   33.7   16.8   7.1   6.9   6.6   4.0   0.7   0.2   0.3   0.0   0.0   0.0   0.1   0.6   1.2   1.1   1.1  1.50  1.30  0.00  0.00  0.00    4.05    8.55    0.00    0.00    0.00
 2003 106     9     0     0     0.0   50.9   12323   34.4   16.6   7.2   7.0   6.7   4.0   0.7   0.2   0.3   0.0   0.0   0.0   0.1   0.6   1.2   1.1   1.1  1.50  1.28  0.00  0.00  0.00    4.48    9.23    0.00    0.00    0.00
 2003 107    10     0     0     0.0   51.4   12322   35.1   16.3   7.3   7.1   6.8   4.1   0.8   0.2   0.3   0.0   0.0   0.0   0.1   0.5   1.1   1.0   1.0  1.50  1.26  0.00  0.00  0.00    4.94    9.95    0.00    0.00    0.00
 2003 108    11     0     0     0.0   51.9   12322   35.8   16.1   7.4   7.3   6.9   4.1   0.8   0.2   0.3   0.0   0.0   0.0   0.1   0.5   1.1   1.0   1.0  1.50  1.24  0.00  0.00  0.00    5.42   10.68    0.00    0.00    0.00
 2003 109    12     0     0     0.0   52.4   12321   36.5   15.8   7.6   7.4   6.9   4.2   0.9   0.3   0.4   0.0   0.0   0.0   0.1   0.5   1.1   1.0   1.0  1.50  1.22  0.00  0.00  0.00    5.90   11.40    0.00    0.00    0.00
 2003 110    13     0     0     0.0   52.8   12321   37.2   15.6   7.7   7.5   7.0   4.2   1.0   0.3   0.4   0.0   0.0   0.0   0.1   0.5   1.1   0.9   0.9  1.50  1.20  0.00  0.00  0.00    6.37   12.08    0.00    0.00    0.00
 2003 111    14     0     0     0.0   53.3   12320   37.9   15.4   7.8   7.6   7.1   4.3   1.0   0.3   0.4   0.0   0.0   0.0   0.1   0.5   1.1   0.9   0.9  1.50  1.18  0.00  0.00  0.00    6.82   12.72    0.00    0.00    0.00
 2003 112    15     0     0     0.0   53.7   12320   38.5   15.2   7.9   7.7   7.1   4.3   1.1   0.3   0.4   0.0   0.0   0.0   0.1   0.5   1.1   0.9   0.9  1.50  1.16  0.00  0.00  0.00    7.26   13.34    0.00    0.00    0.00
 2003 113    16     0     0     0.0   54.2   12319   39.1   15.1   8.0   7.9   7.2   4.4   1.1   0.3   0.5   0.0   0.0   0.0   0.1   0.5   1.0   0.9   0.9  1.49  1.15  0.00  0.00  0.00    7.70   13.94    0.00    0.00    0.00
 2003 114    17     0     0     0.0   54.6   12319   39.7   14.9   3.8  10.1   7.3   4.4   1.2   0.4   0.5   0.0   0.0   0.0   0.1   0.4   1.0   0.9   0.9  1.49  1.13  0.00  0.00  0.00    8.13   14.53    0.00    0.00    0.00
 2003 115    18     0     0     0.0   55.0   12319   40.2   14.8   3.6  10.1   7.5   4.4   1.2   0.4   0.5   0.0   0.0   0.0   0.2   0.4   1.0   0.8   0.8  1.49  1.11  0.00  0.00  0.00    8.57   15.09    0.00    0.00    0.00
 2003 116    19     0     0     0.0   55.5   12318   40.8   14.6   2.5   9.5   8.4   4.5   1.2   0.4   0.5   0.0   0.0   0.0   0.1   0.4   1.0   0.8   0.8  1.49  1.10  0.00  0.00  0.00    9.02   15.69    0.00    0.00    0.00
 2003 117    20     0     0     0.0   55.9   12318   41.3   14.6   2.4   8.9   8.9   4.5   1.3   0.4   0.6   0.0   0.0   0.0   0.2   0.5   1.0   0.8   0.8  1.49  1.08  0.00  0.00  0.00    9.44   16.17    0.00    0.00    0.00
 2003 118    21     0     0     0.0   56.1   12317   41.6   14.5   2.4   8.4   9.2   4.6   1.3   0.4   0.6   0.0   0.0   0.0   0.2   0.5   1.0   0.8   0.8  1.49  1.06  0.00  0.00  0.00    9.86   16.65    0.00    0.00    0.00
 2003 119    22     0     0     0.0   56.5   12317   42.1   14.4   2.5   8.3   9.3   4.6   1.4   0.4   0.6   0.0   0.0   0.0   0.1   0.6   1.0   0.8   0.8  1.49  1.05  0.00  0.00  0.00   10.27   17.17    0.00    0.00    0.00
 2003 120    23     0     0     0.0   56.9   12316   42.7   14.3   2.1   8.3   9.6   4.7   1.4   0.5   0.6   0.0   0.0   0.0   0.1   0.5   1.0   0.8   0.8  1.49  1.03  0.00  0.00  0.00   10.66   17.70    0.00    0.00    0.00
 2003 121    24     0     0     0.0   57.3   12316   43.1   14.2   1.9   8.1   9.9   4.7   1.4   0.5   0.6   0.0   0.0   0.0   0.2   0.6   1.0   0.8   0.7  1.49  1.02  0.00  0.00  0.00   11.05   18.14    0.00    0.00    0.00
 2003 122    25     0     0     0.0   57.7   12316   43.5   14.2   2.0   7.9   9.9   4.9   1.5   0.5   0.7   0.0   0.0   0.0   0.2   0.6   1.0   0.7   0.7  1.49  1.01  0.00  0.00  0.00   11.43   18.58    0.00    0.00    0.00
 2003 123    26     0     0     0.0   58.1   12315   44.0   14.1   2.1   7.9  10.0   5.0   1.5   0.5   0.7   0.0   0.0   0.0   0.1   0.6   1.0   0.7   0.7  1.49  0.99  0.00  0.00  0.00   11.82   19.05    0.00    0.00    0.00
 2003 124    27     0     0     0.0   58.4   12315   44.5   14.0   2.3   7.9  10.0   5.1   1.6   0.5   0.7   0.0   0.0   0.0   0.1   0.6   1.0   0.7   0.7  1.49  0.98  0.00  0.00  0.00   12.20   19.56    0.00    0.00    0.00
 2003 125    28     0     0     0.0   58.8   12315   45.0   13.8   2.5   7.9  10.0   5.1   1.6   0.6   0.7   0.0   0.0   0.0   0.1   0.6   0.9   0.7   0.7  1.49  0.97  0.00  0.00  0.00   12.58   20.07    0.00    0.00    0.00
 2003 126    29     0     0     0.0   59.2   12314   45.5   13.7   2.7   7.9  10.1   5.2   1.6   0.6   0.7   0.0   0.0   0.0   0.1   0.5   0.9   0.7   0.7  1.49  0.95  0.00  0.00  0.00   12.98   20.56    0.00    0.00    0.00
 2003 127    30     0     0     0.0   59.6   12314   46.0   13.6   2.9   7.9  10.1   5.2   1.7   0.6   0.8   0.0   0.0   0.0   0.1   0.5   0.9   0.7   0.7  1.49  0.94  0.00  0.00  0.00   13.36   21.05    0.00    0.00    0.00
 2003 128    31     0     0     0.0   59.9   12313   46.4   13.5   3.1   7.9  10.1   5.3   1.7   0.6   0.8   0.0   0.0   0.0   0.1   0.5   0.9   0.7   0.7  1.49  0.93  0.00  0.00  0.00   13.74   21.52    0.00    0.00    0.00
 2003 129    32     0     0     0.0   60.3   12313   46.8   13.4   3.3   7.9  10.2   5.3   1.7   0.6   0.8   0.0   0.0   0.0   0.1   0.5   0.9   0.7   0.7  1.49  0.91  0.00  0.00  0.00   14.12   21.99    0.00    0.00    0.00
 2003 130    33     0     0     0.0   60.6   12313   47.3   13.4   3.4   7.8  10.2   5.4   1.8   0.6   0.8   0.0   0.0   0.0   0.1   0.5   0.9   0.7   0.7  1.49  0.90  0.00  0.00  0.00   14.51   22.46    0.00    0.00    0.00
 2003 131    34     0     0     0.0   61.0   12312   47.7   13.3   3.6   7.9  10.3   5.4   1.8   0.7   0.8   0.0   0.0   0.0   0.1   0.5   0.9   0.7   0.6  1.49  0.89  0.00  0.00  0.00   14.89   22.92    0.00    0.00    0.00
 2003 132    35     0     0     0.0   61.4   12312   48.2   13.2   3.8   7.9  10.4   5.4   1.8   0.7   0.9   0.0   0.0   0.0   0.1   0.5   0.9   0.7   0.6  1.49  0.88  0.00  0.00  0.00   15.28   23.40    0.00    0.00    0.00
 2003 133    36     0     0     0.0   61.7   12311   48.5   13.1   3.9   7.8  10.4   5.5   1.8   0.7   0.9   0.0   0.0   0.0   0.1   0.5   0.9   0.7   0.6  1.49  0.87  0.00  0.00  0.00   15.67   23.86    0.00    0.00    0.00
 2003 134    37     0     0     0.0   62.0   12311   49.0   13.1   4.1   7.8  10.4   5.5   1.9   0.7   0.9   0.0   0.0   0.0   0.1   0.5   0.9   0.7   0.6  1.49  0.86  0.00  0.00  0.00   16.06   24.32    0.00    0.00    0.00
 2003 135    38     0     0     0.0   62.2   12311   49.2   13.0   4.2   7.8  10.4   5.5   1.9   0.7   0.9   0.0   0.0   0.0   0.1   0.4   0.9   0.6   0.6  1.49  0.85  0.00  0.00  0.00   16.46   24.79    0.00    0.00    0.00
 2003 136    39     0     0     0.0   62.3   12310   49.4   12.9   4.3   7.7  10.4   5.6   1.9   0.8   0.9   0.0   0.0   0.0   0.1   0.4   0.9   0.6   0.6  1.49  0.83  0.00  0.00  0.00   16.88   25.28    0.00    0.00    0.00
 2003 137    40     0     0     0.0   62.4   12310   49.5   12.8   1.4   5.5  10.8   7.0   2.3   0.8   0.9   0.0   0.0   0.0   0.1   0.4   0.9   0.6   0.6  1.49  0.82  0.00  0.00  0.00   17.29   25.75    0.00    0.00    0.00
[...]
 2011 102     5     0     0     0.0   49.2   12324   31.6   17.7   6.9   6.5   6.4   3.8   0.5   0.1   0.2   0.0   0.0   0.0   0.1   0.7   1.3   1.2   1.2  1.50  1.36  0.00  0.00  0.00    2.79    6.44    0.00    0.00    0.00
 2011 103     6     0     0     0.0   49.7   12324   32.4   17.3   7.0   6.6   6.5   3.9   0.6   0.1   0.2   0.0   0.0   0.0   0.1   0.7   1.2   1.2   1.2  1.50  1.34  0.00  0.00  0.00    3.26    7.27    0.00    0.00    0.00
 2011 104     7     0     0     0.0   50.2   12323   33.2   17.0   7.1   6.8   6.6   3.9   0.6   0.2   0.2   0.0   0.0   0.0   0.1   0.6   1.2   1.1   1.1  1.50  1.32  0.00  0.00  0.00    3.75    8.10    0.00    0.00    0.00
 2011 105     8     0     0     0.0   50.7   12323   34.0   16.7   2.8   9.0   6.8   4.0   0.7   0.2   0.3   0.0   0.0   0.0   0.1   0.6   1.2   1.1   1.1  1.50  1.30  0.00  0.00  0.00    4.25    8.90    0.00    0.00    0.00
 2011 106     9     0     0     0.0   51.2   12322   34.7   16.5   1.4   7.0   8.7   4.1   0.8   0.2   0.3   0.0   0.0   0.0   0.2   0.6   1.1   1.0   1.0  1.50  1.27  0.00  0.00  0.00    4.73    9.56    0.00    0.00    0.00
 2011 107    10     0     0     0.0   51.7   12322   35.3   16.3   0.7   4.8   8.1   5.6   1.4   0.2   0.3   0.0   0.0   0.0   0.2   0.6   1.1   1.0   1.0  1.50  1.25  0.00  0.00  0.00    5.20   10.18    0.00    0.00    0.00
 2011 108    11     0     0     0.2   51.9   12321   35.4   16.5   0.8   4.6   7.6   5.6   1.8   0.3   0.3   0.0   0.0   0.0   0.2   0.7   1.2   1.0   1.0  1.51  1.24  0.00  0.00  0.00    5.65   10.42    0.00    0.00    0.00
 2011 109    12     0     0     0.3   52.3   12321   35.6   16.7   0.9   4.5   7.4   5.5   2.0   0.4   0.3   0.0   0.0   0.0   0.1   0.7   1.2   1.1   1.0  1.52  1.22  0.00  0.00  0.00    6.08   10.73    0.00    0.00    0.00
 2011 110    13     0     0     0.3   52.7   12321   35.9   16.8   0.6   3.9   7.5   5.8   2.2   0.4   0.4   0.0   0.0   0.0   0.1   0.7   1.2   1.1   1.1  1.53  1.21  0.00  0.00  0.00    6.51   11.06    0.00    0.00    0.00
 2011 111    14     0     0     0.5   52.9   12320   35.9   17.0   0.6   3.7   7.0   5.7   2.5   0.6   0.4   0.0   0.0   0.0   0.2   0.8   1.3   1.1   1.1  1.54  1.19  0.00  0.00  0.00    6.93   11.28    0.03    0.00    0.00
 2011 112    15     0     0     0.5   53.2   12320   36.1   17.1   0.4   3.1   6.7   5.9   2.9   0.6   0.4   0.0   0.0   0.0   0.2   0.8   1.3   1.1   1.1  1.55  1.17  0.00  0.00  0.00    7.34   11.56    0.12    0.00    0.00
 2011 113    16     0     0     0.7   53.2   12319   36.0   17.3   0.5   2.9   6.3   5.7   3.1   0.8   0.4   0.0   0.0   0.0   0.1   0.8   1.3   1.1   1.1  1.56  1.16  0.00  0.00  0.00    7.77   11.83    0.30    0.00    0.00
 2011 114    17     0     0     0.9   53.2   12319   35.8   17.4   0.6   2.7   6.1   5.6   3.2   0.9   0.5   0.0   0.0   0.0   0.1   0.8   1.4   1.1   1.1  1.57  1.14  0.00  0.00  0.00    8.20   12.14    0.40    0.00    0.00
 2011 115    18     0     0     0.9   53.5   12318   36.1   17.4   0.7   2.8   6.0   5.6   3.3   0.9   0.5   0.0   0.0   0.0   0.1   0.8   1.4   1.2   1.1  1.58  1.13  0.00  0.00  0.00    8.62   12.47    0.45    0.00    0.00
 2011 116    19     0     0     1.0   53.9   12318   36.4   17.4   0.8   2.9   6.0   5.6   3.3   0.9   0.5   0.0   0.0   0.0   0.1   0.8   1.4   1.2   1.1  1.59  1.12  0.00  0.00  0.00    9.05   12.90    0.48    0.00    0.00
 2011 117    20     0     0     1.0   54.3   12318   36.8   17.5   1.0   3.0   6.1   5.6   3.3   1.0   0.5   0.0   0.0   0.0   0.1   0.7   1.4   1.2   1.2  1.60  1.10  0.00  0.00  0.00    9.49   13.34    0.50    0.00    0.00
 2011 118    21     0     0     1.0   54.7   12317   37.3   17.4   1.1   3.1   6.2   5.6   3.3   1.0   0.5   0.0   0.0   0.0   0.1   0.7   1.4   1.2   1.2  1.61  1.09  0.00  0.00  0.00    9.92   13.85    0.50    0.00    0.00
 2011 119    22     0     0     1.0   55.1   12317   37.8   17.3   1.3   3.2   6.2   5.6   3.3   1.0   0.6   0.0   0.0   0.0   0.1   0.6   1.4   1.2   1.2  1.62  1.07  0.00  0.00  0.00   10.36   14.36    0.51    0.00    0.00
 2011 120    23     0     0     1.0   55.6   12316   38.3   17.2   1.4   3.3   6.3   5.6   3.4   1.0   0.6   0.0   0.0   0.0   0.1   0.6   1.3   1.2   1.2  1.64  1.06  0.00  0.00  0.00   10.81   14.87    0.52    0.00    0.00
 2011 121    24     0     0     1.0   56.0   12316   38.9   17.2   1.3   3.5   6.4   5.7   3.4   1.0   0.6   0.0   0.0   0.0   0.1   0.5   1.3   1.2   1.2  1.65  1.05  0.00  0.00  0.00   11.27   15.39    0.52    0.00    0.00
 2011 122    25     0     0     1.0   56.5   12315   39.3   17.1   1.3   3.4   6.6   5.7   3.4   1.0   0.6   0.0   0.0   0.0   0.2   0.6   1.3   1.2   1.2  1.66  1.03  0.00  0.00  0.00   11.72   15.90    0.52    0.00    0.00
 2011 123    26     0     0     1.0   56.8   12315   39.7   17.1   1.4   3.5   6.6   5.8   3.4   1.0   0.6   0.0   0.0   0.0   0.1   0.6   1.3   1.2   1.2  1.67  1.02  0.00  0.00  0.00   12.16   16.35    0.53    0.00    0.00
 2011 124    27     0     0     1.0   57.2   12315   40.2   17.0   1.5   3.5   6.7   5.9   3.4   1.0   0.7   0.0   0.0   0.0   0.1   0.6   1.2   1.1   1.2  1.68  1.01  0.00  0.00  0.00   12.59   16.90    0.53    0.00    0.00
 2011 125    28     0     0     1.0   57.5   12314   40.6   16.9   1.6   3.5   6.7   5.9   3.5   1.0   0.7   0.0   0.0   0.0   0.1   0.5   1.2   1.1   1.2  1.69  1.00  0.00  0.00  0.00   12.99   17.41    0.53    0.00    0.00
 2011 126    29     0     0     1.0   57.7   12314   41.0   16.8   1.7   3.5   6.8   6.0   3.5   1.0   0.7   0.0   0.0   0.0   0.1   0.5   1.2   1.1   1.2  1.70  0.98  0.00  0.00  0.00   13.39   17.91    0.53    0.00    0.00
 2011 127    30     0     0     1.0   57.8   12313   41.2   16.7   1.8   3.5   6.7   6.0   3.5   1.0   0.7   0.0   0.0   0.0   0.1   0.5   1.2   1.0   1.2  1.71  0.97  0.00  0.00  0.00   13.78   18.39    0.54    0.00    0.00
 2011 128    31     0     0     1.0   58.0   12313   41.5   16.6   1.9   3.5   6.8   6.1   3.5   1.0   0.7   0.0   0.0   0.0   0.1   0.5   1.1   1.0   1.2  1.72  0.96  0.00  0.00  0.00   14.18   18.86    0.54    0.00    0.00
 2011 129    32     0     0     1.0   58.2   12313   41.7   16.5   2.0   3.5   6.7   6.1   3.5   1.1   0.7   0.0   0.0   0.0   0.1   0.5   1.1   1.0   1.3  1.72  0.95  0.00  0.00  0.00   14.58   19.33    0.54    0.00    0.00
 2011 130    33     0     0     1.0   58.5   12312   42.0   16.4   2.1   3.5   6.8   6.2   3.5   1.1   0.8   0.0   0.0   0.0   0.1   0.5   1.1   1.0   1.3  1.73  0.94  0.00  0.00  0.00   14.97   19.78    0.55    0.00    0.00
 2011 131    34     0     0     1.0   58.8   12312   42.4   16.4   2.2   3.6   6.8   6.2   3.6   1.1   0.8   0.0   0.0   0.0   0.1   0.5   1.1   0.9   1.3  1.74  0.93  0.00  0.00  0.00   15.36   20.23    0.55    0.00    0.00
 2011 132    35     0     0     1.0   59.0   12311   42.7   16.3   2.3   3.6   6.8   6.3   3.6   1.1   0.8   0.0   0.0   0.0   0.1   0.5   1.1   0.9   1.3  1.75  0.92  0.00  0.00  0.00   15.76   20.68    0.55    0.00    0.00
 2011 133    36     0     0     1.0   59.1   12311   42.9   16.2   2.4   3.6   6.8   6.3   3.6   1.1   0.8   0.0   0.0   0.0   0.1   0.5   1.0   0.9   1.3  1.76  0.91  0.00  0.00  0.00   16.14   21.11    0.55    0.00    0.00
 2011 134    37     0     0     1.0   59.4   12311   43.2   16.2   2.5   3.6   6.8   6.4   3.6   1.1   0.8   0.0   0.0   0.0   0.1   0.5   1.0   0.9   1.3  1.77  0.90  0.00  0.00  0.00   16.52   21.53    0.55    0.00    0.00
 2011 135    38     0     0     1.0   59.6   12310   43.4   16.1   2.5   3.6   6.7   6.4   3.6   1.1   0.8   0.0   0.0   0.0   0.1   0.5   1.0   0.9   1.3  1.78  0.89  0.00  0.00  0.00   16.90   21.95    0.56    0.00    0.00
 2011 136    39     0     0     1.0   59.7   12310   43.6   16.0   2.6   3.6   6.7   6.4   3.7   1.1   0.9   0.0   0.0   0.0   0.1   0.4   1.0   0.8   1.3  1.79  0.88  0.00  0.00  0.00   17.27   22.43    0.56    0.00    0.00
 2011 137    40     0     0     1.0   59.7   12309   43.8   15.9   2.7   3.6   6.7   6.5   3.8   1.1   0.9   0.0   0.0   0.0   0.1   0.4   1.0   0.8   1.2  1.80  0.87  0.00  0.00  0.00   17.62   22.89    0.56    0.00    0.00
 2011 138    41     0     0     1.0   60.0   12309   44.2   15.8   2.8   3.6   6.7   6.5   3.8   1.1   0.9   0.0   0.0   0.0   0.1   0.4   1.0   0.8   1.2  1.81  0.86  0.00  0.00  0.00   17.97   23.34    0.56    0.00    0.00
 2011 139    42     0     0     1.0   60.1   12309   44.4   15.7   2.8   3.6   6.6   6.5   3.9   1.1   0.9   0.0   0.0   0.0   0.1   0.4   1.0   0.8   1.1  1.82  0.85  0.00  0.00  0.00   18.32   23.78    0.56    0.00    0.00
 2011 140    43     0     0     1.0   60.2   12308   44.6   15.6   2.9   3.6   6.6   6.6   3.9   1.1   0.9   0.0   0.0   0.0   0.1   0.4   1.0   0.8   1.1  1.82  0.84  0.00  0.00  0.00   18.68   24.23    0.56    0.00    0.00
 2011 141    44     0     0     1.0   60.3   12308   44.8   15.5   2.9   3.6   6.5   6.6   4.0   1.2   0.9   0.0   0.0   0.0   0.1   0.4   0.9   0.8   1.1  1.83  0.83  0.00  0.00  0.00   19.04   24.68    0.56    0.00    0.00
 2011 142    45     0     0     1.0   60.1   12308   44.7   15.4   2.6   3.7   6.4   6.6   4.0   1.2   1.0   0.0   0.0   0.0   0.1   0.4   0.9   0.8   1.1  1.84  0.82  0.00  0.00  0.00   19.43   25.16    0.56    0.00    0.00
 2011 143    46     0     0     1.0   60.1   12307   44.8   15.3   2.3   3.8   6.3   6.7   4.1   1.2   1.0   0.0   0.0   0.0   0.1   0.4   0.9   0.8   1.0  1.85  0.81  0.00  0.00  0.00   19.84   25.61    0.56    0.00    0.00
 2011 144    47     0     0     1.0   59.6   12307   44.4   15.2   0.8   2.6   5.7   7.1   4.8   1.3   1.0   0.0   0.0   0.0   0.1   0.4   0.9   0.7   1.0  1.86  0.80  0.00  0.00  0.00   20.24   26.10    0.57    0.00    0.00
 2011 145    48     0     0     1.2   59.8   12306   44.4   15.4   0.5   2.1   5.1   6.7   5.2   1.8   1.1   0.0   0.0   0.0   0.2   0.5   0.9   0.8   1.0  1.87  0.80  0.00  0.00  0.00   20.61   26.24    0.57    0.00    0.00
 2011 146    49     0     0     2.1   59.2   12306   43.6   15.7   0.5   2.0   4.8   6.3   5.2   1.9   1.1   0.0   0.0   0.0   0.2   0.5   1.0   0.8   1.0  1.88  0.79  0.00  0.00  0.00   20.98   26.37    0.59    0.00    0.00
 2011 147    50     0     0     2.7   58.5   12306   42.7   15.8   0.5   1.8   4.4   6.1   5.1   2.0   1.1   0.0   0.0   0.0   0.2   0.5   1.0   0.8   1.0  1.89  0.78  0.00  0.00  0.00   21.33   26.55    0.61    0.00    0.00
 2011 148    51     0     0     3.0   58.1   12305   42.2   15.9   0.6   1.8   4.2   6.0   5.1   2.1   1.1   0.0   0.0   0.0   0.2   0.6   1.0   0.8   1.1  1.90  0.78  0.00  0.00  0.00   21.68   26.78    0.62    0.00    0.00
 2011 149    52     0     0     3.2   57.8   12305   41.9   16.0   0.7   1.7   4.0   5.9   5.1   2.1   1.1   0.0   0.0   0.0   0.1   0.6   1.0   0.8   1.1  1.91  0.77  0.00  0.00  0.00   22.02   27.02    0.65    0.00    0.00
 2011 150    53     0     0     3.3   57.9   12305   41.9   16.0   0.7   1.7   3.9   5.9   5.1   2.1   1.1   0.0   0.0   0.0   0.1   0.6   1.0   0.9   1.1  1.92  0.76  0.00  0.00  0.00   22.37   27.30    0.67    0.00    0.00
 2011 151    54     0     0     3.3   58.0   12304   42.0   16.0   0.8   1.8   3.9   5.9   5.1   2.1   1.1   0.0   0.0   0.0   0.1   0.5   1.0   0.9   1.1  1.93  0.76  0.00  0.00  0.00   22.71   27.62    0.68    0.00    0.00
 2011 152    55     0     0     3.3   57.9   12304   41.9   16.0   0.9   1.7   3.8   5.9   5.2   2.1   1.1   0.0   0.0   0.0   0.1   0.5   1.0   0.9   1.1  1.93  0.75  0.00  0.00  0.00   23.05   27.94    0.69    0.00    0.00
 2011 153    56     0     0     3.3   57.7   12304   41.7   16.0   0.9   1.7   3.7   5.9   5.2   2.1   1.1   0.0   0.0   0.0   0.1   0.5   0.9   0.9   1.1  1.94  0.74  0.00  0.00  0.00   23.39   28.25    0.69    0.00    0.00
 2011 154    57     0     0     3.3   57.6   12303   41.6   16.0   0.9   1.7   3.6   5.8   5.2   2.1   1.1   0.0   0.0   0.0   0.1   0.5   0.9   0.9   1.1  1.95  0.73  0.00  0.00  0.00   23.72   28.56    0.70    0.00    0.00
 2011 155    58     0     0     3.3   57.6   12303   41.6   16.0   1.0   1.7   3.6   5.8   5.2   2.1   1.2   0.0   0.0   0.0   0.1   0.5   0.9   0.9   1.1  1.96  0.73  0.00  0.00  0.00   24.05   28.86    0.71    0.00    0.00
 2011 156    59     0     0     3.3   57.5   12303   41.6   15.9   1.0   1.7   3.5   5.8   5.2   2.1   1.2   0.0   0.0   0.0   0.1   0.5   0.9   0.9   1.1  1.97  0.72  0.00  0.00  0.00   24.38   29.21    0.71    0.00    0.00
 2011 157    60     0     0     3.3   57.8   12302   41.9   15.9   1.0   1.7   3.5   5.8   5.2   2.1   1.2   0.0   0.0   0.0   0.1   0.5   0.9   0.9   1.1  1.97  0.71  0.00  0.00  0.00   24.69   29.54    0.72    0.00    0.00
 2011 158    61     0     0     3.3   58.1   12302   42.2   15.9   0.9   1.8   3.6   5.9   5.2   2.2   1.2   0.0   0.0   0.0   0.1   0.5   0.9   0.9   1.1  1.98  0.71  0.00  0.00  0.00   24.99   29.84    0.72    0.00    0.00
 2011 159    62     0     0     3.3   58.4   12302   42.5   15.9   0.9   1.9   3.6   5.9   5.3   2.2   1.2   0.0   0.0   0.0   0.1   0.5   0.9   0.8   1.2  1.99  0.70  0.00  0.00  0.00   25.28   30.14    0.73    0.00    0.00
 2011 160    63     0     0     3.3   58.6   12302   42.8   15.9   1.0   2.0   3.6   5.9   5.3   2.2   1.2   0.0   0.0   0.0   0.1   0.4   0.9   0.8   1.2  2.00  0.69  0.00  0.00  0.00   25.56   30.44    0.73    0.00    0.00
 2011 161    64     0     0     3.3   58.9   12301   43.1   15.9   1.0   2.0   3.7   6.0   5.3   2.2   1.2   0.0   0.0   0.0   0.1   0.4   0.9   0.8   1.2  2.00  0.69  0.00  0.00  0.00   25.85   30.75    0.73    0.00    0.00
 2011 162    65     0     0     3.3   59.1   12301   43.2   15.8   1.1   2.0   3.7   6.0   5.3   2.2   1.2   0.0   0.0   0.0   0.1   0.4   0.9   0.8   1.2  2.01  0.68  0.00  0.00  0.00   26.15   31.06    0.74    0.00    0.00
 2011 163    66     0     0     3.3   59.2   12301   43.4   15.8   1.1   2.0   3.7   6.0   5.3   2.2   1.3   0.0   0.0   0.0   0.1   0.4   0.9   0.8   1.2  2.02  0.68  0.00  0.00  0.00   26.47   31.38    0.74    0.00    0.00
 2011 164    67     0     0     3.3   59.2   12300   43.4   15.8   1.2   2.0   3.6   6.0   5.3   2.2   1.3   0.0   0.0   0.0   0.1   0.4   0.9   0.8   1.2  2.03  0.67  0.00  0.00  0.00   26.81   31.72    0.74    0.00    0.00
 2011 165    68     0     0     3.3   59.2   12300   43.5   15.7   1.2   2.0   3.6   6.0   5.4   2.2   1.3   0.0   0.0   0.0   0.1   0.4   0.9   0.8   1.2  2.03  0.67  0.00  0.00  0.00   27.15   32.13    0.74    0.00    0.00
 2011 166    69     0     0     3.3   59.4   12300   43.7   15.6   1.3   2.0   3.6   6.0   5.4   2.2   1.3   0.0   0.0   0.0   0.1   0.4   0.9   0.8   1.1  2.04  0.66  0.00  0.00  0.00   27.49   32.54    0.75    0.00    0.00
 2011 167    70     0     0     3.3   59.7   12299   44.1   15.6   0.5   1.7   3.7   6.2   5.7   2.3   1.3   0.0   0.0   0.0   0.1   0.4   0.9   0.7   1.1  2.05  0.65  0.00  0.00  0.00   27.84   32.95    0.75    0.00    0.00
 2011 168    71     0     0     4.0   59.2   12299   43.4   15.8   0.5   1.6   3.4   5.8   5.6   2.4   1.3   0.0   0.0   0.0   0.1   0.5   0.9   0.8   1.1  2.06  0.65  0.00  0.00  0.00   28.18   33.10    0.75    0.00    0.00
 2011 169    72     0     0     4.1   59.3   12299   43.4   15.9   0.2   1.1   3.0   5.4   5.8   2.8   1.4   0.0   0.0   0.0   0.2   0.5   0.9   0.8   1.1  2.06  0.64  0.00  0.00  0.00   28.54   33.28    0.75    0.00    0.00
 2011 170    73     0     0     4.5   59.2   12298   43.0   16.1   0.2   0.9   2.6   4.9   5.6   3.2   1.6   0.0   0.0   0.0   0.2   0.5   0.9   0.8   1.1  2.07  0.64  0.00  0.00  0.00   28.85   33.38    0.78    0.00    0.00
 2011 171    74     0     0     6.3   57.7   12298   41.3   16.4   0.2   0.8   2.4   4.4   5.3   3.2   1.6   0.0   0.0   0.0   0.2   0.6   1.0   0.8   1.1  2.09  0.64  0.00  0.00  0.00   29.17   33.47    0.82    0.00    0.00
 2011 172    75     0     0     7.5   56.4   12298   39.8   16.5   0.2   0.7   2.1   4.0   5.1   3.3   1.6   0.0   0.0   0.0   0.2   0.6   1.0   0.8   1.2  2.10  0.63  0.00  0.00  0.00   29.55   33.63    0.95    0.00    0.00
 2011 173    76     0     0     7.8   55.9   12297   39.3   16.6   0.2   0.6   1.8   3.7   5.1   3.4   1.7   0.0   0.0   0.0   0.2   0.6   1.0   0.9   1.2  2.11  0.63  0.00  0.00  0.00   29.91   33.87    1.02    0.00    0.00
 2011 174    77     0     0     9.0   54.7   12297   37.9   16.8   0.3   0.5   1.6   3.4   4.8   3.4   1.7   0.0   0.0   0.0   0.2   0.7   1.0   0.9   1.2  2.12  0.62  0.00  0.00  0.00   30.26   34.01    1.14    0.00    0.00
 2011 175    78     0     0     9.8   54.1   12297   37.2   16.9   0.3   0.5   1.6   3.3   4.6   3.4   1.7   0.0   0.0   0.0   0.2   0.7   1.0   0.9   1.2  2.12  0.62  0.00  0.00  0.00   30.61   34.21    1.21    0.00    0.00
 2011 176    79     0     0    10.3   53.3   12296   36.4   16.9   0.4   0.5   1.4   3.1   4.5   3.4   1.7   0.0   0.0   0.0   0.2   0.7   1.0   0.9   1.2  2.13  0.62  0.00  0.00  0.00   30.95   34.45    1.24    0.00    0.00
 2011 177    80     0     0    10.3   53.3   12296   36.4   16.9   0.4   0.5   1.3   3.1   4.5   3.4   1.8   0.0   0.0   0.0   0.1   0.7   1.0   0.9   1.2  2.14  0.61  0.00  0.00  0.00   31.27   34.68    1.26    0.00    0.00
 2011 178    81     0     0    10.5   53.3   12296   36.4   17.0   0.4   0.6   1.3   3.1   4.5   3.4   1.8   0.0   0.0   0.0   0.1   0.6   1.0   0.9   1.2  2.15  0.61  0.00  0.00  0.00   31.59   34.93    1.28    0.00    0.00
 2011 179    82     0     0    10.6   53.2   12295   36.3   16.9   0.5   0.6   1.3   3.0   4.5   3.4   1.8   0.0   0.0   0.0   0.1   0.6   1.0   0.9   1.2  2.15  0.60  0.00  0.00  0.00   31.88   35.19    1.29    0.00    0.00
 2011 180    83     0     0    10.6   53.0   12295   36.2   16.8   0.5   0.6   1.2   3.0   4.5   3.4   1.8   0.0   0.0   0.0   0.1   0.6   1.0   0.9   1.2  2.16  0.60  0.00  0.00  0.00   32.17   35.48    1.30    0.00    0.00
 2011 181    84     0     0    10.6   52.9   12295   36.1   16.8   0.5   0.6   1.2   2.9   4.5   3.4   1.8   0.0   0.0   0.0   0.1   0.5   0.9   0.9   1.2  2.17  0.59  0.00  0.00  0.00   32.45   35.75    1.31    0.00    0.00
 2011 182    85     0     0    10.6   52.9   12294   36.2   16.7   0.5   0.6   1.2   2.9   4.5   3.4   1.8   0.0   0.0   0.0   0.1   0.5   0.9   0.9   1.2  2.17  0.59  0.00  0.00  0.00   32.73   36.02    1.31    0.00    0.00
 2011 183    86     0     0    10.6   52.8   12294   36.1   16.7   0.5   0.6   1.2   2.8   4.5   3.4   1.8   0.0   0.0   0.0   0.1   0.5   0.9   0.9   1.3  2.18  0.58  0.00  0.00  0.00   33.01   36.29    1.32    0.00    0.00
 2011 184    87     0     0    10.6   53.1   12294   36.4   16.6   0.6   0.7   1.2   2.9   4.6   3.4   1.8   0.0   0.0   0.0   0.1   0.5   0.9   0.9   1.3  2.18  0.58  0.00  0.00  0.00   33.29   36.59    1.32    0.00    0.00
 2011 185    88     0     0    10.6   53.3   12294   36.7   16.6   0.6   0.7   1.2   2.9   4.6   3.5   1.8   0.0   0.0   0.0   0.1   0.5   0.9   0.9   1.3  2.19  0.58  0.00  0.00  0.00   33.54   36.88    1.33    0.00    0.00
 2011 186    89     0     0    10.6   53.6   12293   37.0   16.6   0.7   0.8   1.3   2.9   4.6   3.5   1.8   0.0   0.0   0.0   0.1   0.5   0.9   0.9   1.3  2.20  0.57  0.00  0.00  0.00   33.78   37.15    1.33    0.00    0.00
 2011 187    90     0     0    10.6   53.8   12293   37.2   16.5   0.7   0.8   1.3   3.0   4.6   3.5   1.8   0.0   0.0   0.0   0.1   0.5   0.9   0.9   1.3  2.20  0.57  0.00  0.00  0.00   34.01   37.41    1.34    0.00    0.00
 2011 188    91     0     0    10.6   54.0   12293   37.5   16.5   0.7   0.8   1.3   3.0   4.6   3.5   1.8   0.0   0.0   0.0   0.1   0.4   0.9   0.9   1.3  2.21  0.57  0.00  0.00  0.00   34.24   37.67    1.34    0.00    0.00
 2011 189    92     0     0    10.6   54.2   12293   37.8   16.5   0.8   0.9   1.4   3.0   4.6   3.5   1.9   0.0   0.0   0.0   0.1   0.4   0.9   0.8   1.3  2.21  0.56  0.00  0.00  0.00   34.48   37.93    1.35    0.00    0.00
