*SOIL TEMPERATURE OUTPUT FILE (DAILY)

*DSSAT Cropping System Model Ver. 4.0.2.000               Aug 11, 2016; 21:00:37

*RUN   1        : UYMZ                    
 MODEL          : MZCER040 - Maize           
 EXPERIMENT     : UYMZ0187 MZ    late to create DSS                             
 TREATMENT  1   : UYMZ                    

@YEAR DOY   DAS  TS1D  TS2D  TS3D  TS4D  TS5D  TS6D  TS7D  TS8D  TS9D  TS10
 1992 220     0  21.1  20.5  19.8  19.3  19.0  18.7  18.4  18.2   0.0   0.0
 1992 221     1  18.7  18.4  18.2  18.1  18.1  18.1  18.0  18.0   0.0   0.0
 1992 222     2  16.3  16.4  16.6  16.9  17.1  17.5  17.6  17.7   0.0   0.0
 1992 223     3  14.6  14.8  15.4  16.0  16.5  17.0  17.4  17.5   0.0   0.0
 1992 224     4  12.8  13.3  14.1  15.0  15.7  16.5  17.1  17.3   0.0   0.0
 1992 225     5  12.1  12.7  13.7  14.7  15.5  16.4  16.9  17.2   0.0   0.0
 1992 226     6  13.2  13.7  14.4  15.2  15.9  16.6  17.1  17.3   0.0   0.0
 1992 227     7  14.3  14.6  15.1  15.7  16.3  16.9  17.3  17.4   0.0   0.0
 1992 228     8  14.8  15.0  15.4  16.0  16.4  17.0  17.3  17.5   0.0   0.0
 1992 229     9  16.0  16.1  16.3  16.6  16.9  17.3  17.5  17.6   0.0   0.0
 1992 230    10  17.2  17.1  17.1  17.2  17.4  17.6  17.7  17.7   0.0   0.0
 1992 231    11  17.9  17.7  17.5  17.5  17.6  17.7  17.8  17.8   0.0   0.0
 1992 232    12  18.2  18.0  17.7  17.7  17.7  17.8  17.8  17.8   0.0   0.0
 1992 233    13  18.4  18.1  17.9  17.8  17.8  17.8  17.9  17.8   0.0   0.0
 1992 234    14  18.7  18.3  18.0  17.8  17.8  17.9  17.9  17.9   0.0   0.0
 1992 235    15  18.3  18.0  17.8  17.7  17.7  17.8  17.8  17.8   0.0   0.0
 1992 236    16  18.2  17.9  17.6  17.6  17.6  17.7  17.8  17.8   0.0   0.0
 1992 237    17  18.4  18.1  17.8  17.7  17.7  17.8  17.8  17.8   0.0   0.0
 1992 238    18  18.9  18.5  18.1  17.9  17.8  17.8  17.9  17.8   0.0   0.0
 1992 239    19  18.4  18.1  17.8  17.6  17.6  17.7  17.8  17.8   0.0   0.0
 1992 240    20  19.1  18.7  18.2  18.0  17.9  17.9  17.9  17.9   0.0   0.0
 1992 241    21  19.1  18.6  18.2  17.9  17.9  17.8  17.9  17.8   0.0   0.0
 1992 242    22  19.6  19.1  18.5  18.2  18.0  18.0  17.9  17.9   0.0   0.0
 1992 243    23  19.6  19.1  18.5  18.2  18.0  18.0  17.9  17.9   0.0   0.0
 1992 244    24  18.6  18.2  17.9  17.7  17.6  17.7  17.8  17.8   0.0   0.0
 1992 245    25  16.7  16.6  16.5  16.7  16.9  17.2  17.4  17.5   0.0   0.0
 1992 246    26  15.8  15.8  15.9  16.2  16.5  17.0  17.3  17.4   0.0   0.0
 1992 247    27  14.6  14.8  15.1  15.6  16.0  16.6  17.1  17.3   0.0   0.0
 1992 248    28  14.2  14.4  14.8  15.3  15.9  16.5  17.0  17.2   0.0   0.0
 1992 249    29  15.3  15.3  15.5  15.9  16.3  16.8  17.2  17.3   0.0   0.0
 1992 250    30  16.3  16.2  16.2  16.4  16.6  17.0  17.3  17.4   0.0   0.0
 1992 251    31  17.5  17.2  17.0  17.0  17.1  17.3  17.5  17.6   0.0   0.0
 1992 252    32  18.0  17.7  17.3  17.2  17.2  17.4  17.5  17.6   0.0   0.0
 1992 253    33  18.3  17.9  17.5  17.3  17.3  17.5  17.6  17.6   0.0   0.0
 1992 254    34  18.4  18.0  17.6  17.4  17.4  17.5  17.6  17.6   0.0   0.0
 1992 255    35  18.8  18.3  17.9  17.6  17.5  17.6  17.6  17.7   0.0   0.0
 1992 256    36  18.7  18.2  17.8  17.5  17.5  17.5  17.6  17.6   0.0   0.0
 1992 257    37  18.1  17.7  17.4  17.2  17.2  17.4  17.5  17.6   0.0   0.0
 1992 258    38  18.0  17.6  17.3  17.1  17.1  17.3  17.5  17.5   0.0   0.0
 1992 259    39  18.0  17.6  17.2  17.1  17.1  17.3  17.5  17.5   0.0   0.0
 1992 260    40  18.1  17.7  17.3  17.2  17.2  17.3  17.5  17.5   0.0   0.0
 1992 261    41  19.3  18.7  18.1  17.7  17.6  17.6  17.6  17.7   0.0   0.0
 1992 262    42  19.5  18.9  18.3  17.9  17.7  17.6  17.7  17.7   0.0   0.0
 1992 263    43  19.5  18.9  18.3  17.8  17.7  17.6  17.6  17.7   0.0   0.0
 1992 264    44  20.2  19.5  18.7  18.2  17.9  17.8  17.7  17.7   0.0   0.0
 1992 265    45  21.5  20.6  19.6  18.8  18.4  18.1  17.9  17.9   0.0   0.0
 1992 266    46  19.3  18.8  18.1  17.7  17.5  17.5  17.6  17.6   0.0   0.0
 1992 267    47  19.3  18.7  18.1  17.7  17.5  17.5  17.6  17.6   0.0   0.0
 1992 268    48  18.3  17.9  17.4  17.2  17.1  17.2  17.4  17.5   0.0   0.0
 1992 269    49  16.2  16.0  16.0  16.1  16.3  16.7  17.0  17.2   0.0   0.0
 1992 270    50  13.4  13.6  14.0  14.6  15.2  15.9  16.6  16.9   0.0   0.0
 1992 271    51  14.3  14.4  14.6  15.1  15.5  16.2  16.7  17.0   0.0   0.0
 1992 272    52  15.0  15.0  15.1  15.4  15.8  16.3  16.8  17.0   0.0   0.0
 1992 273    53  16.6  16.4  16.2  16.2  16.4  16.7  17.1  17.2   0.0   0.0
 1992 274    54  19.1  18.5  17.9  17.5  17.3  17.3  17.4  17.5   0.0   0.0
 1992 275    55  21.1  20.3  19.3  18.5  18.1  17.8  17.8  17.7   0.0   0.0
 1992 276    56  21.6  20.7  19.6  18.7  18.3  17.9  17.8  17.8   0.0   0.0
 1992 277    57  21.5  20.6  19.5  18.7  18.2  17.9  17.8  17.7   0.0   0.0
 1992 278    58  21.8  20.9  19.7  18.8  18.3  18.0  17.8  17.8   0.0   0.0
 1992 279    59  20.4  19.6  18.7  18.1  17.8  17.6  17.6  17.6   0.0   0.0
 1992 280    60  18.9  18.3  17.7  17.3  17.2  17.2  17.3  17.4   0.0   0.0
 1992 281    61  17.8  17.4  16.9  16.7  16.7  16.9  17.1  17.3   0.0   0.0
 1992 282    62  17.4  17.1  16.7  16.5  16.6  16.8  17.1  17.2   0.0   0.0
 1992 283    63  16.7  16.5  16.2  16.2  16.3  16.6  17.0  17.1   0.0   0.0
 1992 284    64  18.0  17.6  17.1  16.8  16.8  16.9  17.1  17.3   0.0   0.0
 1992 285    65  19.7  19.0  18.3  17.7  17.4  17.4  17.4  17.5   0.0   0.0
 1992 286    66  21.4  20.5  19.4  18.5  18.1  17.7  17.7  17.6   0.0   0.0
 1992 287    67  22.6  21.6  20.2  19.2  18.5  18.1  17.9  17.8   0.0   0.0
 1992 288    68  24.2  22.9  21.3  20.0  19.1  18.4  18.1  17.9   0.0   0.0
 1992 289    69  24.9  23.5  21.8  20.3  19.4  18.6  18.2  18.0   0.0   0.0
 1992 290    70  24.1  22.8  21.2  19.9  19.1  18.4  18.0  17.9   0.0   0.0
 1992 291    71  23.5  22.4  20.9  19.7  18.9  18.3  18.0  17.9   0.0   0.0
 1992 292    72  22.8  21.7  20.4  19.3  18.6  18.1  17.8  17.8   0.0   0.0
 1992 293    73  20.9  20.1  19.1  18.3  17.8  17.6  17.5  17.5   0.0   0.0
 1992 294    74  19.1  18.5  17.8  17.3  17.1  17.1  17.2  17.3   0.0   0.0
 1992 295    75  19.1  18.6  17.8  17.4  17.1  17.1  17.2  17.3   0.0   0.0
 1992 296    76  19.6  19.0  18.2  17.6  17.3  17.2  17.3  17.4   0.0   0.0
 1992 297    77  20.7  19.9  18.9  18.2  17.7  17.5  17.4  17.5   0.0   0.0
 1992 298    78  22.9  21.8  20.4  19.3  18.6  18.0  17.8  17.7   0.0   0.0
 1992 299    79  24.2  22.9  21.3  19.9  19.1  18.3  18.0  17.9   0.0   0.0
 1992 300    80  25.4  24.0  22.1  20.6  19.5  18.6  18.2  18.0   0.0   0.0
 1992 301    81  26.6  25.0  22.9  21.1  20.0  18.9  18.3  18.1   0.0   0.0
 1992 302    82  24.5  23.1  21.5  20.0  19.1  18.4  18.0  17.9   0.0   0.0
 1992 303    83  22.8  21.7  20.3  19.2  18.5  17.9  17.7  17.6   0.0   0.0
 1992 304    84  22.0  21.0  19.8  18.8  18.2  17.7  17.6  17.6   0.0   0.0
 1992 305    85  21.3  20.4  19.3  18.4  17.9  17.5  17.5  17.5   0.0   0.0
 1992 306    86  20.7  19.9  18.9  18.1  17.6  17.4  17.4  17.4   0.0   0.0
 1992 307    87  23.4  22.2  20.7  19.5  18.7  18.0  17.8  17.7   0.0   0.0
 1992 308    88  23.3  22.1  20.6  19.4  18.6  18.0  17.7  17.7   0.0   0.0
 1992 309    89  22.0  21.0  19.8  18.8  18.1  17.7  17.5  17.5   0.0   0.0
 1992 310    90  20.6  19.8  18.8  18.0  17.6  17.3  17.3  17.3   0.0   0.0
 1992 311    91  19.1  18.5  17.8  17.3  17.0  17.0  17.1  17.2   0.0   0.0
 1992 312    92  17.5  17.1  16.7  16.4  16.4  16.5  16.8  17.0   0.0   0.0
 1992 313    93  18.3  17.8  17.3  16.9  16.7  16.7  16.9  17.1   0.0   0.0
 1992 314    94  21.0  20.2  19.1  18.3  17.8  17.4  17.3  17.4   0.0   0.0
 1992 315    95  22.2  21.2  19.9  18.9  18.2  17.7  17.5  17.5   0.0   0.0
 1992 316    96  23.8  22.6  21.0  19.7  18.8  18.1  17.8  17.7   0.0   0.0
 1992 317    97  25.4  24.0  22.1  20.5  19.4  18.5  18.0  17.8   0.0   0.0
 1992 318    98  26.0  24.5  22.5  20.8  19.7  18.6  18.1  17.9   0.0   0.0
 1992 319    99  26.1  24.6  22.6  20.9  19.7  18.7  18.1  17.9   0.0   0.0
 1992 320   100  26.9  25.3  23.1  21.2  20.0  18.8  18.2  18.0   0.0   0.0
 1992 321   101  25.7  24.3  22.3  20.7  19.6  18.6  18.0  17.9   0.0   0.0
 1992 322   102  24.2  23.0  21.3  19.9  19.0  18.2  17.8  17.7   0.0   0.0
 1992 323   103  23.4  22.3  20.8  19.5  18.7  18.0  17.7  17.6   0.0   0.0
 1992 324   104  23.0  21.9  20.5  19.3  18.5  17.9  17.6  17.5   0.0   0.0
 1992 325   105  23.6  22.5  20.9  19.6  18.7  18.0  17.7  17.6   0.0   0.0
 1992 326   106  23.5  22.4  20.9  19.6  18.7  18.0  17.7  17.6   0.0   0.0
 1992 327   107  23.1  22.1  20.6  19.4  18.6  17.9  17.6  17.5   0.0   0.0
 1992 328   108  22.4  21.4  20.1  19.0  18.3  17.7  17.5  17.4   0.0   0.0
 1992 329   109  21.9  21.0  19.7  18.7  18.1  17.6  17.4  17.4   0.0   0.0
 1992 330   110  20.9  20.1  19.1  18.2  17.7  17.3  17.2  17.3   0.0   0.0
 1992 331   111  21.7  20.8  19.6  18.6  18.0  17.5  17.4  17.4   0.0   0.0
 1992 332   112  23.2  22.1  20.6  19.4  18.6  17.9  17.6  17.5   0.0   0.0
 1992 333   113  24.5  23.3  21.6  20.1  19.1  18.2  17.8  17.7   0.0   0.0
 1992 334   114  25.2  23.9  22.1  20.5  19.4  18.4  17.9  17.7   0.0   0.0
 1992 335   115  26.0  24.6  22.6  20.9  19.7  18.6  18.0  17.8   0.0   0.0
 1992 336   116  25.9  24.5  22.6  20.9  19.7  18.6  18.0  17.8   0.0   0.0
 1992 337   117  25.5  24.1  22.3  20.6  19.5  18.5  17.9  17.8   0.0   0.0
 1992 338   118  25.5  24.1  22.3  20.6  19.5  18.5  17.9  17.8   0.0   0.0
 1992 339   119  25.6  24.2  22.3  20.7  19.5  18.5  17.9  17.8   0.0   0.0
 1992 340   120  25.4  24.1  22.3  20.6  19.5  18.5  17.9  17.7   0.0   0.0
 1992 341   121  26.3  24.9  22.9  21.1  19.8  18.7  18.1  17.8   0.0   0.0
 1992 342   122  26.6  25.1  23.1  21.3  20.0  18.8  18.1  17.9   0.0   0.0
 1992 343   123  26.8  25.3  23.2  21.3  20.0  18.8  18.1  17.9   0.0   0.0
 1992 344   124  26.2  24.8  22.8  21.1  19.8  18.7  18.1  17.8   0.0   0.0
 1992 345   125  26.2  24.8  22.8  21.1  19.8  18.7  18.0  17.8   0.0   0.0
 1992 346   126  25.6  24.3  22.4  20.8  19.6  18.5  18.0  17.7   0.0   0.0
 1992 347   127  25.8  24.5  22.6  20.9  19.7  18.6  18.0  17.8   0.0   0.0
 1992 348   128  26.3  24.9  22.9  21.1  19.9  18.7  18.1  17.8   0.0   0.0
 1992 349   129  26.8  25.3  23.2  21.4  20.1  18.8  18.1  17.9   0.0   0.0
 1992 350   130  27.0  25.5  23.4  21.5  20.1  18.9  18.2  17.9   0.0   0.0
 1992 351   131  27.6  26.0  23.8  21.8  20.3  19.0  18.2  17.9   0.0   0.0
 1992 352   132  27.5  25.9  23.7  21.8  20.3  19.0  18.2  17.9   0.0   0.0
 1992 353   133  27.5  26.0  23.8  21.8  20.3  19.0  18.2  17.9   0.0   0.0
 1992 354   134  27.7  26.1  23.9  21.9  20.4  19.1  18.3  18.0   0.0   0.0
 1992 355   135  28.7  27.0  24.6  22.4  20.8  19.3  18.4  18.1   0.0   0.0
 1992 356   136  29.3  27.5  25.0  22.7  21.1  19.5  18.5  18.1   0.0   0.0
 1992 357   137  29.5  27.7  25.1  22.8  21.1  19.5  18.5  18.1   0.0   0.0
 1992 358   138  28.9  27.1  24.7  22.5  20.9  19.4  18.4  18.1   0.0   0.0
 1992 359   139  28.8  27.0  24.7  22.5  20.9  19.3  18.4  18.1   0.0   0.0
 1992 360   140  27.5  26.0  23.8  21.9  20.4  19.1  18.3  17.9   0.0   0.0
 1992 361   141  26.7  25.2  23.3  21.4  20.1  18.9  18.1  17.8   0.0   0.0
 1992 362   142  26.7  25.3  23.3  21.5  20.1  18.9  18.1  17.8   0.0   0.0
 1992 363   143  27.6  26.1  23.9  21.9  20.5  19.1  18.3  17.9   0.0   0.0
 1992 364   144  27.0  25.5  23.5  21.6  20.2  18.9  18.2  17.9   0.0   0.0
 1992 365   145  26.2  24.9  23.0  21.2  20.0  18.8  18.1  17.8   0.0   0.0
 1992 366   146  24.9  23.7  22.1  20.6  19.5  18.4  17.9  17.6   0.0   0.0
 1993 001   147  23.6  22.6  21.2  19.9  19.0  18.1  17.7  17.5   0.0   0.0
 1993 002   148  21.7  21.0  20.0  19.0  18.3  17.7  17.4  17.3   0.0   0.0
 1993 003   149  21.0  20.4  19.5  18.7  18.1  17.5  17.3  17.2   0.0   0.0
 1993 004   150  21.8  21.1  20.1  19.1  18.4  17.7  17.4  17.3   0.0   0.0
 1993 005   151  23.7  22.7  21.3  20.1  19.1  18.2  17.7  17.5   0.0   0.0
 1993 006   152  25.7  24.5  22.8  21.1  19.9  18.7  18.0  17.8   0.0   0.0
 1993 007   153  26.7  25.4  23.4  21.6  20.3  19.0  18.2  17.9   0.0   0.0
 1993 008   154  27.6  26.1  24.0  22.1  20.7  19.2  18.3  18.0   0.0   0.0
 1993 009   155  27.5  26.1  24.0  22.1  20.7  19.2  18.4  18.0   0.0   0.0
 1993 010   156  27.7  26.2  24.1  22.2  20.7  19.3  18.4  18.0   0.0   0.0
 1993 011   157  27.7  26.3  24.2  22.2  20.8  19.3  18.4  18.0   0.0   0.0
 1993 012   158  28.9  27.3  25.0  22.8  21.2  19.6  18.6  18.1   0.0   0.0
 1993 013   159  30.0  28.3  25.8  23.4  21.7  19.9  18.8  18.3   0.0   0.0
 1993 014   160  30.5  28.7  26.1  23.7  21.9  20.0  18.8  18.3   0.0   0.0
 1993 015   161  30.5  28.7  26.1  23.7  21.9  20.0  18.8  18.3   0.0   0.0
 1993 016   162  29.8  28.1  25.7  23.4  21.7  19.9  18.8  18.3   0.0   0.0
 1993 017   163  28.0  26.6  24.5  22.5  21.0  19.4  18.5  18.1   0.0   0.0
 1993 018   164  26.5  25.2  23.4  21.7  20.4  19.1  18.2  17.9   0.0   0.0
 1993 019   165  25.8  24.6  23.0  21.4  20.1  18.9  18.1  17.8   0.0   0.0
 1993 020   166  25.6  24.5  22.9  21.3  20.1  18.9  18.1  17.8   0.0   0.0
 1993 021   167  26.3  25.1  23.3  21.6  20.3  19.0  18.2  17.9   0.0   0.0
 1993 022   168  28.1  26.6  24.5  22.6  21.0  19.5  18.5  18.1   0.0   0.0

*DSSAT Cropping System Model Ver. 4.0.2.000               Aug 11, 2016; 21:00:37

*RUN   2        : UYMZ                    
 MODEL          : MZCER040 - Maize           
 EXPERIMENT     : UYMZ0187 MZ    late to create DSS                             
 TREATMENT  1   : UYMZ                    

@YEAR DOY   DAS  TS1D  TS2D  TS3D  TS4D  TS5D  TS6D  TS7D  TS8D  TS9D  TS10
 1993 220     0  21.8  21.1  20.3  19.7  19.3  18.9  18.5  18.3   0.0   0.0
 1993 221     1  18.9  18.7  18.4  18.2  18.2  18.1  18.1  18.0   0.0   0.0
 1993 222     2  16.5  16.5  16.7  16.9  17.2  17.5  17.7  17.7   0.0   0.0
 1993 223     3  14.5  14.8  15.3  15.9  16.4  17.0  17.4  17.5   0.0   0.0
 1993 224     4  12.8  13.3  14.1  15.0  15.8  16.6  17.1  17.3   0.0   0.0
 1993 225     5  14.0  14.3  14.9  15.6  16.2  16.8  17.2  17.4   0.0   0.0
 1993 226     6  15.6  15.7  16.0  16.4  16.8  17.2  17.5  17.6   0.0   0.0
 1993 227     7  17.4  17.3  17.2  17.3  17.5  17.7  17.8  17.8   0.0   0.0
 1993 228     8  18.1  17.9  17.7  17.7  17.7  17.8  17.9  17.8   0.0   0.0
 1993 229     9  17.2  17.1  17.0  17.2  17.3  17.6  17.7  17.7   0.0   0.0
 1993 230    10  16.2  16.2  16.3  16.6  16.9  17.3  17.5  17.6   0.0   0.0
 1993 231    11  15.7  15.8  16.0  16.4  16.7  17.2  17.5  17.5   0.0   0.0
 1993 232    12  14.8  15.0  15.4  15.9  16.4  16.9  17.3  17.4   0.0   0.0
 1993 233    13  14.4  14.6  15.1  15.7  16.2  16.8  17.2  17.4   0.0   0.0
 1993 234    14  15.5  15.6  15.8  16.2  16.6  17.1  17.4  17.5   0.0   0.0
 1993 235    15  16.3  16.2  16.4  16.6  16.9  17.2  17.5  17.6   0.0   0.0
 1993 236    16  17.0  16.9  16.9  17.0  17.2  17.4  17.6  17.7   0.0   0.0
 1993 237    17  18.0  17.8  17.5  17.5  17.5  17.7  17.7  17.8   0.0   0.0
 1993 238    18  19.5  19.0  18.5  18.2  18.1  18.0  18.0  17.9   0.0   0.0
 1993 239    19  21.2  20.5  19.7  19.1  18.7  18.4  18.2  18.1   0.0   0.0
 1993 240    20  23.5  22.5  21.2  20.2  19.6  19.0  18.6  18.3   0.0   0.0
 1993 241    21  23.3  22.3  21.1  20.1  19.5  18.9  18.5  18.3   0.0   0.0
 1993 242    22  22.2  21.3  20.3  19.5  19.0  18.6  18.3  18.2   0.0   0.0
 1993 243    23  19.9  19.4  18.7  18.3  18.1  18.0  18.0  17.9   0.0   0.0
 1993 244    24  17.3  17.1  17.0  17.0  17.1  17.4  17.5  17.6   0.0   0.0
 1993 245    25  14.2  14.4  14.8  15.4  15.9  16.6  17.0  17.2   0.0   0.0
 1993 246    26  13.5  13.8  14.3  15.0  15.6  16.4  16.9  17.1   0.0   0.0
 1993 247    27  14.6  14.7  15.1  15.5  16.0  16.6  17.1  17.3   0.0   0.0
 1993 248    28  16.2  16.1  16.2  16.4  16.6  17.0  17.3  17.4   0.0   0.0
 1993 249    29  17.8  17.5  17.3  17.2  17.2  17.4  17.6  17.6   0.0   0.0
 1993 250    30  18.4  18.0  17.6  17.5  17.4  17.5  17.6  17.7   0.0   0.0
 1993 251    31  18.5  18.1  17.7  17.5  17.4  17.5  17.6  17.7   0.0   0.0
 1993 252    32  17.8  17.5  17.2  17.1  17.2  17.4  17.5  17.6   0.0   0.0
 1993 253    33  17.6  17.3  17.1  17.0  17.1  17.3  17.5  17.6   0.0   0.0
 1993 254    34  16.3  16.2  16.2  16.3  16.6  16.9  17.3  17.4   0.0   0.0
 1993 255    35  16.6  16.5  16.4  16.5  16.7  17.0  17.3  17.4   0.0   0.0
 1993 256    36  16.5  16.4  16.3  16.4  16.6  17.0  17.3  17.4   0.0   0.0
 1993 257    37  16.3  16.1  16.1  16.3  16.5  16.9  17.2  17.4   0.0   0.0
 1993 258    38  16.4  16.2  16.2  16.3  16.5  16.9  17.2  17.4   0.0   0.0
 1993 259    39  18.1  17.7  17.3  17.2  17.2  17.3  17.5  17.5   0.0   0.0
 1993 260    40  19.0  18.5  18.0  17.6  17.5  17.5  17.6  17.6   0.0   0.0
 1993 261    41  20.3  19.6  18.8  18.3  18.0  17.8  17.8  17.8   0.0   0.0
 1993 262    42  21.2  20.4  19.4  18.7  18.3  18.0  17.9  17.9   0.0   0.0
 1993 263    43  20.8  20.1  19.2  18.5  18.2  17.9  17.9  17.8   0.0   0.0
 1993 264    44  18.3  17.9  17.5  17.2  17.2  17.3  17.4  17.5   0.0   0.0
 1993 265    45  16.1  15.9  15.9  16.0  16.3  16.7  17.1  17.3   0.0   0.0
 1993 266    46  14.5  14.6  14.8  15.2  15.7  16.3  16.8  17.1   0.0   0.0
 1993 267    47  13.4  13.6  14.1  14.6  15.2  16.0  16.6  16.9   0.0   0.0
 1993 268    48  13.2  13.5  13.9  14.6  15.2  16.0  16.6  16.9   0.0   0.0
 1993 269    49  14.0  14.1  14.4  14.9  15.4  16.1  16.7  17.0   0.0   0.0
 1993 270    50  15.8  15.7  15.7  15.8  16.1  16.6  17.0  17.2   0.0   0.0
 1993 271    51  17.2  16.9  16.6  16.5  16.6  16.9  17.2  17.3   0.0   0.0
 1993 272    52  17.7  17.3  17.0  16.8  16.8  17.0  17.2  17.4   0.0   0.0
 1993 273    53  18.1  17.6  17.2  17.0  16.9  17.1  17.3  17.4   0.0   0.0
 1993 274    54  19.4  18.8  18.1  17.7  17.5  17.4  17.5  17.5   0.0   0.0
 1993 275    55  19.1  18.6  17.9  17.5  17.3  17.3  17.4  17.5   0.0   0.0
 1993 276    56  18.7  18.2  17.6  17.3  17.2  17.2  17.4  17.4   0.0   0.0
 1993 277    57  18.6  18.1  17.6  17.2  17.1  17.2  17.3  17.4   0.0   0.0
 1993 278    58  18.3  17.8  17.3  17.0  17.0  17.1  17.3  17.4   0.0   0.0
 1993 279    59  17.8  17.4  17.0  16.8  16.8  16.9  17.2  17.3   0.0   0.0
 1993 280    60  18.6  18.1  17.5  17.2  17.1  17.1  17.3  17.4   0.0   0.0
 1993 281    61  19.9  19.2  18.4  17.8  17.6  17.4  17.5  17.5   0.0   0.0
 1993 282    62  21.6  20.7  19.6  18.7  18.2  17.9  17.8  17.7   0.0   0.0
 1993 283    63  24.2  23.0  21.4  20.0  19.2  18.5  18.2  18.0   0.0   0.0
 1993 284    64  26.7  25.1  23.1  21.3  20.2  19.1  18.5  18.3   0.0   0.0
 1993 285    65  26.9  25.2  23.1  21.4  20.2  19.1  18.5  18.3   0.0   0.0
 1993 286    66  25.5  24.1  22.2  20.7  19.7  18.8  18.3  18.1   0.0   0.0
 1993 287    67  24.3  23.0  21.4  20.1  19.2  18.5  18.1  18.0   0.0   0.0
 1993 288    68  22.9  21.8  20.4  19.3  18.7  18.1  17.9  17.8   0.0   0.0
 1993 289    69  22.5  21.5  20.2  19.1  18.5  18.0  17.8  17.8   0.0   0.0
 1993 290    70  22.6  21.6  20.2  19.2  18.5  18.0  17.8  17.8   0.0   0.0
 1993 291    71  22.9  21.8  20.5  19.3  18.6  18.1  17.9  17.8   0.0   0.0
 1993 292    72  23.1  21.9  20.5  19.4  18.7  18.1  17.9  17.8   0.0   0.0
 1993 293    73  23.0  21.9  20.5  19.4  18.7  18.1  17.9  17.8   0.0   0.0
 1993 294    74  22.2  21.2  19.9  18.9  18.3  17.9  17.7  17.7   0.0   0.0
 1993 295    75  21.1  20.3  19.2  18.4  17.9  17.6  17.5  17.5   0.0   0.0
 1993 296    76  20.3  19.5  18.6  17.9  17.6  17.4  17.4  17.4   0.0   0.0
 1993 297    77  19.3  18.7  17.9  17.4  17.2  17.1  17.2  17.3   0.0   0.0
 1993 298    78  18.0  17.6  17.0  16.7  16.7  16.8  17.0  17.1   0.0   0.0
 1993 299    79  16.8  16.5  16.2  16.1  16.2  16.5  16.8  17.0   0.0   0.0
 1993 300    80  17.4  17.1  16.7  16.4  16.4  16.6  16.9  17.1   0.0   0.0
 1993 301    81  19.6  18.9  18.1  17.5  17.3  17.1  17.2  17.3   0.0   0.0
 1993 302    82  21.6  20.7  19.5  18.6  18.0  17.7  17.5  17.5   0.0   0.0
 1993 303    83  22.6  21.5  20.2  19.1  18.4  17.9  17.7  17.6   0.0   0.0
 1993 304    84  22.7  21.6  20.3  19.1  18.4  17.9  17.7  17.6   0.0   0.0
 1993 305    85  22.2  21.2  19.9  18.9  18.3  17.8  17.6  17.6   0.0   0.0
 1993 306    86  21.7  20.8  19.6  18.6  18.1  17.6  17.5  17.5   0.0   0.0
 1993 307    87  21.9  20.9  19.7  18.7  18.1  17.7  17.5  17.5   0.0   0.0
 1993 308    88  23.2  22.1  20.6  19.4  18.6  18.0  17.7  17.7   0.0   0.0
 1993 309    89  23.3  22.2  20.7  19.5  18.7  18.0  17.8  17.7   0.0   0.0
 1993 310    90  22.8  21.7  20.3  19.2  18.5  17.9  17.7  17.6   0.0   0.0
 1993 311    91  22.4  21.4  20.1  19.0  18.3  17.8  17.6  17.5   0.0   0.0
 1993 312    92  22.2  21.2  19.9  18.9  18.2  17.7  17.5  17.5   0.0   0.0
 1993 313    93  22.3  21.3  20.0  18.9  18.3  17.7  17.6  17.5   0.0   0.0
 1993 314    94  24.3  23.0  21.4  20.0  19.0  18.2  17.9  17.7   0.0   0.0
 1993 315    95  26.4  24.8  22.8  21.0  19.8  18.8  18.2  18.0   0.0   0.0
 1993 316    96  27.1  25.4  23.2  21.4  20.1  18.9  18.3  18.0   0.0   0.0
 1993 317    97  26.2  24.7  22.6  20.9  19.7  18.7  18.1  17.9   0.0   0.0
 1993 318    98  24.1  22.9  21.2  19.9  18.9  18.2  17.8  17.7   0.0   0.0
 1993 319    99  22.0  21.1  19.8  18.8  18.2  17.7  17.5  17.5   0.0   0.0
 1993 320   100  20.9  20.1  19.1  18.2  17.7  17.4  17.3  17.3   0.0   0.0
 1993 321   101  19.7  19.1  18.3  17.6  17.3  17.1  17.1  17.2   0.0   0.0
 1993 322   102  19.3  18.7  18.0  17.4  17.1  17.0  17.0  17.1   0.0   0.0
 1993 323   103  20.4  19.7  18.8  18.0  17.5  17.2  17.2  17.2   0.0   0.0
 1993 324   104  21.7  20.8  19.7  18.7  18.0  17.6  17.4  17.4   0.0   0.0
 1993 325   105  23.4  22.2  20.8  19.5  18.7  18.0  17.7  17.6   0.0   0.0
 1993 326   106  24.9  23.6  21.8  20.3  19.3  18.4  17.9  17.7   0.0   0.0
 1993 327   107  26.3  24.8  22.8  21.0  19.8  18.7  18.1  17.9   0.0   0.0
 1993 328   108  26.6  25.1  23.0  21.2  19.9  18.8  18.2  17.9   0.0   0.0
 1993 329   109  26.1  24.6  22.6  20.9  19.7  18.6  18.1  17.9   0.0   0.0
 1993 330   110  24.4  23.2  21.5  20.1  19.1  18.2  17.8  17.7   0.0   0.0
 1993 331   111  23.0  22.0  20.5  19.3  18.5  17.9  17.6  17.5   0.0   0.0
 1993 332   112  22.0  21.1  19.8  18.8  18.1  17.6  17.4  17.4   0.0   0.0
 1993 333   113  21.8  20.9  19.7  18.7  18.1  17.6  17.4  17.3   0.0   0.0
 1993 334   114  20.6  19.9  19.0  18.1  17.6  17.3  17.2  17.2   0.0   0.0
 1993 335   115  20.7  20.0  19.0  18.2  17.7  17.3  17.2  17.2   0.0   0.0
 1993 336   116  22.2  21.3  20.0  19.0  18.3  17.7  17.4  17.4   0.0   0.0
 1993 337   117  23.3  22.3  20.8  19.5  18.7  18.0  17.6  17.5   0.0   0.0
 1993 338   118  23.0  22.0  20.6  19.4  18.6  17.9  17.6  17.5   0.0   0.0
 1993 339   119  23.6  22.5  21.0  19.7  18.8  18.0  17.7  17.5   0.0   0.0
 1993 340   120  23.7  22.7  21.2  19.8  18.9  18.1  17.7  17.6   0.0   0.0
 1993 341   121  23.6  22.5  21.0  19.7  18.8  18.0  17.7  17.5   0.0   0.0
 1993 342   122  23.6  22.5  21.1  19.8  18.9  18.0  17.7  17.5   0.0   0.0
 1993 343   123  24.8  23.6  21.9  20.4  19.3  18.3  17.8  17.7   0.0   0.0
 1993 344   124  26.1  24.7  22.8  21.0  19.8  18.7  18.0  17.8   0.0   0.0
 1993 345   125  27.6  26.0  23.8  21.8  20.4  19.0  18.3  18.0   0.0   0.0
 1993 346   126  28.5  26.8  24.4  22.3  20.8  19.3  18.4  18.1   0.0   0.0
 1993 347   127  28.0  26.4  24.1  22.0  20.6  19.2  18.3  18.0   0.0   0.0
 1993 348   128  27.5  25.9  23.8  21.8  20.4  19.1  18.3  18.0   0.0   0.0
 1993 349   129  26.1  24.8  22.9  21.1  19.9  18.7  18.1  17.8   0.0   0.0
 1993 350   130  24.8  23.6  21.9  20.4  19.4  18.4  17.8  17.7   0.0   0.0
 1993 351   131  24.0  22.9  21.4  20.1  19.1  18.2  17.7  17.6   0.0   0.0
 1993 352   132  24.7  23.5  21.9  20.4  19.4  18.4  17.8  17.6   0.0   0.0
 1993 353   133  25.3  24.0  22.3  20.7  19.6  18.5  17.9  17.7   0.0   0.0
 1993 354   134  25.5  24.2  22.4  20.8  19.7  18.6  18.0  17.7   0.0   0.0
 1993 355   135  25.6  24.3  22.5  20.9  19.7  18.6  18.0  17.7   0.0   0.0
 1993 356   136  25.7  24.4  22.6  20.9  19.8  18.6  18.0  17.8   0.0   0.0
 1993 357   137  26.3  25.0  23.0  21.3  20.0  18.8  18.1  17.8   0.0   0.0
 1993 358   138  26.7  25.3  23.3  21.5  20.2  18.9  18.2  17.9   0.0   0.0
 1993 359   139  28.5  26.9  24.6  22.4  20.9  19.3  18.4  18.1   0.0   0.0
 1993 360   140  29.6  27.8  25.3  23.0  21.3  19.6  18.6  18.2   0.0   0.0
 1993 361   141  28.6  26.9  24.6  22.5  20.9  19.4  18.4  18.1   0.0   0.0
 1993 362   142  27.4  25.9  23.8  21.9  20.4  19.1  18.3  17.9   0.0   0.0
 1993 363   143  25.4  24.2  22.5  20.9  19.7  18.6  18.0  17.7   0.0   0.0
 1993 364   144  24.2  23.1  21.7  20.3  19.3  18.3  17.8  17.6   0.0   0.0
 1993 365   145  24.0  22.9  21.5  20.1  19.2  18.2  17.7  17.6   0.0   0.0
 1994 001   146  24.9  23.8  22.1  20.6  19.5  18.4  17.9  17.7   0.0   0.0
 1994 002   147  24.7  23.6  22.0  20.5  19.4  18.4  17.8  17.6   0.0   0.0
 1994 003   148  25.4  24.2  22.5  20.9  19.7  18.6  17.9  17.7   0.0   0.0
 1994 004   149  25.8  24.5  22.7  21.1  19.9  18.7  18.0  17.8   0.0   0.0
 1994 005   150  26.2  24.8  23.0  21.3  20.0  18.8  18.1  17.8   0.0   0.0
 1994 006   151  26.4  25.0  23.1  21.4  20.1  18.8  18.1  17.8   0.0   0.0
 1994 007   152  27.2  25.8  23.7  21.8  20.4  19.0  18.2  17.9   0.0   0.0
 1994 008   153  27.3  25.9  23.8  21.9  20.5  19.1  18.3  17.9   0.0   0.0
 1994 009   154  26.7  25.3  23.4  21.6  20.3  19.0  18.2  17.9   0.0   0.0
 1994 010   155  25.7  24.4  22.7  21.1  19.9  18.7  18.0  17.8   0.0   0.0
 1994 011   156  25.4  24.2  22.6  21.0  19.8  18.7  18.0  17.7   0.0   0.0
 1994 012   157  25.3  24.2  22.5  21.0  19.8  18.7  18.0  17.7   0.0   0.0
 1994 013   158  25.8  24.6  22.9  21.2  20.0  18.8  18.1  17.8   0.0   0.0
 1994 014   159  26.9  25.5  23.6  21.8  20.4  19.0  18.2  17.9   0.0   0.0
 1994 015   160  28.1  26.5  24.4  22.4  20.9  19.3  18.4  18.0   0.0   0.0
 1994 016   161  27.8  26.3  24.2  22.3  20.8  19.3  18.4  18.0   0.0   0.0
 1994 017   162  27.6  26.1  24.1  22.2  20.7  19.2  18.3  18.0   0.0   0.0
 1994 018   163  28.0  26.5  24.4  22.4  20.8  19.3  18.4  18.0   0.0   0.0
 1994 019   164  28.3  26.8  24.6  22.6  21.0  19.4  18.5  18.1   0.0   0.0
 1994 020   165  29.1  27.5  25.1  22.9  21.3  19.6  18.6  18.1   0.0   0.0

*DSSAT Cropping System Model Ver. 4.0.2.000               Aug 11, 2016; 21:00:37

*RUN   3        : UYMZ                    
 MODEL          : MZCER040 - Maize           
 EXPERIMENT     : UYMZ0187 MZ    late to create DSS                             
 TREATMENT  1   : UYMZ                    

@YEAR DOY   DAS  TS1D  TS2D  TS3D  TS4D  TS5D  TS6D  TS7D  TS8D  TS9D  TS10
 1994 220     0  17.1  17.0  17.1  17.3  17.5  17.7  17.8  17.8   0.0   0.0
 1994 221     1  16.1  16.2  16.5  16.8  17.1  17.4  17.6  17.7   0.0   0.0
 1994 222     2  15.4  15.5  15.9  16.4  16.8  17.2  17.5  17.6   0.0   0.0
 1994 223     3  15.5  15.6  16.0  16.4  16.8  17.3  17.5  17.6   0.0   0.0
 1994 224     4  16.1  16.2  16.4  16.7  17.0  17.4  17.6  17.6   0.0   0.0
 1994 225     5  16.9  16.9  16.9  17.1  17.3  17.6  17.7  17.7   0.0   0.0
 1994 226     6  17.2  17.2  17.1  17.3  17.4  17.6  17.8  17.8   0.0   0.0
 1994 227     7  16.6  16.6  16.7  16.9  17.2  17.5  17.6  17.7   0.0   0.0
 1994 228     8  15.1  15.3  15.7  16.2  16.6  17.1  17.4  17.5   0.0   0.0
 1994 229     9  13.3  13.7  14.4  15.2  15.8  16.6  17.1  17.3   0.0   0.0
 1994 230    10  12.4  12.9  13.8  14.7  15.5  16.4  16.9  17.2   0.0   0.0
 1994 231    11  13.2  13.6  14.3  15.1  15.8  16.5  17.1  17.3   0.0   0.0
 1994 232    12  14.3  14.6  15.1  15.7  16.2  16.8  17.2  17.4   0.0   0.0
 1994 233    13  15.9  15.9  16.1  16.4  16.8  17.2  17.5  17.5   0.0   0.0
 1994 234    14  16.6  16.6  16.6  16.8  17.0  17.4  17.6  17.6   0.0   0.0
 1994 235    15  15.9  15.9  16.1  16.4  16.8  17.2  17.4  17.5   0.0   0.0
 1994 236    16  15.2  15.3  15.6  16.0  16.5  17.0  17.3  17.4   0.0   0.0
 1994 237    17  14.9  15.1  15.4  15.9  16.3  16.9  17.3  17.4   0.0   0.0
 1994 238    18  14.3  14.5  15.0  15.6  16.1  16.7  17.1  17.3   0.0   0.0
 1994 239    19  14.1  14.4  14.9  15.5  16.0  16.7  17.1  17.3   0.0   0.0
 1994 240    20  14.7  14.9  15.2  15.7  16.2  16.8  17.2  17.4   0.0   0.0
 1994 241    21  15.7  15.7  15.9  16.2  16.5  17.0  17.3  17.5   0.0   0.0
 1994 242    22  15.8  15.8  16.0  16.3  16.6  17.0  17.3  17.5   0.0   0.0
 1994 243    23  15.8  15.8  16.0  16.3  16.6  17.0  17.3  17.5   0.0   0.0
 1994 244    24  16.1  16.0  16.1  16.3  16.6  17.0  17.3  17.5   0.0   0.0
 1994 245    25  15.2  15.3  15.5  15.9  16.3  16.8  17.2  17.3   0.0   0.0
 1994 246    26  14.3  14.5  14.9  15.4  15.9  16.5  17.0  17.2   0.0   0.0
 1994 247    27  14.6  14.7  15.0  15.5  16.0  16.6  17.1  17.3   0.0   0.0
 1994 248    28  15.3  15.3  15.5  15.9  16.3  16.8  17.2  17.3   0.0   0.0
 1994 249    29  16.9  16.7  16.6  16.7  16.9  17.2  17.4  17.5   0.0   0.0
 1994 250    30  17.6  17.3  17.1  17.0  17.1  17.3  17.5  17.6   0.0   0.0
 1994 251    31  16.6  16.4  16.4  16.5  16.7  17.0  17.3  17.5   0.0   0.0
 1994 252    32  15.6  15.6  15.7  16.0  16.3  16.8  17.2  17.3   0.0   0.0
 1994 253    33  15.0  15.0  15.3  15.6  16.1  16.6  17.0  17.2   0.0   0.0
 1994 254    34  14.5  14.6  14.9  15.4  15.9  16.5  17.0  17.2   0.0   0.0
 1994 255    35  15.0  15.0  15.2  15.6  16.0  16.6  17.0  17.2   0.0   0.0
 1994 256    36  17.4  17.1  16.9  16.8  16.9  17.2  17.4  17.5   0.0   0.0
 1994 257    37  18.2  17.8  17.4  17.2  17.2  17.4  17.5  17.6   0.0   0.0
 1994 258    38  18.0  17.7  17.3  17.1  17.2  17.3  17.5  17.5   0.0   0.0
 1994 259    39  17.3  17.0  16.8  16.7  16.8  17.1  17.3  17.4   0.0   0.0
 1994 260    40  17.6  17.3  17.0  16.9  17.0  17.2  17.4  17.5   0.0   0.0
 1994 261    41  18.4  18.0  17.6  17.3  17.3  17.4  17.5  17.6   0.0   0.0
 1994 262    42  21.1  20.3  19.4  18.7  18.3  18.0  17.9  17.9   0.0   0.0
 1994 263    43  24.2  23.0  21.5  20.3  19.5  18.8  18.4  18.2   0.0   0.0
 1994 264    44  25.9  24.5  22.6  21.1  20.1  19.2  18.7  18.4   0.0   0.0
 1994 265    45  27.0  25.4  23.4  21.7  20.5  19.5  18.8  18.5   0.0   0.0
 1994 266    46  27.9  26.2  24.0  22.1  20.9  19.7  19.0  18.6   0.0   0.0
 1994 267    47  27.3  25.6  23.5  21.8  20.6  19.5  18.8  18.5   0.0   0.0
 1994 268    48  24.1  22.9  21.4  20.2  19.4  18.7  18.3  18.2   0.0   0.0
 1994 269    49  22.9  21.9  20.6  19.5  18.9  18.4  18.1  18.0   0.0   0.0
 1994 270    50  21.3  20.5  19.5  18.7  18.3  18.0  17.9  17.8   0.0   0.0
 1994 271    51  19.1  18.5  17.9  17.5  17.4  17.4  17.5  17.5   0.0   0.0
 1994 272    52  17.6  17.3  16.9  16.8  16.8  17.0  17.2  17.4   0.0   0.0
 1994 273    53  18.5  18.0  17.5  17.2  17.1  17.2  17.4  17.4   0.0   0.0
 1994 274    54  18.5  18.1  17.5  17.2  17.1  17.2  17.3  17.4   0.0   0.0
 1994 275    55  19.7  19.0  18.3  17.8  17.6  17.5  17.5  17.6   0.0   0.0
 1994 276    56  19.9  19.3  18.5  17.9  17.6  17.5  17.5  17.6   0.0   0.0
 1994 277    57  19.5  18.8  18.1  17.7  17.4  17.4  17.5  17.5   0.0   0.0
 1994 278    58  19.5  18.9  18.2  17.7  17.4  17.4  17.5  17.5   0.0   0.0
 1994 279    59  19.9  19.3  18.5  17.9  17.6  17.5  17.5  17.6   0.0   0.0
 1994 280    60  20.0  19.3  18.5  17.9  17.6  17.5  17.5  17.6   0.0   0.0
 1994 281    61  20.5  19.7  18.8  18.1  17.8  17.6  17.6  17.6   0.0   0.0
 1994 282    62  21.3  20.4  19.4  18.5  18.1  17.8  17.7  17.7   0.0   0.0
 1994 283    63  20.8  20.0  19.0  18.3  17.9  17.7  17.6  17.6   0.0   0.0
 1994 284    64  20.3  19.5  18.6  18.0  17.7  17.5  17.5  17.5   0.0   0.0
 1994 285    65  19.2  18.6  17.9  17.5  17.3  17.2  17.3  17.4   0.0   0.0
 1994 286    66  18.8  18.2  17.6  17.2  17.1  17.1  17.2  17.3   0.0   0.0
 1994 287    67  19.1  18.5  17.9  17.4  17.2  17.2  17.3  17.4   0.0   0.0
 1994 288    68  20.9  20.1  19.1  18.3  17.9  17.6  17.6  17.6   0.0   0.0
 1994 289    69  22.6  21.6  20.3  19.2  18.5  18.0  17.8  17.8   0.0   0.0
 1994 290    70  22.8  21.7  20.4  19.3  18.6  18.1  17.9  17.8   0.0   0.0
 1994 291    71  22.5  21.4  20.1  19.1  18.5  18.0  17.8  17.7   0.0   0.0
 1994 292    72  21.6  20.7  19.6  18.7  18.1  17.8  17.6  17.6   0.0   0.0
 1994 293    73  20.7  19.9  18.9  18.2  17.8  17.5  17.5  17.5   0.0   0.0
 1994 294    74  19.8  19.1  18.3  17.7  17.4  17.3  17.3  17.4   0.0   0.0
 1994 295    75  20.5  19.8  18.8  18.1  17.7  17.4  17.4  17.5   0.0   0.0
 1994 296    76  20.1  19.3  18.5  17.8  17.5  17.3  17.3  17.4   0.0   0.0
 1994 297    77  20.1  19.4  18.5  17.9  17.5  17.3  17.3  17.4   0.0   0.0
 1994 298    78  20.0  19.3  18.4  17.8  17.4  17.3  17.3  17.4   0.0   0.0
 1994 299    79  20.1  19.4  18.5  17.8  17.5  17.3  17.3  17.4   0.0   0.0
 1994 300    80  20.2  19.5  18.6  17.9  17.5  17.3  17.3  17.4   0.0   0.0
 1994 301    81  20.1  19.4  18.5  17.8  17.5  17.3  17.3  17.4   0.0   0.0
 1994 302    82  19.5  18.9  18.1  17.5  17.2  17.1  17.2  17.3   0.0   0.0
 1994 303    83  18.4  17.9  17.3  17.0  16.8  16.8  17.0  17.2   0.0   0.0
 1994 304    84  17.5  17.2  16.7  16.5  16.5  16.6  16.9  17.0   0.0   0.0
 1994 305    85  17.4  17.1  16.7  16.4  16.4  16.6  16.8  17.0   0.0   0.0
 1994 306    86  19.3  18.7  17.9  17.4  17.1  17.0  17.1  17.2   0.0   0.0
 1994 307    87  21.5  20.6  19.4  18.5  18.0  17.6  17.5  17.5   0.0   0.0
 1994 308    88  23.3  22.2  20.7  19.5  18.7  18.0  17.8  17.7   0.0   0.0
 1994 309    89  24.5  23.2  21.5  20.1  19.1  18.3  17.9  17.8   0.0   0.0
 1994 310    90  24.6  23.3  21.6  20.1  19.2  18.4  18.0  17.8   0.0   0.0
 1994 311    91  24.4  23.1  21.4  20.0  19.1  18.3  17.9  17.8   0.0   0.0
 1994 312    92  24.2  22.9  21.3  19.9  19.0  18.2  17.9  17.7   0.0   0.0
 1994 313    93  23.8  22.6  21.0  19.7  18.8  18.1  17.8  17.7   0.0   0.0
 1994 314    94  23.0  21.9  20.5  19.3  18.5  17.9  17.7  17.6   0.0   0.0
 1994 315    95  23.3  22.2  20.7  19.4  18.6  18.0  17.7  17.6   0.0   0.0
 1994 316    96  23.4  22.3  20.8  19.5  18.7  18.0  17.7  17.6   0.0   0.0
 1994 317    97  23.4  22.3  20.8  19.5  18.7  18.0  17.7  17.6   0.0   0.0
 1994 318    98  24.2  23.0  21.3  19.9  19.0  18.2  17.8  17.7   0.0   0.0
 1994 319    99  25.1  23.7  21.9  20.4  19.3  18.4  18.0  17.8   0.0   0.0
 1994 320   100  25.5  24.1  22.2  20.6  19.5  18.5  18.0  17.8   0.0   0.0
 1994 321   101  24.4  23.1  21.4  20.0  19.1  18.2  17.8  17.7   0.0   0.0
 1994 322   102  23.7  22.5  21.0  19.6  18.8  18.0  17.7  17.6   0.0   0.0
 1994 323   103  23.0  21.9  20.5  19.3  18.5  17.9  17.6  17.5   0.0   0.0
 1994 324   104  22.3  21.4  20.0  18.9  18.2  17.7  17.5  17.5   0.0   0.0
 1994 325   105  21.9  20.9  19.7  18.7  18.1  17.6  17.4  17.4   0.0   0.0
 1994 326   106  23.1  22.0  20.6  19.3  18.5  17.9  17.6  17.5   0.0   0.0
 1994 327   107  23.9  22.7  21.1  19.8  18.8  18.1  17.7  17.6   0.0   0.0
 1994 328   108  25.0  23.6  21.9  20.3  19.2  18.3  17.9  17.7   0.0   0.0
 1994 329   109  26.7  25.2  23.0  21.2  19.9  18.8  18.2  17.9   0.0   0.0
 1994 330   110  26.2  24.7  22.7  20.9  19.7  18.6  18.1  17.9   0.0   0.0
 1994 331   111  25.9  24.4  22.5  20.8  19.6  18.6  18.0  17.8   0.0   0.0
 1994 332   112  24.5  23.2  21.5  20.1  19.1  18.2  17.8  17.7   0.0   0.0
 1994 333   113  23.4  22.3  20.8  19.5  18.6  17.9  17.6  17.5   0.0   0.0
 1994 334   114  23.1  22.1  20.6  19.4  18.6  17.9  17.6  17.5   0.0   0.0
 1994 335   115  25.1  23.8  22.0  20.4  19.3  18.4  17.9  17.7   0.0   0.0
 1994 336   116  26.1  24.6  22.6  20.9  19.7  18.6  18.0  17.8   0.0   0.0
 1994 337   117  26.3  24.8  22.8  21.0  19.8  18.7  18.1  17.8   0.0   0.0
 1994 338   118  26.0  24.5  22.6  20.9  19.7  18.6  18.0  17.8   0.0   0.0
 1994 339   119  24.9  23.6  21.8  20.3  19.3  18.3  17.8  17.7   0.0   0.0
 1994 340   120  24.2  23.0  21.4  20.0  19.0  18.1  17.7  17.6   0.0   0.0
 1994 341   121  23.9  22.7  21.2  19.8  18.9  18.1  17.7  17.6   0.0   0.0
 1994 342   122  25.6  24.2  22.4  20.7  19.5  18.5  17.9  17.7   0.0   0.0
 1994 343   123  28.1  26.4  24.1  22.0  20.5  19.1  18.3  18.0   0.0   0.0
 1994 344   124  30.2  28.2  25.5  23.0  21.3  19.6  18.6  18.2   0.0   0.0
 1994 345   125  31.5  29.3  26.4  23.7  21.8  19.9  18.8  18.4   0.0   0.0
 1994 346   126  32.9  30.6  27.4  24.5  22.4  20.3  19.1  18.5   0.0   0.0
 1994 347   127  32.9  30.6  27.4  24.5  22.4  20.3  19.1  18.5   0.0   0.0
 1994 348   128  31.6  29.5  26.5  23.8  21.9  20.0  18.9  18.4   0.0   0.0
 1994 349   129  30.6  28.6  25.8  23.3  21.5  19.7  18.7  18.3   0.0   0.0
 1994 350   130  28.8  27.1  24.6  22.4  20.8  19.3  18.4  18.1   0.0   0.0
 1994 351   131  27.3  25.8  23.6  21.7  20.3  18.9  18.2  17.9   0.0   0.0
 1994 352   132  26.5  25.1  23.1  21.3  20.0  18.7  18.1  17.8   0.0   0.0
 1994 353   133  26.3  24.9  22.9  21.2  19.9  18.7  18.0  17.8   0.0   0.0
 1994 354   134  26.2  24.8  22.9  21.1  19.9  18.7  18.0  17.8   0.0   0.0
 1994 355   135  26.8  25.3  23.2  21.4  20.1  18.8  18.1  17.8   0.0   0.0
 1994 356   136  27.2  25.6  23.5  21.6  20.2  18.9  18.2  17.9   0.0   0.0
 1994 357   137  28.5  26.8  24.4  22.3  20.7  19.2  18.4  18.0   0.0   0.0
 1994 358   138  29.7  27.8  25.3  22.9  21.2  19.6  18.6  18.2   0.0   0.0
 1994 359   139  30.8  28.8  26.0  23.5  21.6  19.8  18.7  18.3   0.0   0.0
 1994 360   140  31.3  29.3  26.4  23.8  21.8  19.9  18.8  18.3   0.0   0.0
 1994 361   141  31.6  29.5  26.6  23.9  21.9  20.0  18.9  18.4   0.0   0.0
 1994 362   142  31.5  29.5  26.6  23.9  22.0  20.0  18.9  18.4   0.0   0.0
 1994 363   143  31.4  29.4  26.5  23.9  21.9  20.0  18.8  18.4   0.0   0.0
 1994 364   144  30.9  28.9  26.1  23.6  21.7  19.9  18.8  18.3   0.0   0.0
 1994 365   145  31.1  29.1  26.3  23.7  21.8  19.9  18.8  18.3   0.0   0.0
 1995 001   146  31.9  29.7  26.8  24.0  22.0  20.1  18.9  18.4   0.0   0.0
 1995 002   147  32.6  30.3  27.2  24.4  22.3  20.2  19.0  18.5   0.0   0.0
 1995 003   148  32.9  30.7  27.5  24.6  22.5  20.4  19.1  18.5   0.0   0.0
 1995 004   149  33.0  30.8  27.6  24.7  22.5  20.4  19.1  18.5   0.0   0.0
 1995 005   150  32.9  30.6  27.5  24.6  22.5  20.4  19.1  18.5   0.0   0.0
 1995 006   151  31.9  29.8  26.8  24.1  22.1  20.1  18.9  18.4   0.0   0.0
 1995 007   152  31.2  29.2  26.4  23.8  21.9  20.0  18.8  18.3   0.0   0.0
 1995 008   153  30.8  28.9  26.2  23.6  21.8  19.9  18.8  18.3   0.0   0.0
 1995 009   154  29.2  27.5  25.1  22.8  21.2  19.5  18.5  18.1   0.0   0.0
 1995 010   155  27.8  26.2  24.1  22.1  20.6  19.2  18.3  18.0   0.0   0.0
 1995 011   156  26.4  25.1  23.2  21.4  20.1  18.9  18.1  17.8   0.0   0.0
 1995 012   157  25.5  24.3  22.6  21.0  19.8  18.6  18.0  17.7   0.0   0.0
 1995 013   158  24.9  23.8  22.2  20.7  19.6  18.5  17.9  17.7   0.0   0.0

*DSSAT Cropping System Model Ver. 4.0.2.000               Aug 11, 2016; 21:00:37

*RUN   4        : UYMZ                    
 MODEL          : MZCER040 - Maize           
 EXPERIMENT     : UYMZ0187 MZ    late to create DSS                             
 TREATMENT  1   : UYMZ                    

@YEAR DOY   DAS  TS1D  TS2D  TS3D  TS4D  TS5D  TS6D  TS7D  TS8D  TS9D  TS10
 1995 220     0  13.6  14.0  14.8  15.5  16.2  16.8  17.3  17.4   0.0   0.0
 1995 221     1  13.5  13.9  14.7  15.4  16.1  16.8  17.2  17.4   0.0   0.0
 1995 222     2  12.9  13.4  14.3  15.1  15.9  16.6  17.1  17.3   0.0   0.0
 1995 223     3  12.2  12.8  13.8  14.8  15.6  16.4  17.0  17.2   0.0   0.0
 1995 224     4  13.2  13.7  14.4  15.2  15.9  16.6  17.1  17.3   0.0   0.0
 1995 225     5  14.2  14.5  15.1  15.7  16.3  16.9  17.3  17.4   0.0   0.0
 1995 226     6  15.3  15.4  15.8  16.3  16.7  17.1  17.4  17.5   0.0   0.0
 1995 227     7  15.7  15.8  16.0  16.4  16.8  17.2  17.5  17.6   0.0   0.0
 1995 228     8  15.7  15.8  16.1  16.4  16.8  17.2  17.5  17.6   0.0   0.0
 1995 229     9  13.7  14.1  14.7  15.4  16.0  16.7  17.2  17.3   0.0   0.0
 1995 230    10  11.8  12.4  13.4  14.4  15.2  16.2  16.8  17.1   0.0   0.0
 1995 231    11  10.4  11.2  12.4  13.7  14.7  15.8  16.6  16.9   0.0   0.0
 1995 232    12  10.4  11.2  12.4  13.6  14.7  15.8  16.6  16.9   0.0   0.0
 1995 233    13  11.5  12.2  13.1  14.2  15.1  16.1  16.8  17.1   0.0   0.0
 1995 234    14  13.8  14.1  14.7  15.4  16.0  16.7  17.1  17.3   0.0   0.0
 1995 235    15  17.3  17.1  17.1  17.1  17.3  17.5  17.7  17.7   0.0   0.0
 1995 236    16  20.6  20.0  19.3  18.8  18.5  18.3  18.2  18.1   0.0   0.0
 1995 237    17  23.3  22.4  21.2  20.2  19.6  19.0  18.6  18.4   0.0   0.0
 1995 238    18  25.6  24.4  22.7  21.4  20.4  19.5  18.9  18.6   0.0   0.0
 1995 239    19  26.7  25.3  23.4  21.9  20.8  19.8  19.1  18.7   0.0   0.0
 1995 240    20  25.0  23.7  22.2  21.0  20.1  19.3  18.8  18.5   0.0   0.0
 1995 241    21  23.4  22.4  21.1  20.1  19.5  18.9  18.5  18.3   0.0   0.0
 1995 242    22  21.9  21.1  20.1  19.4  18.9  18.5  18.3  18.1   0.0   0.0
 1995 243    23  20.8  20.1  19.3  18.8  18.5  18.2  18.1  18.0   0.0   0.0
 1995 244    24  19.3  18.8  18.3  18.0  17.9  17.9  17.9  17.8   0.0   0.0
 1995 245    25  18.4  18.0  17.7  17.5  17.5  17.6  17.7  17.7   0.0   0.0
 1995 246    26  17.6  17.3  17.1  17.1  17.2  17.4  17.6  17.6   0.0   0.0
 1995 247    27  17.6  17.4  17.1  17.1  17.2  17.4  17.6  17.6   0.0   0.0
 1995 248    28  18.5  18.1  17.7  17.5  17.5  17.6  17.7  17.7   0.0   0.0
 1995 249    29  20.4  19.8  19.0  18.5  18.2  18.1  18.0  17.9   0.0   0.0
 1995 250    30  23.4  22.3  21.0  20.0  19.4  18.8  18.4  18.2   0.0   0.0
 1995 251    31  24.7  23.5  21.9  20.7  19.9  19.1  18.6  18.4   0.0   0.0
 1995 252    32  24.4  23.2  21.7  20.5  19.7  19.0  18.6  18.3   0.0   0.0
 1995 253    33  22.4  21.5  20.4  19.5  19.0  18.5  18.2  18.1   0.0   0.0
 1995 254    34  20.3  19.7  18.9  18.4  18.1  18.0  17.9  17.9   0.0   0.0
 1995 255    35  16.9  16.7  16.6  16.6  16.8  17.1  17.3  17.5   0.0   0.0
 1995 256    36  14.4  14.5  14.9  15.3  15.8  16.4  16.9  17.1   0.0   0.0
 1995 257    37  13.4  13.6  14.1  14.8  15.4  16.1  16.7  17.0   0.0   0.0
 1995 258    38  13.6  13.8  14.3  14.9  15.4  16.2  16.7  17.0   0.0   0.0
 1995 259    39  14.1  14.2  14.6  15.1  15.6  16.3  16.8  17.1   0.0   0.0
 1995 260    40  16.3  16.2  16.1  16.2  16.5  16.8  17.2  17.3   0.0   0.0
 1995 261    41  18.8  18.4  17.8  17.5  17.4  17.5  17.6  17.6   0.0   0.0
 1995 262    42  19.2  18.6  18.0  17.7  17.5  17.5  17.6  17.6   0.0   0.0
 1995 263    43  18.4  17.9  17.5  17.3  17.2  17.3  17.5  17.5   0.0   0.0
 1995 264    44  17.6  17.3  17.0  16.9  16.9  17.1  17.3  17.4   0.0   0.0
 1995 265    45  15.6  15.6  15.6  15.8  16.1  16.6  17.0  17.2   0.0   0.0
 1995 266    46  14.3  14.4  14.7  15.1  15.6  16.2  16.8  17.0   0.0   0.0
 1995 267    47  15.5  15.5  15.5  15.7  16.1  16.5  17.0  17.2   0.0   0.0
 1995 268    48  17.2  16.9  16.6  16.6  16.7  16.9  17.2  17.3   0.0   0.0
 1995 269    49  18.2  17.8  17.4  17.1  17.1  17.2  17.4  17.5   0.0   0.0
 1995 270    50  18.8  18.3  17.7  17.4  17.3  17.3  17.4  17.5   0.0   0.0
 1995 271    51  18.3  17.9  17.4  17.1  17.1  17.2  17.4  17.4   0.0   0.0
 1995 272    52  17.0  16.7  16.5  16.4  16.6  16.8  17.1  17.3   0.0   0.0
 1995 273    53  16.3  16.1  16.0  16.1  16.3  16.6  17.0  17.2   0.0   0.0
 1995 274    54  15.8  15.7  15.6  15.8  16.1  16.5  16.9  17.1   0.0   0.0
 1995 275    55  16.5  16.3  16.1  16.1  16.3  16.7  17.0  17.2   0.0   0.0
 1995 276    56  17.1  16.8  16.5  16.5  16.5  16.8  17.1  17.3   0.0   0.0
 1995 277    57  18.5  18.0  17.5  17.1  17.1  17.1  17.3  17.4   0.0   0.0
 1995 278    58  18.9  18.4  17.8  17.4  17.2  17.2  17.4  17.4   0.0   0.0
 1995 279    59  19.5  18.9  18.2  17.7  17.4  17.4  17.4  17.5   0.0   0.0
 1995 280    60  19.9  19.2  18.4  17.9  17.6  17.5  17.5  17.5   0.0   0.0
 1995 281    61  20.6  19.8  18.9  18.2  17.8  17.6  17.6  17.6   0.0   0.0
 1995 282    62  20.2  19.4  18.6  18.0  17.7  17.5  17.5  17.5   0.0   0.0
 1995 283    63  20.0  19.3  18.5  17.9  17.6  17.4  17.5  17.5   0.0   0.0
 1995 284    64  19.7  19.0  18.2  17.7  17.4  17.4  17.4  17.5   0.0   0.0
 1995 285    65  18.6  18.1  17.5  17.1  17.0  17.1  17.2  17.3   0.0   0.0
 1995 286    66  17.4  17.1  16.7  16.5  16.5  16.8  17.0  17.2   0.0   0.0
 1995 287    67  17.7  17.3  16.9  16.7  16.6  16.8  17.1  17.2   0.0   0.0
 1995 288    68  18.8  18.2  17.6  17.2  17.0  17.1  17.2  17.3   0.0   0.0
 1995 289    69  19.1  18.5  17.8  17.4  17.2  17.1  17.3  17.4   0.0   0.0
 1995 290    70  19.4  18.8  18.1  17.5  17.3  17.2  17.3  17.4   0.0   0.0
 1995 291    71  20.7  19.9  18.9  18.2  17.8  17.5  17.5  17.5   0.0   0.0
 1995 292    72  21.0  20.2  19.1  18.3  17.9  17.6  17.5  17.5   0.0   0.0
 1995 293    73  20.3  19.6  18.7  18.0  17.6  17.4  17.4  17.5   0.0   0.0
 1995 294    74  20.2  19.5  18.6  17.9  17.6  17.4  17.4  17.4   0.0   0.0
 1995 295    75  21.7  20.7  19.6  18.6  18.1  17.7  17.6  17.6   0.0   0.0
 1995 296    76  23.1  22.0  20.6  19.4  18.7  18.1  17.8  17.8   0.0   0.0
 1995 297    77  24.8  23.5  21.7  20.3  19.3  18.5  18.1  17.9   0.0   0.0
 1995 298    78  25.3  23.9  22.0  20.5  19.5  18.6  18.2  18.0   0.0   0.0
 1995 299    79  24.4  23.1  21.4  20.1  19.2  18.4  18.0  17.9   0.0   0.0
 1995 300    80  22.2  21.2  20.0  18.9  18.3  17.8  17.7  17.6   0.0   0.0
 1995 301    81  20.0  19.3  18.4  17.8  17.4  17.3  17.3  17.3   0.0   0.0
 1995 302    82  17.5  17.2  16.7  16.5  16.5  16.6  16.9  17.1   0.0   0.0
 1995 303    83  16.6  16.3  16.1  16.0  16.1  16.4  16.7  16.9   0.0   0.0
 1995 304    84  17.7  17.3  16.8  16.6  16.5  16.6  16.9  17.1   0.0   0.0
 1995 305    85  20.1  19.4  18.5  17.8  17.4  17.2  17.3  17.3   0.0   0.0
 1995 306    86  22.0  21.1  19.8  18.8  18.2  17.7  17.6  17.5   0.0   0.0
 1995 307    87  24.4  23.1  21.4  20.0  19.1  18.3  17.9  17.8   0.0   0.0
 1995 308    88  26.9  25.3  23.1  21.3  20.1  18.9  18.3  18.1   0.0   0.0
 1995 309    89  28.8  26.9  24.4  22.3  20.8  19.4  18.6  18.3   0.0   0.0
 1995 310    90  29.6  27.6  25.0  22.6  21.1  19.6  18.7  18.4   0.0   0.0
 1995 311    91  28.7  26.8  24.3  22.2  20.7  19.3  18.6  18.3   0.0   0.0
 1995 312    92  27.3  25.6  23.4  21.4  20.1  19.0  18.3  18.1   0.0   0.0
 1995 313    93  25.4  24.0  22.2  20.6  19.5  18.6  18.1  17.9   0.0   0.0
 1995 314    94  23.5  22.3  20.8  19.6  18.7  18.0  17.7  17.7   0.0   0.0
 1995 315    95  22.3  21.3  20.0  19.0  18.3  17.7  17.5  17.5   0.0   0.0
 1995 316    96  22.1  21.1  19.9  18.8  18.2  17.7  17.5  17.5   0.0   0.0
 1995 317    97  22.5  21.5  20.1  19.0  18.3  17.8  17.6  17.5   0.0   0.0
 1995 318    98  22.9  21.8  20.4  19.3  18.5  17.9  17.6  17.6   0.0   0.0
 1995 319    99  23.4  22.2  20.7  19.5  18.7  18.0  17.7  17.6   0.0   0.0
 1995 320   100  23.0  21.9  20.5  19.3  18.5  17.9  17.6  17.6   0.0   0.0
 1995 321   101  23.1  22.0  20.6  19.4  18.6  17.9  17.6  17.6   0.0   0.0
 1995 322   102  22.8  21.7  20.4  19.2  18.4  17.8  17.6  17.5   0.0   0.0
 1995 323   103  22.5  21.5  20.2  19.1  18.4  17.8  17.5  17.5   0.0   0.0
 1995 324   104  22.5  21.5  20.2  19.1  18.3  17.8  17.5  17.5   0.0   0.0
 1995 325   105  23.3  22.2  20.7  19.5  18.7  18.0  17.7  17.6   0.0   0.0
 1995 326   106  24.0  22.8  21.2  19.9  18.9  18.1  17.8  17.6   0.0   0.0
 1995 327   107  24.3  23.1  21.4  20.0  19.0  18.2  17.8  17.7   0.0   0.0
 1995 328   108  24.4  23.2  21.5  20.0  19.1  18.2  17.8  17.7   0.0   0.0
 1995 329   109  24.4  23.2  21.5  20.1  19.1  18.2  17.8  17.7   0.0   0.0
 1995 330   110  24.7  23.4  21.7  20.2  19.2  18.3  17.8  17.7   0.0   0.0
 1995 331   111  23.7  22.6  21.0  19.7  18.8  18.0  17.7  17.6   0.0   0.0
 1995 332   112  23.7  22.6  21.0  19.7  18.8  18.0  17.7  17.6   0.0   0.0
 1995 333   113  24.2  23.0  21.3  19.9  19.0  18.1  17.7  17.6   0.0   0.0
 1995 334   114  25.4  24.0  22.2  20.5  19.4  18.4  17.9  17.8   0.0   0.0
 1995 335   115  25.0  23.7  21.9  20.3  19.3  18.3  17.9  17.7   0.0   0.0
 1995 336   116  26.5  25.0  22.9  21.1  19.9  18.7  18.1  17.9   0.0   0.0
 1995 337   117  27.5  25.9  23.6  21.6  20.2  19.0  18.2  18.0   0.0   0.0
 1995 338   118  28.3  26.5  24.1  22.0  20.5  19.1  18.4  18.0   0.0   0.0
 1995 339   119  28.4  26.7  24.2  22.1  20.6  19.2  18.4  18.1   0.0   0.0
 1995 340   120  29.8  27.9  25.2  22.9  21.2  19.5  18.6  18.2   0.0   0.0
 1995 341   121  30.5  28.5  25.7  23.2  21.4  19.7  18.7  18.3   0.0   0.0
 1995 342   122  29.6  27.7  25.1  22.8  21.1  19.5  18.6  18.2   0.0   0.0
 1995 343   123  28.6  26.8  24.4  22.2  20.7  19.2  18.4  18.1   0.0   0.0
 1995 344   124  28.1  26.4  24.0  22.0  20.5  19.1  18.3  18.0   0.0   0.0
 1995 345   125  27.4  25.8  23.6  21.6  20.2  18.9  18.2  17.9   0.0   0.0
 1995 346   126  26.3  24.9  22.9  21.1  19.8  18.7  18.0  17.8   0.0   0.0
 1995 347   127  27.6  26.0  23.8  21.8  20.4  19.0  18.3  18.0   0.0   0.0
 1995 348   128  28.5  26.7  24.4  22.2  20.7  19.2  18.4  18.0   0.0   0.0
 1995 349   129  29.1  27.3  24.8  22.5  20.9  19.4  18.5  18.1   0.0   0.0
 1995 350   130  30.2  28.3  25.6  23.1  21.3  19.6  18.6  18.2   0.0   0.0
 1995 351   131  31.8  29.6  26.6  23.9  21.9  20.0  18.9  18.4   0.0   0.0
 1995 352   132  33.0  30.6  27.4  24.5  22.4  20.3  19.0  18.5   0.0   0.0
 1995 353   133  33.8  31.3  28.0  24.9  22.7  20.5  19.2  18.6   0.0   0.0
 1995 354   134  34.3  31.8  28.3  25.2  22.9  20.6  19.3  18.7   0.0   0.0
 1995 355   135  34.1  31.7  28.2  25.1  22.9  20.6  19.2  18.6   0.0   0.0
 1995 356   136  33.0  30.7  27.5  24.6  22.4  20.3  19.1  18.5   0.0   0.0
 1995 357   137  30.2  28.3  25.6  23.2  21.4  19.7  18.7  18.2   0.0   0.0
 1995 358   138  28.1  26.5  24.3  22.2  20.7  19.3  18.4  18.0   0.0   0.0
 1995 359   139  26.1  24.8  22.9  21.2  20.0  18.8  18.1  17.8   0.0   0.0
 1995 360   140  24.6  23.5  21.9  20.4  19.4  18.4  17.8  17.6   0.0   0.0
 1995 361   141  24.2  23.2  21.6  20.3  19.2  18.3  17.8  17.6   0.0   0.0
 1995 362   142  25.2  24.0  22.3  20.8  19.6  18.5  17.9  17.7   0.0   0.0
 1995 363   143  26.3  25.0  23.1  21.4  20.1  18.8  18.1  17.8   0.0   0.0
 1995 364   144  27.3  25.8  23.7  21.8  20.4  19.1  18.3  17.9   0.0   0.0
 1995 365   145  27.4  25.9  23.8  21.9  20.5  19.1  18.3  17.9   0.0   0.0
 1996 001   146  27.8  26.2  24.1  22.1  20.6  19.2  18.3  18.0   0.0   0.0
 1996 002   147  28.7  27.0  24.7  22.5  21.0  19.4  18.5  18.1   0.0   0.0
 1996 003   148  29.8  28.0  25.5  23.1  21.4  19.7  18.6  18.2   0.0   0.0
 1996 004   149  29.7  27.9  25.4  23.0  21.3  19.6  18.6  18.2   0.0   0.0
 1996 005   150  29.8  28.0  25.5  23.1  21.4  19.7  18.6  18.2   0.0   0.0
 1996 006   151  29.2  27.5  25.1  22.8  21.2  19.5  18.6  18.1   0.0   0.0
 1996 007   152  28.4  26.8  24.5  22.4  20.9  19.3  18.4  18.0   0.0   0.0
 1996 008   153  27.3  25.9  23.8  21.9  20.5  19.1  18.3  17.9   0.0   0.0
 1996 009   154  27.4  26.0  23.9  21.9  20.5  19.1  18.3  17.9   0.0   0.0
 1996 010   155  28.2  26.6  24.4  22.4  20.8  19.3  18.4  18.0   0.0   0.0
 1996 011   156  28.0  26.5  24.3  22.3  20.8  19.3  18.4  18.0   0.0   0.0
 1996 012   157  28.0  26.5  24.4  22.4  20.8  19.3  18.4  18.0   0.0   0.0
 1996 013   158  28.1  26.5  24.4  22.4  20.9  19.3  18.4  18.0   0.0   0.0
 1996 014   159  27.7  26.3  24.2  22.2  20.7  19.3  18.4  18.0   0.0   0.0
