*WATER BALANCE OUTPUT FILE

*DSSAT Cropping System Model Ver. 4.0.2.000               Aug 11, 2016; 21:00:37

*RUN   1        : UYMZ                    
 MODEL          : MZCER040 - Maize           
 EXPERIMENT     : UYMZ0187 MZ    late to create DSS                             
 TREATMENT  1   : UYMZ                    


     WATER BALANCE PARAMETERS
     ========================                  --mm--

     Soil H20 (start) on Year/day 1992/220     490.84
     Soil H20 (final) on Year/day 1993/022     531.17
     Effective Irrigation                      223.21
     Precipitation                             534.70
     Drainage                                   64.52
     Runoff                                     17.55
     Soil Evaporation                          185.12
     Transpiration                             450.38
     Potential ET                              744.20

     Final Balance                             0.0001


*DSSAT Cropping System Model Ver. 4.0.2.000               Aug 11, 2016; 21:00:37

*RUN   2        : UYMZ                    
 MODEL          : MZCER040 - Maize           
 EXPERIMENT     : UYMZ0187 MZ    late to create DSS                             
 TREATMENT  1   : UYMZ                    


     WATER BALANCE PARAMETERS
     ========================                  --mm--

     Soil H20 (start) on Year/day 1993/220     490.84
     Soil H20 (final) on Year/day 1994/020     487.05
     Effective Irrigation                       70.90
     Precipitation                             657.60
     Drainage                                  129.64
     Runoff                                     12.48
     Soil Evaporation                          147.38
     Transpiration                             442.79
     Potential ET                              683.08

     Final Balance                             0.0000


*DSSAT Cropping System Model Ver. 4.0.2.000               Aug 11, 2016; 21:00:37

*RUN   3        : UYMZ                    
 MODEL          : MZCER040 - Maize           
 EXPERIMENT     : UYMZ0187 MZ    late to create DSS                             
 TREATMENT  1   : UYMZ                    


     WATER BALANCE PARAMETERS
     ========================                  --mm--

     Soil H20 (start) on Year/day 1994/220     490.84
     Soil H20 (final) on Year/day 1995/013     433.65
     Effective Irrigation                      195.75
     Precipitation                             446.90
     Drainage                                   94.81
     Runoff                                      0.98
     Soil Evaporation                          177.19
     Transpiration                             426.85
     Potential ET                              680.28

     Final Balance                             0.0002


*DSSAT Cropping System Model Ver. 4.0.2.000               Aug 11, 2016; 21:00:37

*RUN   4        : UYMZ                    
 MODEL          : MZCER040 - Maize           
 EXPERIMENT     : UYMZ0187 MZ    late to create DSS                             
 TREATMENT  1   : UYMZ                    


     WATER BALANCE PARAMETERS
     ========================                  --mm--

     Soil H20 (start) on Year/day 1995/220     490.84
     Soil H20 (final) on Year/day 1996/014     496.51
     Effective Irrigation                      230.08
     Precipitation                             455.10
     Drainage                                   49.69
     Runoff                                      2.61
     Soil Evaporation                          177.92
     Transpiration                             449.29
     Potential ET                              717.41

     Final Balance                             0.0001

