*GROWTH ASPECTS OUTPUT FILE

*DSSAT Cropping System Model Ver. 4.0.2.000               Jul 20, 2016; 10:57:40

*RUN   1        : UYMZ                    
 MODEL          : MZCER040 - Maize           
 EXPERIMENT     : UYMZ0048 MZ    late to create DSS                             
 TREATMENT  1   : UYMZ                    

@YEAR DOY   DAS   DAP   L#SD   GSTD   LAID   LWAD   SWAD   GWAD   RWAD   CWAD   G#AD   GWGD   HIAD   PWAD   P#AD   WSPD   WSGD   NSTD   EWSD   LN%D   SH%D   HIPD   PWDD   PWTD     SLAD   CHTD   CWID   RDPD   RL1D   RL2D   RL3D   RL4D   RL5D   RL6D   RL7D   RL8D   RL9D   RL10   CDAD   LDAD   SDAD   SNW0C   SNW1C
 1990 194     3     0    0.0      0   0.00      0      0      0      0      0      0    0.0  0.000      0      0  0.000  0.000  0.000  0.000   0.00   0.00   0.00      0      0      0.0   0.00   0.00   0.03   0.00   0.00   0.00   0.00   0.00   0.00   0.00   0.00   0.00   0.00      0      0      0       0       0
 1990 195     4     1    0.0      0   0.00      0      0      0      0      0      0    0.0  0.000      0      0  0.000  0.000  0.000  0.000   0.00   0.00   0.00      0      0      0.0   0.00   0.00   0.03   0.00   0.00   0.00   0.00   0.00   0.00   0.00   0.00   0.00   0.00      0      0      0       0       0
 1990 196     5     2    0.0      0   0.00      0      0      0      0      0      0    0.0  0.000      0      0  0.000  0.000  0.000  0.000   0.00   0.00   0.00      0      0      0.0   0.00   0.00   0.03   0.00   0.00   0.00   0.00   0.00   0.00   0.00   0.00   0.00   0.00      0      0      0       0       0
 1990 197     6     3    0.0      0   0.00      0      0      0      0      0      0    0.0  0.000      0      0  0.000  0.000  0.000  0.000   0.00   0.00   0.00      0      0      0.0   0.00   0.00   0.03   0.00   0.00   0.00   0.00   0.00   0.00   0.00   0.00   0.00   0.00      0      0      0       0       0
 1990 198     7     4    0.0      0   0.00      0      0      0      0      0      0    0.0  0.000      0      0  0.000  0.000  0.000  0.000   0.00   0.00   0.00      0      0      0.0   0.00   0.00   0.04   0.00   0.00   0.00   0.00   0.00   0.00   0.00   0.00   0.00   0.00      0      0      0       0       0
 1990 199     8     5    0.0      0   0.00      0      0      0      0      0      0    0.0  0.000      0      0  0.000  0.000  0.000  0.000   0.00   0.00   0.00      0      0      0.0   0.00   0.00   0.04   0.00   0.00   0.00   0.00   0.00   0.00   0.00   0.00   0.00   0.00      0      0      0       0       0
 1990 200     9     6    0.0      0   0.00      0      0      0      0      0      0    0.0  0.000      0      0  0.000  0.000  0.000  0.000   0.00   0.00   0.00      0      0      0.0   0.00   0.00   0.04   0.00   0.00   0.00   0.00   0.00   0.00   0.00   0.00   0.00   0.00      0      0      0       0       0
 1990 201    10     7    0.0      0   0.00      0      0      0      0      0      0    0.0  0.000      0      0  0.000  0.000  0.000  0.000   0.00   0.00   0.00      0      0      0.0   0.00   0.00   0.04   0.00   0.00   0.00   0.00   0.00   0.00   0.00   0.00   0.00   0.00      0      0      0       0       0
 1990 202    11     8    0.0      0   0.00      0      0      0      0      0      0    0.0  0.000      0      0  0.000  0.000  0.000  0.000   0.00   0.00   0.00      0      0      0.0   0.00   0.00   0.04   0.00   0.00   0.00   0.00   0.00   0.00   0.00   0.00   0.00   0.00      0      0      0       0       0
 1990 203    12     9    0.0      0   0.00      0      0      0      0      0      0    0.0  0.000      0      0  0.000  0.000  0.000  0.000   0.00   0.00   0.00      0      0      0.0   0.00   0.00   0.04   0.00   0.00   0.00   0.00   0.00   0.00   0.00   0.00   0.00   0.00      0      0      0       0       0
 1990 204    13    10    0.0      0   0.00      0      0      0      0      0      0    0.0  0.000      0      0  0.000  0.000  0.000  0.000   0.00   0.00   0.00      0      0      0.0   0.00   0.00   0.04   0.00   0.00   0.00   0.00   0.00   0.00   0.00   0.00   0.00   0.00      0      0      0       0       0
 1990 205    14    11    0.0      0   0.00      0      0      0      0      0      0    0.0  0.000      0      0  0.000  0.000  0.000  0.000   0.00   0.00   0.00      0      0      0.0   0.00   0.00   0.04   0.00   0.00   0.00   0.00   0.00   0.00   0.00   0.00   0.00   0.00      0      0      0       0       0
 1990 206    15    12    0.0      0   0.00      0      0      0      0      0      0    0.0  0.000      0      0  0.000  0.000  0.000  0.000   0.00   0.00   0.00      0      0      0.0   0.00   0.00   0.04   0.00   0.00   0.00   0.00   0.00   0.00   0.00   0.00   0.00   0.00      0      0      0       0       0
 1990 207    16    13    0.0      0   0.00      0      0      0      0      0      0    0.0  0.000      0      0  0.000  0.000  0.000  0.000   0.00   0.00   0.00      0      0      0.0   0.00   0.00   0.05   0.00   0.00   0.00   0.00   0.00   0.00   0.00   0.00   0.00   0.00      0      0      0       0       0
 1990 208    17    14    0.0      0   0.00      0      0      0      0      0      0    0.0  0.000      0      0  0.000  0.000  0.000  0.000   0.00   0.00   0.00      0      0      0.0   0.00   0.00   0.05   0.00   0.00   0.00   0.00   0.00   0.00   0.00   0.00   0.00   0.00      0      0      0       0       0
 1990 209    18    15    0.0      0   0.00      0      0      0      0      0      0    0.0  0.000      0      0  0.000  0.000  0.000  0.000   0.00   0.00   0.00      0      0      0.0   0.00   0.00   0.05   0.00   0.00   0.00   0.00   0.00   0.00   0.00   0.00   0.00   0.00      0      0      0       0       0
 1990 210    19    16    0.0      0   0.00      0      0      0      0      0      0    0.0  0.000      0      0  0.000  0.000  0.000  0.000   0.00   0.00   0.00      0      0      0.0   0.00   0.00   0.05   0.00   0.00   0.00   0.00   0.00   0.00   0.00   0.00   0.00   0.00      0      0      0       0       0
 1990 211    20    17    0.0      0   0.00      0      0      0      0      0      0    0.0  0.000      0      0  0.000  0.000  0.000  0.000   0.00   0.00   0.00      0      0      0.0   0.00   0.00   0.05   0.00   0.00   0.00   0.00   0.00   0.00   0.00   0.00   0.00   0.00      0      0      0       0       0
 1990 212    21    18    0.0      0   0.00      0      0      0      0      0      0    0.0  0.000      0      0  0.000  0.000  0.000  0.000   0.00   0.00   0.00      0      0      0.0   0.00   0.00   0.05   0.00   0.00   0.00   0.00   0.00   0.00   0.00   0.00   0.00   0.00      0      0      0       0       0
 1990 213    22    19    0.0      0   0.00      0      0      0      0      0      0    0.0  0.000      0      0  0.000  0.000  0.000  0.000   0.00   0.00   0.00      0      0      0.0   0.00   0.00   0.06   0.00   0.00   0.00   0.00   0.00   0.00   0.00   0.00   0.00   0.00      0      0      0       0       0
 1990 214    23    20    0.0      0   0.00      0      0      0      0      0      0    0.0  0.000      0      0  0.000  0.000  0.000  0.000   0.00   0.00   0.00      0      0      0.0   0.00   0.00   0.06   0.00   0.00   0.00   0.00   0.00   0.00   0.00   0.00   0.00   0.00      0      0      0       0       0
 1990 215    24    21    0.0      0   0.00      0      0      0      0      0      0    0.0  0.000      0      0  0.000  0.000  0.000  0.000   0.00   0.00   0.00      0      0      0.0   0.00   0.00   0.07   0.00   0.00   0.00   0.00   0.00   0.00   0.00   0.00   0.00   0.00      0      0      0       0       0
 1990 216    25    22    0.0      0   0.00      0      0      0      0      0      0    0.0  0.000      0      0  0.000  0.000  0.000  0.000   0.00   0.00   0.00      0      0      0.0   0.00   0.00   0.08   0.00   0.00   0.00   0.00   0.00   0.00   0.00   0.00   0.00   0.00      0      0      0       0       0
 1990 217    26    23    0.0      0   0.00      0      0      0      0      0      0    0.0  0.000      0      0  0.000  0.000  0.000  0.000   0.00   0.00   0.00      0      0      0.0   0.00   0.00   0.10   0.00   0.00   0.00   0.00   0.00   0.00   0.00   0.00   0.00   0.00      0      0      0       0       0
 1990 218    27    24    0.0      0   0.00      0      0      0      0      0      0    0.0  0.000      0      0  0.000  0.000  0.000  0.000   0.00   0.00   0.00      0      0      0.0   0.00   0.00   0.12   0.00   0.00   0.00   0.00   0.00   0.00   0.00   0.00   0.00   0.00      0      0      0       0       0
 1990 219    28    25    1.0      1   0.00     14     14      0     14     28      0    0.0  0.000      0      0  0.000  0.000  0.012  0.000   4.40   0.00   0.00      0      0     23.8   0.00   0.00   0.13   0.28   0.09   0.00   0.00   0.00   0.00   0.00   0.00   0.00   0.00      0      0      0       0       0
 1990 220    29    26    2.0      1   0.01     14     14      0     14     28      0    0.0  0.000      0      0  0.000  0.062  0.015  0.000   4.52   0.00   0.00      0      0     41.9   0.00   0.00   0.14   0.28   0.10   0.00   0.00   0.00   0.00   0.00   0.00   0.00   0.00      0      0      0       0       0
 1990 221    30    27    2.0      1   0.01     14     14      0     15     28      0    0.0  0.000      0      0  0.200  0.467  0.000  0.000   4.50   0.00   0.00      0      0     49.1   0.00   0.00   0.15   0.27   0.11   0.00   0.00   0.00   0.00   0.00   0.00   0.00   0.00      0      0      0       0       0
 1990 222    31    28    2.0      1   0.01     14     14      0     15     28      0    0.0  0.000      0      0  0.283  0.523  0.000  0.000   4.48   0.00   0.00      0      0     56.1   0.00   0.00   0.15   0.27   0.12   0.00   0.00   0.00   0.00   0.00   0.00   0.00   0.00      0      0      0       0       0
 1990 223    32    29    3.0      1   0.01     14     14      0     16     28      0    0.0  0.000      0      0  0.391  0.594  0.000  0.000   4.45   0.00   0.00      0      0     66.2   0.00   0.00   0.17   0.27   0.13   0.00   0.00   0.00   0.00   0.00   0.00   0.00   0.00      0      0      0       0       0
 1990 224    33    30    3.0      1   0.01     14     14      0     17     28      0    0.0  0.000      0      0  0.442  0.628  0.000  0.000   4.41   0.00   0.00      0      0     76.1   0.00   0.00   0.18   0.27   0.14   0.00   0.00   0.00   0.00   0.00   0.00   0.00   0.00      0      0      0       0       0
 1990 225    34    31    4.0      1   0.02     14     14      0     17     28      0    0.0  0.000      0      0  0.444  0.630  0.000  0.000   4.41   0.00   0.00      0      0    112.3   0.00   0.00   0.19   0.27   0.15   0.01   0.00   0.00   0.00   0.00   0.00   0.00   0.00      0      0      0       0       0
 1990 226    35    32    4.0      1   0.03     14     14      0     18     28      0    0.0  0.000      0      0  0.000  0.222  0.000  0.000   4.41   0.00   0.00      0      0    199.7   0.00   0.00   0.21   0.26   0.16   0.01   0.00   0.00   0.00   0.00   0.00   0.00   0.00      0      0      0       0       0
 1990 227    36    33    4.0      1   0.03     14     14      0     19     28      0    0.0  0.000      0      0  0.417  0.612  0.000  0.000   4.33   0.00   0.00      0      0    214.3   0.00   0.00   0.21   0.27   0.17   0.01   0.00   0.00   0.00   0.00   0.00   0.00   0.00      0      0      0       0       0
 1990 228    37    34    4.0      1   0.04     14     14      0     23     28      0    0.0  0.000      0      0  0.000  0.000  0.000  0.000   4.32   0.00   0.00      0      0    277.2   0.00   0.00   0.22   0.30   0.20   0.03   0.00   0.00   0.00   0.00   0.00   0.00   0.00      0      0      0       0       0
 1990 229    38    35    5.0      1   0.05     15     14      0     28     29      0    0.0  0.000      0      0  0.000  0.000  0.000  0.000   4.13   0.00   0.00      0      0    330.6   0.00   0.00   0.22   0.33   0.25   0.05   0.00   0.00   0.00   0.00   0.00   0.00   0.00      0      0      0       0       1
 1990 230    39    36    5.0      1   0.06     19     14      0     33     33      0    0.0  0.000      0      0  0.000  0.000  0.000  0.000   3.80   0.00   0.00      0      0    317.9   0.00   0.00   0.23   0.36   0.30   0.08   0.00   0.00   0.00   0.00   0.00   0.00   0.00      0      0      0       0       1
 1990 231    40    37    5.0      1   0.07     24     14      0     37     38      0    0.0  0.000      0      0  0.000  0.000  0.000  0.000   3.67   0.00   0.00      0      0    303.9   0.00   0.00   0.24   0.38   0.33   0.10   0.00   0.00   0.00   0.00   0.00   0.00   0.00      0      0      0       0       1
 1990 232    41    38    5.0      1   0.09     31     14      0     45     45      0    0.0  0.000      0      0  0.000  0.000  0.000  0.000   3.65   0.00   0.00      0      0    291.3   0.00   0.00   0.25   0.39   0.41   0.14   0.00   0.00   0.00   0.00   0.00   0.00   0.00      0      0      0       0       1
 1990 233    42    39    5.0      1   0.10     36     14      0     53     50      0    0.0  0.000      0      0  0.000  0.000  0.000  0.000   3.78   0.00   0.00      0      0    282.7   0.00   0.00   0.25   0.39   0.49   0.20   0.00   0.00   0.00   0.00   0.00   0.00   0.00      0      0      0       0       1
 1990 234    43    40    6.0      1   0.11     41     14      0     61     55      0    0.0  0.000      0      0  0.000  0.000  0.000  0.000   3.83   0.00   0.00      0      0    275.8   0.00   0.00   0.26   0.39   0.56   0.25   0.00   0.00   0.00   0.00   0.00   0.00   0.00      0      0      0       0       2
 1990 235    44    41    6.0      1   0.12     43     14      0     70     57      0    0.0  0.000      0      0  0.000  0.000  0.000  0.000   4.03   0.00   0.00      0      0    265.8   0.00   0.00   0.26   0.39   0.64   0.31   0.00   0.00   0.00   0.00   0.00   0.00   0.00      0      0      0       0       2
 1990 236    45    42    6.0      1   0.12     47     14      0     77     61      0    0.0  0.000      0      0  0.000  0.000  0.000  0.000   3.98   0.00   0.00      0      0    248.8   0.00   0.00   0.27   0.39   0.71   0.36   0.00   0.00   0.00   0.00   0.00   0.00   0.00      0      0      0       0       2
 1990 237    46    43    6.0      1   0.14     57     14      0     84     71      0    0.0  0.000      0      0  0.000  0.000  0.000  0.000   3.58   0.00   0.00      0      0    242.5   0.00   0.00   0.28   0.38   0.77   0.41   0.00   0.00   0.00   0.00   0.00   0.00   0.00      0      0      0       0       3
 1990 238    47    44    6.0      1   0.17     70     14      0     96     84      0    0.0  0.000      0      0  0.000  0.000  0.000  0.000   3.48   0.00   0.00      0      0    235.3   0.00   0.00   0.29   0.38   0.87   0.50   0.00   0.00   0.00   0.00   0.00   0.00   0.00      0      0      0       0       3
 1990 239    48    45    6.0      1   0.17     75     14      0    100     89      0    0.0  0.000      0      0  0.000  0.000  0.000  0.000   3.92   0.00   0.00      0      0    232.5   0.00   0.00   0.29   0.40   0.90   0.54   0.00   0.00   0.00   0.00   0.00   0.00   0.00      0      0      0       0       4
 1990 240    49    46    6.0      1   0.15     75     14      0    104     89      0    0.0  0.000      0      0  0.000  0.000  0.000  0.000   4.14   0.00   0.00      0      0    195.3   0.00   0.00   0.29   0.40   0.93   0.56   0.00   0.00   0.00   0.00   0.00   0.00   0.00      0      0      0       0       4
 1990 241    50    47    6.0      1   0.07     77     14      0    112     91      0    0.0  0.000      0      0  0.000  0.000  0.000  0.000   4.05   0.00   0.00      0      0     94.1   0.00   0.00   0.29   0.42   0.98   0.62   0.00   0.00   0.00   0.00   0.00   0.00   0.00      0      0      0       0       4
 1990 242    51    48    6.0      1   0.08     85     14      0    118     99      0    0.0  0.000      0      0  0.000  0.000  0.000  0.000   3.74   0.00   0.00      0      0     93.3   0.00   0.00   0.30   0.44   1.02   0.66   0.00   0.00   0.00   0.00   0.00   0.00   0.00      0      0      0       0       4
 1990 243    52    49    7.0      1   0.08     86     14      0    118    100      0    0.0  0.000      0      0  0.000  0.000  0.010  0.000   4.08   0.00   0.00      0      0     94.3   0.00   0.00   0.30   0.44   1.02   0.67   0.00   0.00   0.00   0.00   0.00   0.00   0.00      0      0      0       0       5
 1990 244    53    50    7.0      1   0.06     86     14      0    118    100      0    0.0  0.000      0      0  0.000  0.000  0.000  0.000   4.12   0.00   0.00      0      0     68.8   0.00   0.00   0.30   0.44   1.02   0.67   0.00   0.00   0.00   0.00   0.00   0.00   0.00      0      0      0       0       5
 1990 245    54    51    7.0      1   0.02     86     14      0    119    100      0    0.0  0.000      0      0  0.000  0.000  0.000  0.000   4.11   0.00   0.00      0      0     21.6   0.00   0.00   0.30   0.44   1.03   0.67   0.00   0.00   0.00   0.00   0.00   0.00   0.00      0      0      0       0       6
 1990 246    55    52    7.0      1   0.02     90     14      0    119    104      0    0.0  0.000      0      0  0.000  0.000  0.000  0.000   3.94   0.00   0.00      0      0     25.9   0.00   0.00   0.30   0.44   1.03   0.67   0.00   0.00   0.00   0.00   0.00   0.00   0.00      0      0      0       0       6
 1990 247    56    53    7.0      1   0.03     96     14      0    118    110      0    0.0  0.000      0      0  0.000  0.000  0.000  0.000   3.90   0.00   0.00      0      0     35.5   0.00   0.00   0.30   0.44   1.02   0.67   0.00   0.00   0.00   0.00   0.00   0.00   0.00      0      0      0       0       6
 1990 248    57    54    7.0      1   0.05     98     14      0    118    112      0    0.0  0.000      0      0  0.000  0.000  0.000  0.000   4.02   0.00   0.00      0      0     54.7   0.00   0.00   0.31   0.43   1.02   0.67   0.00   0.00   0.00   0.00   0.00   0.00   0.00      0      0      0       0       7
 1990 249    58    55    7.0      1   0.06    100     14      0    118    114      0    0.0  0.000      0      0  0.000  0.000  0.000  0.000   3.98   0.00   0.00      0      0     58.4   0.00   0.00   0.31   0.43   1.02   0.67   0.00   0.00   0.00   0.00   0.00   0.00   0.00      0      0      0       0       8
 1990 250    59    56    7.0      1   0.06    103     14      0    118    117      0    0.0  0.000      0      0  0.000  0.000  0.000  0.000   3.95   0.00   0.00      0      0     62.6   0.00   0.00   0.32   0.43   1.02   0.67   0.00   0.00   0.00   0.00   0.00   0.00   0.00      0      0      0       0       8
 1990 251    60    57    7.0      1   0.07    106     14      0    118    120      0    0.0  0.000      0      0  0.000  0.000  0.000  0.000   3.96   0.00   0.00      0      0     65.8   0.00   0.00   0.32   0.43   1.01   0.67   0.00   0.00   0.00   0.00   0.00   0.00   0.00      0      0      0       0       9
 1990 252    61    58    8.0      1   0.10    123     14      0    121    137      0    0.0  0.000      0      0  0.000  0.000  0.000  0.000   3.53   0.00   0.00      0      0     83.7   0.00   0.00   0.33   0.43   1.03   0.69   0.00   0.00   0.00   0.00   0.00   0.00   0.00      0      0      0       0       9
 1990 253    62    59    8.0      1   0.14    142     14      0    123    156      0    0.0  0.000      0      0  0.000  0.000  0.000  0.010   3.51   0.00   0.00      0      0     97.9   0.00   0.00   0.35   0.44   1.05   0.71   0.00   0.00   0.00   0.00   0.00   0.00   0.00      0      0      0       0      10
 1990 254    63    60    8.0      1   0.17    157     14      0    126    171      0    0.0  0.000      0      0  0.000  0.000  0.000  0.243   3.62   0.00   0.00      0      0    106.5   0.00   0.00   0.36   0.43   1.03   0.71   0.01   0.00   0.00   0.00   0.00   0.00   0.00      0      0      0       0      11
 1990 255    64    61    8.0      1   0.20    175     14      0    128    189      0    0.0  0.000      0      0  0.000  0.000  0.000  0.166   3.60   0.00   0.00      0      0    113.2   0.00   0.00   0.36   0.42   1.03   0.72   0.01   0.00   0.00   0.00   0.00   0.00   0.00      0      0      0       0      11
 1990 256    65    62    8.0      1   0.20    188     14      0    130    202      0    0.0  0.000      0      0  0.000  0.000  0.000  0.101   3.71   0.00   0.00      0      0    105.0   0.00   0.00   0.36   0.42   1.04   0.73   0.01   0.00   0.00   0.00   0.00   0.00   0.00      0      0      0       0      12
 1990 257    66    63    8.0      1   0.16    209     14      0    133    223      0    0.0  0.000      0      0  0.000  0.000  0.000  0.034   3.60   0.00   0.00      0      0     78.0   0.00   0.00   0.37   0.42   1.06   0.75   0.01   0.00   0.00   0.00   0.00   0.00   0.00      0      0      0       0      12
 1990 258    67    64    8.0      1   0.17    238     14      0    141    252      0    0.0  0.000      0      0  0.000  0.000  0.000  0.000   3.49   0.00   0.00      0      0     70.8   0.00   0.00   0.37   0.44   1.10   0.81   0.03   0.00   0.00   0.00   0.00   0.00   0.00      0      0      0       0      13
 1990 259    68    65    9.0      1   0.20    260     14      0    153    274      0    0.0  0.000      0      0  0.000  0.000  0.000  0.000   3.62   0.00   0.00      0      0     78.0   0.00   0.00   0.38   0.46   1.17   0.89   0.05   0.00   0.00   0.00   0.00   0.00   0.00      0      0      0       0      14
 1990 260    69    66    9.0      1   0.23    279     14      0    159    293      0    0.0  0.000      0      0  0.000  0.000  0.000  0.000   3.67   0.00   0.00      0      0     83.2   0.00   0.00   0.39   0.48   1.20   0.93   0.05   0.00   0.00   0.00   0.00   0.00   0.00      0      0      0       0      15
 1990 261    70    67    9.0      1   0.26    300     14      0    163    314      0    0.0  0.000      0      0  0.000  0.000  0.000  0.000   3.65   0.00   0.00      0      0     87.9   0.00   0.00   0.40   0.45   1.16   0.91   0.06   0.00   0.00   0.00   0.00   0.00   0.00      0      0      0       0      15
 1990 262    71    68    9.0      2   0.30    298     14      0    189    312      0    0.0  0.000      0      0  0.000  0.000  0.000  0.000   3.92   0.00   0.00      0      0    100.5   0.00   0.00   0.41   0.47   1.26   1.06   0.11   0.00   0.00   0.00   0.00   0.00   0.00      0      0      0       0      16
 1990 263    72    69    9.0      2   0.33    318     14      0    192    332      0    0.0  0.000      0      0  0.000  0.000  0.000  0.129   3.68   0.00   0.00      0      0    104.2   0.00   0.00   0.42   0.46   1.25   1.07   0.12   0.00   0.00   0.00   0.00   0.00   0.00      0      0      0       0      16
 1990 264    73    70   10.0      2   0.37    340     14      0    196    354      0    0.0  0.000      0      0  0.000  0.000  0.000  0.064   3.58   0.00   0.00      0      0    107.7   0.00   0.00   0.43   0.46   1.26   1.08   0.12   0.00   0.00   0.00   0.00   0.00   0.00      0      0      0       0      17
 1990 265    74    71   10.0      2   0.41    368     14      0    234    382      0    0.0  0.000      0      0  0.000  0.000  0.000  0.001   3.79   0.00   0.00      0      0    111.4   0.00   0.00   0.44   0.52   1.45   1.34   0.22   0.00   0.00   0.00   0.00   0.00   0.00      0      0      0       0      18
 1990 266    75    72   10.0      3   0.42    376     14      0    259    390      0    0.0  0.000      0      0  0.000  0.000  0.022  0.000   3.75   0.00   0.00      0      0    110.5   0.00   0.00   0.44   0.56   1.57   1.51   0.29   0.00   0.00   0.00   0.00   0.00   0.00      0      0      0       0      19
 1990 267    76    73   10.0      3   0.40    386     14      0    292    400      0    0.0  0.000      0      0  0.000  0.000  0.022  0.000   3.66   0.00   0.00      0      0    102.8   0.00   0.00   0.45   0.62   1.73   1.73   0.38   0.00   0.00   0.00   0.00   0.00   0.00      0      0      0       0      21
 1990 268    77    74   10.0      3   0.38    399     14      0    331    413      0    0.0  0.000      0      0  0.000  0.000  0.022  0.000   3.64   0.00   0.00      0      0     95.6   0.00   0.00   0.45   0.69   1.91   1.98   0.48   0.00   0.00   0.00   0.00   0.00   0.00      0      0      0       0      22
 1990 269    78    75   10.0      3   0.42    427     14      0    383    441      0    0.0  0.000      0      0  0.000  0.000  0.022  0.000   3.56   0.00   0.00      0      0     98.3   0.00   0.00   0.46   0.79   2.14   2.31   0.62   0.00   0.00   0.00   0.00   0.00   0.00      0      0      0       0      24
 1990 270    79    76   10.0      3   0.49    473     14      0    424    487      0    0.0  0.000      0      0  0.000  0.000  0.022  0.000   3.53   0.00   0.00      0      0    102.8   0.00   0.00   0.47   0.88   2.32   2.56   0.73   0.02   0.00   0.00   0.00   0.00   0.00      0      0      0       0      26
 1990 271    80    77   11.0      3   0.55    515     15      0    424    530      0    0.0  0.000      0      0  0.000  0.000  0.022  0.000   3.50   0.00   0.00      0      0    105.9   0.00   0.00   0.48   0.87   2.31   2.55   0.72   0.02   0.00   0.00   0.00   0.00   0.00      0      0      0       0      28
 1990 272    81    78   11.0      3   0.61    561     16      0    473    577      0    0.0  0.000      0      0  0.000  0.000  0.022  0.000   3.48   0.00   0.00      0      0    108.6   0.00   0.00   0.49   0.98   2.51   2.84   0.85   0.04   0.00   0.00   0.00   0.00   0.00      0      0      0       0      30
 1990 273    82    79   11.0      3   0.68    611     17      0    526    629      0    0.0  0.000      0      0  0.000  0.000  0.022  0.000   3.45   0.00   0.00      0      0    110.8   0.00   0.00   0.50   1.10   2.74   3.16   0.98   0.08   0.00   0.00   0.00   0.00   0.00      0      0      0       0      32
 1990 274    83    80   11.0      3   0.78    686     21      0    582    707      0    0.0  0.000      0      0  0.000  0.000  0.022  0.000   3.41   0.00   0.00      0      0    113.4   0.00   0.00   0.52   1.23   2.97   3.50   1.12   0.14   0.00   0.00   0.00   0.00   0.00      0      0      0       0      35
 1990 275    84    81   12.0      3   0.88    760     26      0    661    786      0    0.0  0.000      0      0  0.000  0.000  0.022  0.000   3.38   0.00   0.00      0      0    115.1   0.00   0.00   0.53   1.40   3.30   3.96   1.32   0.22   0.00   0.00   0.00   0.00   0.00      0      0      0       0      38
 1990 276    85    82   12.0      3   0.99    852     34      0    727    885      0    0.0  0.000      0      0  0.000  0.000  0.022  0.000   3.34   0.00   0.00      0      0    116.5   0.00   0.00   0.55   1.55   3.56   4.00   1.48   0.31   0.00   0.00   0.00   0.00   0.00      0      0      0       0      41
 1990 277    86    83   12.0      3   1.15    975     49      0    759   1024      0    0.0  0.000      0      0  0.000  0.000  0.022  0.000   3.29   0.00   0.00      0      0    117.6   0.00   0.00   0.57   1.62   3.69   4.00   1.57   0.36   0.00   0.00   0.00   0.00   0.00      0      0      0       0      45
 1990 278    87    84   13.0      3   1.23   1047     59      0    760   1106      0    0.0  0.000      0      0  0.000  0.000  0.022  0.000   3.26   0.00   0.00      0      0    117.8   0.00   0.00   0.58   1.62   3.68   4.00   1.57   0.37   0.00   0.00   0.00   0.00   0.00      0      0      0       0      49
 1990 279    88    85   13.0      3   1.35   1143     77      0    763   1219      0    0.0  0.000      0      0  0.000  0.000  0.022  0.000   3.22   0.00   0.00      0      0    117.9   0.00   0.00   0.59   1.62   3.69   4.00   1.58   0.38   0.00   0.00   0.00   0.00   0.00      0      0      0       0      52
 1990 280    89    86   13.0      3   1.43   1217     93      0    764   1311      0    0.0  0.000      0      0  0.000  0.000  0.022  0.000   3.19   0.00   0.00      0      0    117.8   0.00   0.00   0.61   1.61   3.69   4.00   1.58   0.38   0.00   0.00   0.00   0.00   0.00      0      0      0       0      56
 1990 281    90    87   13.0      3   1.51   1287    111      0    800   1397      0    0.0  0.000      0      0  0.000  0.000  0.022  0.133   3.16   0.00   0.00      0      0    117.6   0.00   0.00   0.62   1.52   3.57   3.97   1.59   0.45   0.00   0.00   0.00   0.00   0.00      0      0      0       0      60
 1990 282    91    88   14.0      3   1.59   1353    129      0    929   1483      0    0.0  0.000      0      0  0.000  0.000  0.022  0.055   3.14   0.00   0.00      0      0    117.3   0.00   0.00   0.63   1.46   3.77   4.00   1.88   0.74   0.02   0.00   0.00   0.00   0.00      0      0      0       0      64
 1990 283    92    89   14.0      3   1.67   1429    152      0   1035   1581      0    0.0  0.000      0      0  0.000  0.000  0.022  0.021   3.11   0.00   0.00      0      0    117.0   0.00   0.00   0.64   1.43   3.94   4.00   2.13   0.99   0.03   0.00   0.00   0.00   0.00      0      0      0       0      69
 1990 284    93    90   14.0      3   1.77   1518    184      0   1041   1701      0    0.0  0.000      0      0  0.000  0.000  0.022  0.011   3.08   0.00   0.00      0      0    116.7   0.00   0.00   0.65   1.40   3.88   3.97   2.12   1.00   0.03   0.00   0.00   0.00   0.00      0      0      0       0      74
 1990 285    94    91   14.0      3   1.84   1582    208      0   1196   1790      0    0.0  0.000      0      0  0.000  0.000  0.022  0.059   3.06   0.00   0.00      0      0    116.3   0.00   0.00   0.66   1.32   3.88   4.00   2.43   1.37   0.08   0.00   0.00   0.00   0.00      0      0      0       0      79
 1990 286    95    92   14.0      3   1.90   1640    232      0   1362   1872      0    0.0  0.000      0      0  0.000  0.000  0.022  0.045   3.04   0.00   0.00      0      0    115.9   0.00   0.00   0.66   1.28   3.96   4.00   2.85   1.82   0.15   0.00   0.00   0.00   0.00      0      0      0       0      85
 1990 287    96    93   15.0      3   1.99   1720    269      0   1502   1989      0    0.0  0.000      0      0  0.000  0.000  0.022  0.028   3.02   0.00   0.00      0      0    115.4   0.00   0.00   0.67   1.26   4.00   4.00   3.23   2.22   0.22   0.00   0.00   0.00   0.00      0      0      0       0      92
 1990 288    97    94   15.0      3   2.05   1778    297      0   1665   2075      0    0.0  0.000      0      0  0.000  0.000  0.022  0.009   3.00   0.00   0.00      0      0    115.0   0.00   0.00   0.68   1.26   4.00   4.00   3.74   2.74   0.32   0.00   0.00   0.00   0.00      0      0      0       0      99
 1990 289    98    95   15.0      3   2.08   1826    321      0   1845   2148      0    0.0  0.000      0      0  0.000  0.000  0.022  0.005   2.98   0.00   0.00      0      0    113.8   0.00   0.00   0.69   1.27   4.00   4.00   4.00   3.37   0.45   0.00   0.00   0.00   0.00      0      0      0       0     108
 1990 290    99    96   15.0      3   2.14   1891    357      0   1916   2248      0    0.0  0.000      0      0  0.000  0.000  0.022  0.006   2.97   0.00   0.00      0      0    113.4   0.00   0.00   0.70   1.26   4.00   4.00   4.00   3.61   0.51   0.00   0.00   0.00   0.00      0      0      0       0     117
 1990 291   100    97   15.0      3   2.25   1995    420      0   2035   2414      0    0.0  0.000      0      0  0.000  0.000  0.022  0.006   2.94   0.00   0.00      0      0    112.9   0.00   0.00   0.71   1.26   4.00   4.00   4.00   4.00   0.62   0.00   0.00   0.00   0.00      0      0      0       0     126
 1990 292   101    98   16.0      3   2.36   2102    492      0   2086   2594      0    0.0  0.000      0      0  0.000  0.000  0.022  0.006   2.90   0.00   0.00      0      0    112.4   0.00   0.00   0.72   1.26   3.98   4.00   4.00   4.00   0.68   0.00   0.00   0.00   0.00      0      0      0       0     137
 1990 293   102    99   16.0      3   2.47   2212    573      0   2127   2784      0    0.0  0.000      0      0  0.000  0.000  0.022  0.004   2.87   0.00   0.00      0      0    111.8   0.00   0.00   0.74   1.26   3.95   4.00   4.00   4.00   0.75   0.00   0.00   0.00   0.00      0      0      0       0     147
 1990 294   103   100   16.0      3   2.58   2316    657      0   2223   2973      0    0.0  0.000      0      0  0.000  0.000  0.022  0.002   2.84   0.00   0.00      0      0    111.3   0.00   0.00   0.75   1.28   3.95   4.00   4.00   4.00   0.92   0.00   0.00   0.00   0.00      0      0      0       0     158
 1990 295   104   101   17.0      3   2.68   2420    748      0   2362   3169      0    0.0  0.000      0      0  0.000  0.000  0.022  0.000   2.78   0.00   0.00      0      0    110.7   0.00   0.00   0.76   1.33   3.99   4.00   4.00   4.00   1.19   0.00   0.00   0.00   0.00      0      0      0       0     169
 1990 296   105   102   17.0      3   2.79   2529    852      0   2439   3381      0    0.0  0.000      0      0  0.000  0.000  0.022  0.000   2.71   0.00   0.00      0      0    110.2   0.00   0.00   0.77   1.37   4.00   4.00   4.00   4.00   1.37   0.00   0.00   0.00   0.00      0      0      0       0     181
 1990 297   106   103   17.0      3   2.88   2626    951      0   2523   3577      0    0.0  0.000      0      0  0.000  0.000  0.022  0.000   2.64   0.00   0.00      0      0    109.7   0.00   0.00   0.78   1.42   4.00   4.00   4.00   4.00   1.57   0.00   0.00   0.00   0.00      0      0      0       0     193
 1990 298   107   104   17.0      3   3.02   2774   1044      0   2523   3819      0    0.0  0.000      0      0  0.000  0.000  0.022  0.000   2.55   0.00   0.00      0      0    109.0   0.00   0.00   0.80   1.42   3.99   3.99   4.00   4.00   1.60   0.00   0.00   0.00   0.00      0      0      0       0     205
 1990 299   108   105   18.0      3   3.21   2965   1261      0   2546   4226      0    0.0  0.000      0      0  0.000  0.000  0.022  0.000   2.36   0.00   0.00      0      0    108.2   0.00   0.00   0.81   1.45   4.00   4.00   4.00   4.00   1.68   0.00   0.00   0.00   0.00      0      0      0       0     218
 1990 300   109   106   18.0      3   3.34   3101   1463      0   2552   4564      0    0.0  0.000      0      0  0.000  0.000  0.024  0.000   2.22   0.00   0.00      0      0    107.6   0.00   0.00   0.83   1.47   4.00   4.00   4.00   4.00   1.72   0.00   0.00   0.00   0.00      0      0      0       0     231
 1990 301   110   107   18.0      3   3.38   3156   1560      0   2547   4715      0    0.0  0.000      0      0  0.000  0.000  0.032  0.000   2.19   0.00   0.00      0      0    107.0   0.00   0.00   0.84   1.48   4.00   4.00   3.99   4.00   1.74   0.00   0.00   0.00   0.00      0      0      0       0     244
 1990 302   111   108   19.0      3   3.43   3225   1699      0   2546   4924      0    0.0  0.000      0      0  0.000  0.000  0.038  0.000   2.12   0.00   0.00      0      0    106.3   0.00   0.00   0.86   1.50   4.00   4.00   3.98   3.99   1.76   0.00   0.00   0.00   0.00      0      0      0       0     256
 1990 303   112   109   19.0      3   3.52   3330   1931      0   2617   5261      0    0.0  0.000      0      0  0.000  0.000  0.039  0.000   2.01   0.00   0.00      0      0    105.6   0.00   0.00   0.88   1.76   4.00   4.00   4.00   4.00   1.92   0.00   0.00   0.00   0.00      0      0      0       0     269
 1990 304   113   110   20.0      3   3.57   3403   2103      0   2735   5506      0    0.0  0.000      0      0  0.000  0.000  0.042  0.000   1.94   0.00   0.00      0      0    104.9   0.00   0.00   0.89   2.25   4.00   4.00   4.00   4.00   2.06   0.00   0.00   0.00   0.00      0      0      0       0     282
 1990 305   114   111   20.0      3   3.62   3475   2285      0   2814   5761      0    0.0  0.000      0      0  0.000  0.000  0.049  0.000   1.87   0.00   0.00      0      0    104.1   0.00   0.00   0.90   2.59   4.00   4.00   4.00   4.00   2.16   0.00   0.00   0.00   0.00      0      0      0       0     296
 1990 306   115   112   20.0      3   3.66   3544   2469      0   2864   6013      0    0.0  0.000      0      0  0.000  0.000  0.054  0.000   1.80   0.00   0.00      0      0    103.3   0.00   0.00   0.92   2.77   4.00   4.00   4.00   4.00   2.21   0.13   0.00   0.00   0.00      0      0      0       0     310
 1990 307   116   113   21.0      3   3.68   3597   2617      0   2861   6213      0    0.0  0.000      0      0  0.000  0.000  0.058  0.000   1.77   0.00   0.00      0      0    102.4   0.00   0.00   0.93   2.79   4.00   4.00   3.99   3.99   2.21   0.17   0.00   0.00   0.00      0      0      0       0     324
 1990 308   117   114   21.0      3   3.70   3638   2737      0   2964   6375      0    0.0  0.000      0      0  0.000  0.000  0.062  0.000   1.74   0.00   0.00      0      0    101.6   0.00   0.00   0.94   3.06   4.00   4.00   4.00   4.00   2.30   0.60   0.00   0.00   0.00      0      0      0       0     338
 1990 309   118   115   21.0      3   3.69   3661   2806      0   3174   6467      0    0.0  0.000      0      0  0.000  0.000  0.066  0.000   1.73   0.00   0.00      0      0    100.7   0.00   0.00   0.95   3.61   4.00   4.00   4.00   4.00   2.46   1.43   0.00   0.00   0.00      0      0      0       0     353
 1990 310   119   116   21.0      3   3.69   3696   2911      0   3251   6606      0    0.0  0.000      0      0  0.000  0.000  0.068  0.004   1.71   0.00   0.00      0      0     99.8   0.00   0.00   0.95   3.82   4.00   4.00   4.00   4.00   2.52   1.77   0.00   0.00   0.00      0      0      0       0     369
 1990 311   120   117   21.0      3   3.71   3745   3057      0   3356   6802      0    0.0  0.000      0      0  0.000  0.000  0.067  0.000   1.68   0.00   0.00      0      0     99.0   0.00   0.00   0.96   4.00   4.00   4.00   4.00   4.00   2.61   2.21   0.00   0.00   0.00      0      0      0       0     385
 1990 312   121   118   21.0      3   3.71   3777   3152      0   3354   6929      0    0.0  0.000      0      0  0.000  0.000  0.068  0.000   1.66   0.00   0.00      0      0     98.1   0.00   0.00   0.97   4.00   4.00   4.00   4.00   3.99   2.60   2.26   0.00   0.00   0.00      0      0      0       0     402
 1990 313   122   119   21.0      3   3.72   3827   3300      0   3390   7127      0    0.0  0.000      0      0  0.000  0.000  0.071  0.000   1.63   0.00   0.00      0      0     97.2   0.00   0.00   0.98   4.00   4.00   4.00   4.00   4.00   2.63   2.43   0.00   0.00   0.00      0      0      0       0     419
 1990 314   123   120   21.0      3   3.74   3880   3454      0   3467   7335      0    0.0  0.000      0      0  0.000  0.000  0.071  0.000   1.59   0.00   0.00      0      0     96.3   0.00   0.00   0.99   4.00   4.00   4.00   4.00   4.00   2.70   2.73   0.00   0.00   0.00      0      0      0       0     436
 1990 315   124   121   21.0      3   3.76   3942   3634      0   3549   7576      0    0.0  0.000      0      0  0.000  0.000  0.073  0.000   1.55   0.00   0.00      0      0     95.4   0.00   0.00   1.00   4.00   4.00   4.00   4.00   4.00   2.77   3.02   0.00   0.00   0.00      0      0      0       0     453
 1990 316   125   122   21.0      3   3.78   3994   3786      0   3543   7780      0    0.0  0.000      0      0  0.000  0.000  0.076  0.000   1.52   0.00   0.00      0      0     94.5   0.00   0.00   1.01   4.00   4.00   4.00   3.99   3.99   2.76   3.04   0.00   0.00   0.00      0      0      0       0     471
 1990 317   126   123   21.0      4   3.74   3953   3246      0   3612   8061      0    0.0  0.000    863      0  0.000  0.000  0.079  0.000   1.66   0.00   0.11      0    863     94.6   0.00   0.00   1.03   4.00   4.00   4.00   4.00   4.00   2.83   3.24   0.00   0.00   0.00      0      0      0       0     489
 1990 318   127   124   21.0      4   3.70   3908   3324      0   3606   8288      0    0.0  0.000   1057      0  0.000  0.000  0.078  0.000   1.66   0.00   0.13      0   1057     94.7   0.00   0.00   1.05   4.00   4.00   4.00   3.99   3.99   2.83   3.25   0.00   0.00   0.00      0      0      0       0     507
 1990 319   128   125   21.0      4   3.68   3861   3367      0   3595   8391      0    0.0  0.000   1164      0  0.000  0.000  0.056  0.000   1.67   0.00   0.14      0   1164     95.2   0.00   0.00   1.06   4.00   4.00   4.00   3.98   3.98   2.82   3.24   0.00   0.00   0.00      0      0      0       0     525
 1990 320   129   126   21.0      4   3.65   3812   3415      0   3659   8513      0    0.0  0.000   1286      0  0.000  0.000  0.054  0.000   1.68   0.00   0.15      0   1286     95.8   0.00   0.00   1.07   4.00   4.00   4.00   4.00   4.00   2.89   3.30   0.00   0.00   0.00      0      0      0       0     543
 1990 321   130   127   21.0      4   3.63   3761   3467      0   3823   8645      0    0.0  0.000   1416      0  0.000  0.000  0.051  0.000   1.69   0.00   0.16      0   1416     96.5   0.00   0.00   1.08   4.00   4.00   4.00   4.00   4.00   3.08   3.43   0.00   0.00   0.00      0      0      0       0     561
 1990 322   131   128   21.0      4   3.61   3707   3550      0   3926   8878      0    0.0  0.000   1622      0  0.000  0.000  0.047  0.007   1.69   0.00   0.18      0   1622     97.3   0.00   0.00   1.09   4.00   4.00   4.00   4.00   4.00   3.20   3.50   0.05   0.00   0.00      0      0      0       0     580
 1990 323   132   129   21.0      4   3.59   3649   3657      0   3978   9198      0    0.0  0.000   1891      0  0.000  0.000  0.042  0.000   1.69   0.00   0.21      0   1891     98.3   0.00   0.00   1.10   4.00   4.00   4.00   4.00   4.00   3.25   3.54   0.12   0.00   0.00      0      0      0       0     600
 1990 324   133   130   21.0      4   3.57   3588   3719      0   3967   9353      0    0.0  0.000   2046      0  0.000  0.000  0.039  0.000   1.70   0.00   0.22      0   2046     99.5   0.00   0.00   1.12   4.00   4.00   4.00   3.99   3.99   3.25   3.53   0.14   0.00   0.00      0      0      0       0     620
 1990 325   134   131   21.0      4   3.55   3524   3807      0   4089   9598      0    0.0  0.000   2266      0  0.000  0.000  0.036  0.000   1.70   0.00   0.24      0   2266    100.8   0.00   0.00   1.13   4.00   4.00   4.00   4.00   4.00   3.37   3.61   0.37   0.00   0.00      0      0      0       0     639
 1990 326   135   132   21.0      4   3.54   3457   3885      0   4206   9801      0    0.0  0.000   2459      0  0.000  0.000  0.033  0.000   1.70   0.00   0.25      0   2459    102.4   0.00   0.00   1.14   4.00   4.00   4.00   4.00   4.00   3.48   3.68   0.61   0.00   0.00      0      0      0       0     660
 1990 327   136   133   21.0      4   3.52   3387   3960      0   4342   9994      0    0.0  0.000   2647      0  0.000  0.000  0.031  0.000   1.71   0.00   0.26      0   2647    104.1   0.00   0.00   1.14   4.00   4.00   4.00   4.00   4.00   3.61   3.77   0.91   0.00   0.00      0      0      0       0     681
 1990 328   137   134   21.0      4   3.51   3315   4044      0   4422  10217      0    0.0  0.000   2858      0  0.000  0.000  0.028  0.000   1.71   0.00   0.28      0   2858    106.0   0.00   0.00   1.15   4.00   4.00   4.00   4.00   4.00   3.68   3.82   1.10   0.00   0.00      0      0      0       0     703
 1990 329   138   135   21.0      5   3.50   3315   4044    278   4429  10495   3710    7.5  0.027   3136      7  0.000  0.000  0.018  0.000   1.66   8.87   0.30      0   3136    105.7   0.00   0.00   1.17   4.00   4.00   4.00   4.00   4.00   3.69   3.82   1.15   0.00   0.00      0      0      0       0     725
 1990 330   139   136   21.0      5   3.49   3315   4044    508   4459  10725   3710   13.7  0.047   3366      7  0.000  0.000  0.034  0.000   1.62  15.09   0.31      0   3366    105.3   0.00   0.00   1.17   4.00   4.00   4.00   4.00   4.00   3.72   3.83   1.25   0.00   0.00      0      0      0       0     747
 1990 331   140   137   21.0      5   3.47   3315   4044    630   4552  10847   3710   17.0  0.058   3488      7  0.000  0.000  0.043  0.000   1.60  18.06   0.32      0   3488    104.7   0.00   0.00   1.18   4.00   4.00   4.00   4.00   4.00   3.81   3.89   1.45   0.00   0.00      0      0      0       0     769
 1990 332   141   138   21.0      5   3.45   3315   4044    779   4639  10996   3710   21.0  0.071   3637      7  0.000  0.000  0.044  0.000   1.57  21.43   0.33      0   3637    104.1   0.00   0.00   1.19   4.00   4.00   4.00   4.00   4.00   3.89   3.95   1.62   0.00   0.00      0      0      0       0     792
 1990 333   142   139   21.0      5   3.43   3315   4044    993   4710  11210   3710   26.8  0.089   3851      7  0.000  0.000  0.045  0.000   1.54  25.79   0.34      0   3851    103.5   0.00   0.00   1.19   4.00   4.00   4.00   4.00   4.00   3.96   3.99   1.76   0.00   0.00      0      0      0       0     815
 1990 334   143   140   21.0      5   3.41   3315   4044   1234   4697  11451   3710   33.3  0.108   4092      7  0.000  0.000  0.050  0.000   1.49  30.16   0.36      0   4092    102.9   0.00   0.00   1.20   4.00   4.00   4.00   3.99   3.99   3.95   3.98   1.77   0.00   0.00      0      0      0       0     839
 1990 335   144   141   21.0      5   3.39   3315   4044   1468   4724  11685   3710   39.6  0.126   4326      7  0.000  0.000  0.057  0.000   1.45  33.94   0.37      0   4326    102.2   0.00   0.00   1.21   4.00   4.00   4.00   4.00   4.00   3.98   3.99   1.82   0.00   0.00      0      0      0       0     862
 1990 336   145   142   21.0      5   3.36   3315   4017   1663   4701  11852   3710   44.8  0.140   4521      7  0.000  0.000  0.065  0.000   1.42  36.78   0.38      0   4521    101.3   0.00   0.00   1.21   4.00   4.00   4.00   4.00   4.00   3.98   3.99   1.82   0.00   0.00      0      0      0       0     886
 1990 337   146   143   21.0      5   3.33   3315   4044   1820   4777  12037   3710   49.1  0.151   4678      7  0.000  0.000  0.071  0.000   1.39  38.91   0.39      0   4678    100.4   0.00   0.00   1.22   4.00   4.00   4.00   4.00   4.00   4.00   4.00   1.89   0.00   0.00      0      0      0       0     909
 1990 338   147   144   21.0      5   3.30   3315   4044   2025   4833  12242   3710   54.6  0.165   4883      7  0.000  0.000  0.072  0.000   1.36  41.47   0.40      0   4883     99.5   0.00   0.00   1.23   4.00   4.00   4.00   4.00   4.00   4.00   4.00   1.92   0.00   0.00      0      0      0       0     933
 1990 339   148   145   21.0      5   3.27   3315   4044   2303   4816  12520   3710   62.1  0.184   5161      7  0.000  0.000  0.076  0.000   1.31  44.63   0.41      0   5161     98.6   0.00   0.00   1.24   4.00   4.00   4.00   3.99   3.99   3.99   3.98   1.91   0.00   0.00      0      0      0       0     957
 1990 340   149   146   21.0      5   3.23   3315   4044   2560   4804  12777   3710   69.0  0.200   5418      7  0.000  0.000  0.087  0.000   1.27  47.25   0.42      0   5418     97.5   0.00   0.00   1.25   4.00   4.00   4.00   3.99   3.98   3.98   3.97   1.91   0.00   0.00      0      0      0       0     981
 1990 341   150   147   21.0      5   3.19   3315   4044   2795   4841  13012   3710   75.3  0.215   5653      7  0.000  0.000  0.096  0.000   1.23  49.45   0.43      0   5653     96.3   0.00   0.00   1.25   4.00   4.00   4.00   4.00   4.00   4.00   4.00   1.92   0.00   0.00      0      0      0       0    1005
 1990 342   151   148   21.0      5   3.15   3315   4044   2983   4903  13200   3710   80.4  0.226   5841      7  0.000  0.000  0.106  0.063   1.20  51.07   0.44      0   5841     95.1   0.00   0.00   1.25   4.00   4.00   4.00   4.00   4.00   4.00   4.00   1.95   0.00   0.00      0      0      0       0    1030
 1990 343   152   149   21.0      5   3.11   3315   4044   3136   4879  13352   3710   84.5  0.235   5993      7  0.000  0.000  0.112  0.085   1.18  52.32   0.45      0   5993     93.7   0.00   0.00   1.25   3.98   3.98   3.98   3.98   3.98   3.98   3.98   1.93   0.00   0.00      0      0      0       0    1054
 1990 344   153   150   21.0      5   3.06   3315   4032   3305   4855  13510   3710   89.1  0.245   6163      7  0.000  0.000  0.116  0.433   1.15  53.63   0.46      0   6163     92.4   0.00   0.00   1.25   3.98   3.98   3.98   3.98   3.98   3.98   3.98   1.93   0.00   0.00      0      0      0       0    1079
 1990 345   154   151   21.0      5   3.02   3315   4044   3524   4882  13740   3710   95.0  0.256   6381      7  0.000  0.000  0.121  0.234   1.11  55.22   0.46      0   6381     91.0   0.00   0.00   1.25   4.00   4.00   4.00   3.98   3.97   3.96   3.94   1.92   0.00   0.00      0      0      0       0    1103
 1990 346   155   152   21.0      5   2.97   3315   4044   3660   4885  13877   3710   98.7  0.264   6518      7  0.000  0.000  0.130  0.127   1.10  56.16   0.47      0   6518     89.5   0.00   0.00   1.25   4.00   4.00   4.00   4.00   3.99   3.97   3.94   1.92   0.00   0.00      0      0      0       0    1127
 1990 347   156   153   21.0      5   2.92   3315   4044   3863   4890  14080   3710  104.1  0.274   6721      7  0.000  0.000  0.133  0.046   1.07  57.48   0.48      0   6721     88.0   0.00   0.00   1.25   4.00   4.00   4.00   4.00   4.00   3.98   3.95   1.92   0.00   0.00      0      0      0       0    1152
 1990 348   157   154   21.0      5   2.87   3315   4044   3996   4953  14213   3710  107.7  0.281   6854      7  0.000  0.000  0.142  0.003   1.05  58.31   0.48      0   6854     86.4   0.00   0.00   1.25   4.00   4.00   4.00   4.00   4.00   4.00   3.99   1.95   0.00   0.00      0      0      0       0    1176
 1990 349   158   155   21.0      5   2.81   3315   4044   4198   5009  14415   3710  113.1  0.291   7056      7  0.000  0.000  0.144  0.000   1.02  59.50   0.49      0   7056     84.9   0.00   0.00   1.25   4.00   4.00   4.00   4.00   4.00   4.00   4.00   1.97   0.00   0.00      0      0      0       0    1201
 1990 350   159   156   21.0      5   2.76   3315   4044   4464   5034  14680   3710  120.3  0.304   7321      7  0.000  0.000  0.149  0.000   0.99  60.97   0.50      0   7321     83.3   0.00   0.00   1.25   4.00   4.00   4.00   4.00   4.00   4.00   4.00   1.98   0.00   0.00      0      0      0       0    1226
 1990 351   160   157   21.0      5   2.71   3315   3997   4742   5009  14911   3710  127.8  0.318   7600      7  0.000  0.000  0.158  0.000   0.96  62.40   0.51      0   7600     81.7   0.00   0.00   1.25   4.00   4.00   4.00   4.00   4.00   4.00   4.00   1.98   0.00   0.00      0      0      0       0    1251
 1990 352   161   158   21.0      5   2.65   3315   4044   4996   5028  15213   3710  134.7  0.328   7854      7  0.000  0.000  0.170  0.000   0.92  63.61   0.52      0   7854     79.9   0.00   0.00   1.25   4.00   4.00   4.00   4.00   4.00   4.00   4.00   1.99   0.00   0.00      0      0      0       0    1276
 1990 353   162   159   21.0      5   2.59   3315   4044   5218   5069  15435   3710  140.6  0.338   8076      7  0.000  0.000  0.177  0.000   0.89  64.61   0.52      0   8076     78.2   0.00   0.00   1.25   4.00   4.00   4.00   4.00   4.00   4.00   4.00   2.00   0.00   0.00      0      0      0       0    1301
 1990 354   163   160   21.0      5   2.53   3315   4044   5452   5106  15669   3710  147.0  0.348   8310      7  0.000  0.000  0.189  0.020   0.86  65.61   0.53      0   8310     76.3   0.00   0.00   1.25   4.00   4.00   4.00   4.00   4.00   4.00   4.00   2.02   0.00   0.00      0      0      0       0    1327
 1990 355   164   161   21.0      5   2.47   3315   4044   5730   5106  15947   3710  154.5  0.359   8588      7  0.000  0.000  0.196  0.000   0.83  66.72   0.54      0   8588     74.4   0.00   0.00   1.25   4.00   4.00   4.00   4.00   4.00   4.00   4.00   2.02   0.00   0.00      0      0      0       0    1352
 1990 356   165   162   21.0      5   2.40   3315   3913   6005   5081  16092   3710  161.9  0.373   8863      7  0.000  0.000  0.220  0.000   0.81  67.76   0.55      0   8863     72.5   0.00   0.00   1.25   4.00   4.00   4.00   4.00   4.00   4.00   4.00   2.02   0.00   0.00      0      0      0       0    1378
 1990 357   166   163   21.0      5   2.34   3315   3903   6284   5056  16359   3710  169.4  0.384   9141      7  0.000  0.000  0.253  0.000   0.78  68.74   0.56      0   9141     70.5   0.00   0.00   1.25   4.00   4.00   4.00   4.00   4.00   4.00   4.00   2.02   0.00   0.00      0      0      0       0    1403
 1990 358   167   164   21.0      5   2.27   3315   3856   6504   5030  16533   3710  175.3  0.393   9362      7  0.000  0.000  0.270  0.336   0.76  69.47   0.57      0   9362     68.6   0.00   0.00   1.25   4.00   4.00   4.00   4.00   4.00   4.00   4.00   2.02   0.00   0.00      0      0      0       0    1428
 1990 359   168   165   21.0      5   2.21   3315   3941   6708   5048  16822   3710  180.8  0.399   9566      7  0.000  0.000  0.295  0.153   0.73  70.12   0.57      0   9566     66.6   0.00   0.00   1.25   4.00   4.00   4.00   4.00   4.00   4.00   4.00   2.02   0.00   0.00      0      0      0       0    1454
 1990 360   169   166   21.0      5   2.14   3315   3997   6986   5050  17156   3710  188.3  0.407   9844      7  0.000  0.000  0.307  0.044   0.70  70.97   0.57      0   9844     64.6   0.00   0.00   1.25   4.00   4.00   4.00   4.00   4.00   4.00   4.00   2.02   0.00   0.00      0      0      0       0    1479
 1990 361   170   167   21.0      5   2.08   3315   4038   7264   5045  17475   3710  195.8  0.416  10122      7  0.000  0.000  0.352  0.004   0.68  71.77   0.58      0  10122     62.6   0.00   0.00   1.25   4.00   4.00   4.00   4.00   4.00   4.00   3.99   2.02   0.00   0.00      0      0      0       0    1504
 1990 362   171   168   21.0      5   2.01   3315   4044   7422   5064  17638   3710  200.0  0.421  10279      7  0.000  0.000  0.396  0.000   0.67  72.20   0.58      0  10279     60.5   0.00   0.00   1.25   4.00   4.00   4.00   4.00   4.00   4.00   4.00   2.03   0.00   0.00      0      0      0       0    1529
 1990 363   172   169   21.0      5   1.94   3315   4044   7561   5079  17778   3710  203.8  0.425  10418      7  0.000  0.000  0.409  0.000   0.66  72.57   0.59      0  10418     58.5   0.00   0.00   1.25   4.00   4.00   4.00   4.00   4.00   4.00   4.00   2.03   0.00   0.00      0      0      0       0    1555
 1990 364   173   170   21.0      5   1.87   3315   4044   7767   5079  17983   3710  209.3  0.432  10624      7  0.000  0.000  0.414  0.000   0.65  73.10   0.59      0  10624     56.5   0.00   0.00   1.25   4.00   4.00   4.00   4.00   4.00   4.00   4.00   2.03   0.00   0.00      0      0      0       0    1580
 1990 365   174   171   21.0      5   1.81   3315   4044   8036   5062  18253   3710  216.6  0.440  10894      7  0.000  0.000  0.430  0.000   0.63  73.77   0.60      0  10894     54.6   0.00   0.00   1.25   4.00   4.00   4.00   3.99   3.99   3.99   3.98   2.03   0.00   0.00      0      0      0       0    1605
 1991 001   175   172   21.0      5   1.74   3315   3984   8314   5037  18471   3710  224.1  0.450  11172      7  0.000  0.000  0.458  0.000   0.61  74.42   0.60      0  11172     52.6   0.00   0.00   1.25   4.00   4.00   4.00   3.99   3.99   3.99   3.98   2.03   0.00   0.00      0      0      0       0    1631
 1991 002   176   173   21.0      5   1.68   3315   3908   8592   5011  18673   3710  231.6  0.460  11450      7  0.000  0.000  0.488  0.000   0.60  75.04   0.61      0  11450     50.7   0.00   0.00   1.25   4.00   4.00   4.00   3.99   3.99   3.99   3.98   2.03   0.00   0.00      0      0      0       0    1656
 1991 003   177   174   21.0      5   1.62   3315   3840   8871   4986  18883   3710  239.1  0.470  11728      7  0.000  0.000  0.509  0.000   0.58  75.63   0.62      0  11728     48.7   0.00   0.00   1.25   4.00   4.00   4.00   3.99   3.99   3.99   3.98   2.03   0.00   0.00      0      0      0       0    1681
 1991 004   178   175   21.0      5   1.55   3315   3829   9115   4961  19117   3710  245.7  0.477  11973      7  0.000  0.000  0.527  0.000   0.57  76.13   0.63      0  11973     46.9   0.00   0.00   1.25   4.00   4.00   4.00   3.99   3.99   3.99   3.98   2.03   0.00   0.00      0      0      0       0    1706
 1991 005   179   176   21.0      5   1.49   3315   3808   9359   4937  19340   3710  252.3  0.484  12217      7  0.000  0.000  0.539  0.000   0.56  76.61   0.63      0  12217     45.0   0.00   0.00   1.25   4.00   4.00   4.00   3.99   3.99   3.99   3.98   2.03   0.00   0.00      0      0      0       0    1731
 1991 006   180   177   21.0      5   1.43   3315   3759   9617   4912  19549   3710  259.2  0.492  12475      7  0.000  0.000  0.562  0.000   0.55  77.09   0.64      0  12475     43.2   0.00   0.00   1.25   4.00   4.00   4.00   3.99   3.99   3.99   3.98   2.03   0.00   0.00      0      0      0       0    1755
 1991 007   181   178   21.0      5   1.43   3315   3759   9617   4912  19549   3710  259.2  0.492  12475      7  0.000  0.000  0.562  0.000   0.55  77.09   0.64      0  12475     43.2   0.00   0.00   1.25   4.00   4.00   4.00   3.99   3.99   3.99   3.98   2.03   0.00   0.00      0      0      0       0    1755
 1991 008   182   179   21.0      5   1.43   3315   3759   9617   4912  19549   3710  259.2  0.492  12475      7  0.000  0.000  0.562  0.000   0.55  77.09   0.64      0  12475     43.2   0.00   0.00   1.25   4.00   4.00   4.00   3.99   3.99   3.99   3.98   2.03   0.00   0.00      0      0      0       0    1755
 1991 009   183   180   21.0      5   1.43   3315   3759   9617   4912  19549   3710  259.2  0.492  12475      7  0.000  0.000  0.562  0.000   0.55  77.09   0.64      0  12475     43.2   0.00   0.00   1.25   4.00   4.00   4.00   3.99   3.99   3.99   3.98   2.03   0.00   0.00      0      0      0       0    1755

*DSSAT Cropping System Model Ver. 4.0.2.000               Jul 20, 2016; 10:57:40

*RUN   2        : UYMZ                    
 MODEL          : MZCER040 - Maize           
 EXPERIMENT     : UYMZ0048 MZ    late to create DSS                             
 TREATMENT  1   : UYMZ                    

@YEAR DOY   DAS   DAP   L#SD   GSTD   LAID   LWAD   SWAD   GWAD   RWAD   CWAD   G#AD   GWGD   HIAD   PWAD   P#AD   WSPD   WSGD   NSTD   EWSD   LN%D   SH%D   HIPD   PWDD   PWTD     SLAD   CHTD   CWID   RDPD   RL1D   RL2D   RL3D   RL4D   RL5D   RL6D   RL7D   RL8D   RL9D   RL10   CDAD   LDAD   SDAD   SNW0C   SNW1C
 1991 194     3     0    0.0      0   0.00      0      0      0      0      0      0    0.0  0.000      0      0  0.000  0.000  0.000  0.000   0.00   0.00   0.00      0      0      0.0   0.00   0.00   0.03   0.00   0.00   0.00   0.00   0.00   0.00   0.00   0.00   0.00   0.00      0      0      0       0       0
 1991 195     4     1    0.0      0   0.00      0      0      0      0      0      0    0.0  0.000      0      0  0.000  0.000  0.000  0.000   0.00   0.00   0.00      0      0      0.0   0.00   0.00   0.03   0.00   0.00   0.00   0.00   0.00   0.00   0.00   0.00   0.00   0.00      0      0      0       0       0
 1991 196     5     2    0.0      0   0.00      0      0      0      0      0      0    0.0  0.000      0      0  0.000  0.000  0.000  0.000   0.00   0.00   0.00      0      0      0.0   0.00   0.00   0.03   0.00   0.00   0.00   0.00   0.00   0.00   0.00   0.00   0.00   0.00      0      0      0       0       0
 1991 197     6     3    0.0      0   0.00      0      0      0      0      0      0    0.0  0.000      0      0  0.000  0.000  0.000  0.000   0.00   0.00   0.00      0      0      0.0   0.00   0.00   0.03   0.00   0.00   0.00   0.00   0.00   0.00   0.00   0.00   0.00   0.00      0      0      0       0       0
 1991 198     7     4    0.0      0   0.00      0      0      0      0      0      0    0.0  0.000      0      0  0.000  0.000  0.000  0.000   0.00   0.00   0.00      0      0      0.0   0.00   0.00   0.04   0.00   0.00   0.00   0.00   0.00   0.00   0.00   0.00   0.00   0.00      0      0      0       0       0
 1991 199     8     5    0.0      0   0.00      0      0      0      0      0      0    0.0  0.000      0      0  0.000  0.000  0.000  0.000   0.00   0.00   0.00      0      0      0.0   0.00   0.00   0.05   0.00   0.00   0.00   0.00   0.00   0.00   0.00   0.00   0.00   0.00      0      0      0       0       0
 1991 200     9     6    0.0      0   0.00      0      0      0      0      0      0    0.0  0.000      0      0  0.000  0.000  0.000  0.000   0.00   0.00   0.00      0      0      0.0   0.00   0.00   0.05   0.00   0.00   0.00   0.00   0.00   0.00   0.00   0.00   0.00   0.00      0      0      0       0       0
 1991 201    10     7    0.0      0   0.00      0      0      0      0      0      0    0.0  0.000      0      0  0.000  0.000  0.000  0.000   0.00   0.00   0.00      0      0      0.0   0.00   0.00   0.07   0.00   0.00   0.00   0.00   0.00   0.00   0.00   0.00   0.00   0.00      0      0      0       0       0
 1991 202    11     8    0.0      0   0.00      0      0      0      0      0      0    0.0  0.000      0      0  0.000  0.000  0.000  0.000   0.00   0.00   0.00      0      0      0.0   0.00   0.00   0.07   0.00   0.00   0.00   0.00   0.00   0.00   0.00   0.00   0.00   0.00      0      0      0       0       0
 1991 203    12     9    0.0      0   0.00      0      0      0      0      0      0    0.0  0.000      0      0  0.000  0.000  0.000  0.000   0.00   0.00   0.00      0      0      0.0   0.00   0.00   0.07   0.00   0.00   0.00   0.00   0.00   0.00   0.00   0.00   0.00   0.00      0      0      0       0       0
 1991 204    13    10    0.0      0   0.00      0      0      0      0      0      0    0.0  0.000      0      0  0.000  0.000  0.000  0.000   0.00   0.00   0.00      0      0      0.0   0.00   0.00   0.07   0.00   0.00   0.00   0.00   0.00   0.00   0.00   0.00   0.00   0.00      0      0      0       0       0
 1991 205    14    11    0.0      0   0.00      0      0      0      0      0      0    0.0  0.000      0      0  0.000  0.000  0.000  0.000   0.00   0.00   0.00      0      0      0.0   0.00   0.00   0.08   0.00   0.00   0.00   0.00   0.00   0.00   0.00   0.00   0.00   0.00      0      0      0       0       0
 1991 206    15    12    0.0      0   0.00      0      0      0      0      0      0    0.0  0.000      0      0  0.000  0.000  0.000  0.000   0.00   0.00   0.00      0      0      0.0   0.00   0.00   0.08   0.00   0.00   0.00   0.00   0.00   0.00   0.00   0.00   0.00   0.00      0      0      0       0       0
 1991 207    16    13    0.0      0   0.00      0      0      0      0      0      0    0.0  0.000      0      0  0.000  0.000  0.000  0.000   0.00   0.00   0.00      0      0      0.0   0.00   0.00   0.09   0.00   0.00   0.00   0.00   0.00   0.00   0.00   0.00   0.00   0.00      0      0      0       0       0
 1991 208    17    14    0.0      0   0.00      0      0      0      0      0      0    0.0  0.000      0      0  0.000  0.000  0.000  0.000   0.00   0.00   0.00      0      0      0.0   0.00   0.00   0.11   0.00   0.00   0.00   0.00   0.00   0.00   0.00   0.00   0.00   0.00      0      0      0       0       0
 1991 209    18    15    1.0      1   0.00     14     14      0     14     28      0    0.0  0.000      0      0  0.000  0.000  0.012  0.000   4.40   0.00   0.00      0      0     23.9   0.00   0.00   0.12   0.28   0.09   0.00   0.00   0.00   0.00   0.00   0.00   0.00   0.00      0      0      0       0       0
 1991 210    19    16    2.0      1   0.01     14     14      0     14     28      0    0.0  0.000      0      0  0.000  0.000  0.013  0.000   4.51   0.00   0.00      0      0     46.3   0.00   0.00   0.14   0.28   0.09   0.00   0.00   0.00   0.00   0.00   0.00   0.00   0.00      0      0      0       0       0
 1991 211    20    17    2.0      1   0.01     14     14      0     14     28      0    0.0  0.000      0      0  0.000  0.000  0.000  0.000   4.51   0.00   0.00      0      0     58.0   0.00   0.00   0.14   0.27   0.10   0.00   0.00   0.00   0.00   0.00   0.00   0.00   0.00      0      0      0       0       0
 1991 212    21    18    2.0      1   0.01     14     14      0     15     28      0    0.0  0.000      0      0  0.000  0.000  0.000  0.000   4.49   0.00   0.00      0      0     63.1   0.00   0.00   0.15   0.26   0.10   0.00   0.00   0.00   0.00   0.00   0.00   0.00   0.00      0      0      0       0       0
 1991 213    22    19    2.0      1   0.01     14     14      0     15     28      0    0.0  0.000      0      0  0.000  0.000  0.000  0.000   4.49   0.00   0.00      0      0     44.0   0.00   0.00   0.15   0.26   0.10   0.00   0.00   0.00   0.00   0.00   0.00   0.00   0.00      0      0      0       0       0
 1991 214    23    20    2.0      1   0.00     14     14      0     15     28      0    0.0  0.000      0      0  0.000  0.000  0.000  0.000   4.49   0.00   0.00      0      0     17.2   0.00   0.00   0.15   0.25   0.10   0.00   0.00   0.00   0.00   0.00   0.00   0.00   0.00      0      0      0       0       0
 1991 215    24    21    2.0      1   0.00     14     14      0     15     28      0    0.0  0.000      0      0  0.000  0.000  0.000  0.000   4.49   0.00   0.00      0      0      9.3   0.00   0.00   0.15   0.24   0.09   0.00   0.00   0.00   0.00   0.00   0.00   0.00   0.00      0      0      0       0       0
 1991 216    25    22    2.0      1   0.00     14     14      0     15     28      0    0.0  0.000      0      0  0.000  0.000  0.000  0.000   4.49   0.00   0.00      0      0      9.3   0.00   0.00   0.15   0.22   0.09   0.00   0.00   0.00   0.00   0.00   0.00   0.00   0.00      0      0      0       0       0
 1991 217    26    23    2.0      1   0.00     14     14      0     15     28      0    0.0  0.000      0      0  0.000  0.000  0.000  0.184   4.49   0.00   0.00      0      0     12.3   0.00   0.00   0.15   0.21   0.09   0.00   0.00   0.00   0.00   0.00   0.00   0.00   0.00      0      0      0       0       0
 1991 218    27    24    2.0      1   0.00     14     14      0     15     28      0    0.0  0.000      0      0  0.000  0.000  0.000  0.000   4.49   0.00   0.00      0      0     10.3   0.00   0.00   0.15   0.21   0.09   0.00   0.00   0.00   0.00   0.00   0.00   0.00   0.00      0      0      0       0       0
 1991 219    28    25    2.0      1   0.00     14     14      0     15     28      0    0.0  0.000      0      0  0.000  0.000  0.000  0.000   4.49   0.00   0.00      0      0     11.4   0.00   0.00   0.15   0.21   0.09   0.00   0.00   0.00   0.00   0.00   0.00   0.00   0.00      0      0      0       0       0
 1991 220    29    26    3.0      1   0.00     14     14      0     15     28      0    0.0  0.000      0      0  0.000  0.000  0.000  0.000   4.49   0.00   0.00      0      0     20.2   0.00   0.00   0.16   0.20   0.09   0.00   0.00   0.00   0.00   0.00   0.00   0.00   0.00      0      0      0       0       0
 1991 221    30    27    3.0      1   0.00     14     14      0     15     28      0    0.0  0.000      0      0  0.000  0.000  0.000  0.000   4.49   0.00   0.00      0      0     30.6   0.00   0.00   0.16   0.20   0.09   0.00   0.00   0.00   0.00   0.00   0.00   0.00   0.00      0      0      0       0       0
 1991 222    31    28    3.0      1   0.00     14     14      0     15     28      0    0.0  0.000      0      0  0.000  0.000  0.000  0.000   4.49   0.00   0.00      0      0     34.8   0.00   0.00   0.16   0.20   0.09   0.00   0.00   0.00   0.00   0.00   0.00   0.00   0.00      0      0      0       0       0
 1991 223    32    29    3.0      1   0.01     14     14      0     15     28      0    0.0  0.000      0      0  0.000  0.000  0.000  0.000   4.49   0.00   0.00      0      0     37.8   0.00   0.00   0.16   0.20   0.09   0.00   0.00   0.00   0.00   0.00   0.00   0.00   0.00      0      0      0       0       0
 1991 224    33    30    3.0      1   0.00     14     14      0     15     28      0    0.0  0.000      0      0  0.000  0.000  0.000  0.000   4.49   0.00   0.00      0      0     33.4   0.00   0.00   0.17   0.20   0.09   0.00   0.00   0.00   0.00   0.00   0.00   0.00   0.00      0      0      0       0       0
 1991 225    34    31    3.0      1   0.01     14     14      0     16     28      0    0.0  0.000      0      0  0.000  0.000  0.000  0.000   4.49   0.00   0.00      0      0     45.3   0.00   0.00   0.17   0.20   0.09   0.00   0.00   0.00   0.00   0.00   0.00   0.00   0.00      0      0      0       0       0
 1991 226    35    32    3.0      1   0.01     14     14      0     16     28      0    0.0  0.000      0      0  0.000  0.000  0.000  0.000   4.49   0.00   0.00      0      0     71.9   0.00   0.00   0.18   0.20   0.10   0.01   0.00   0.00   0.00   0.00   0.00   0.00   0.00      0      0      0       0       0
 1991 227    36    33    4.0      1   0.02     14     14      0     17     28      0    0.0  0.000      0      0  0.000  0.000  0.000  0.000   4.49   0.00   0.00      0      0    176.1   0.00   0.00   0.20   0.20   0.11   0.01   0.00   0.00   0.00   0.00   0.00   0.00   0.00      0      0      0       0       0
 1991 228    37    34    4.0      1   0.04     15     14      0     19     29      0    0.0  0.000      0      0  0.000  0.000  0.000  0.000   4.14   0.00   0.00      0      0    278.3   0.00   0.00   0.21   0.20   0.12   0.03   0.00   0.00   0.00   0.00   0.00   0.00   0.00      0      0      0       0       0
 1991 229    38    35    4.0      1   0.06     21     14      0     22     35      0    0.0  0.000      0      0  0.000  0.000  0.000  0.000   3.55   0.00   0.00      0      0    273.9   0.00   0.00   0.22   0.20   0.14   0.05   0.00   0.00   0.00   0.00   0.00   0.00   0.00      0      0      0       0       0
 1991 230    39    36    5.0      1   0.08     29     14      0     23     43      0    0.0  0.000      0      0  0.000  0.000  0.000  0.000   3.56   0.00   0.00      0      0    267.2   0.00   0.00   0.23   0.20   0.15   0.06   0.00   0.00   0.00   0.00   0.00   0.00   0.00      0      0      0       0       0
 1991 231    40    37    5.0      1   0.10     37     14      0     27     51      0    0.0  0.000      0      0  0.000  0.000  0.000  0.000   3.55   0.00   0.00      0      0    259.8   0.00   0.00   0.24   0.21   0.17   0.09   0.00   0.00   0.00   0.00   0.00   0.00   0.00      0      0      0       0       1
 1991 232    41    38    5.0      1   0.12     47     14      0     30     61      0    0.0  0.000      0      0  0.000  0.000  0.000  0.000   3.55   0.00   0.00      0      0    252.2   0.00   0.00   0.25   0.22   0.19   0.12   0.00   0.00   0.00   0.00   0.00   0.00   0.00      0      0      0       0       1
 1991 233    42    39    6.0      1   0.14     58     14      0     39     72      0    0.0  0.000      0      0  0.000  0.000  0.000  0.000   3.54   0.00   0.00      0      0    244.6   0.00   0.00   0.26   0.24   0.23   0.20   0.00   0.00   0.00   0.00   0.00   0.00   0.00      0      0      0       0       1
 1991 234    43    40    6.0      1   0.17     73     14      0     48     87      0    0.0  0.000      0      0  0.000  0.000  0.000  0.000   3.46   0.00   0.00      0      0    236.4   0.00   0.00   0.28   0.26   0.28   0.28   0.00   0.00   0.00   0.00   0.00   0.00   0.00      0      0      0       0       1
 1991 235    44    41    6.0      1   0.20     86     14      0     65    100      0    0.0  0.000      0      0  0.000  0.000  0.000  0.000   3.59   0.00   0.00      0      0    230.3   0.00   0.00   0.29   0.30   0.35   0.43   0.00   0.00   0.00   0.00   0.00   0.00   0.00      0      0      0       0       1
 1991 236    45    42    6.0      1   0.22     97     14      0     85    111      0    0.0  0.000      0      0  0.000  0.000  0.000  0.000   3.71   0.00   0.00      0      0    225.8   0.00   0.00   0.30   0.35   0.44   0.62   0.00   0.00   0.00   0.00   0.00   0.00   0.00      0      0      0       0       2
 1991 237    46    43    7.0      1   0.25    113     14      0    102    127      0    0.0  0.000      0      0  0.000  0.000  0.000  0.000   3.57   0.00   0.00      0      0    220.0   0.00   0.00   0.31   0.40   0.51   0.77   0.00   0.00   0.00   0.00   0.00   0.00   0.00      0      0      0       0       2
 1991 238    47    44    7.0      1   0.27    124     14      0    105    138      0    0.0  0.000      0      0  0.000  0.000  0.000  0.000   3.77   0.00   0.00      0      0    216.7   0.00   0.00   0.31   0.41   0.53   0.81   0.00   0.00   0.00   0.00   0.00   0.00   0.00      0      0      0       0       3
 1991 239    48    45    7.0      1   0.28    133     14      0    109    147      0    0.0  0.000      0      0  0.000  0.000  0.000  0.000   3.82   0.00   0.00      0      0    214.1   0.00   0.00   0.31   0.41   0.55   0.84   0.00   0.00   0.00   0.00   0.00   0.00   0.00      0      0      0       0       3
 1991 240    49    46    7.0      1   0.31    150     14      0    124    164      0    0.0  0.000      0      0  0.000  0.000  0.000  0.000   3.63   0.00   0.00      0      0    209.7   0.00   0.00   0.32   0.46   0.61   0.97   0.01   0.00   0.00   0.00   0.00   0.00   0.00      0      0      0       0       4
 1991 241    50    47    8.0      1   0.35    172     14      0    138    186      0    0.0  0.000      0      0  0.000  0.000  0.000  0.000   3.54   0.00   0.00      0      0    204.6   0.00   0.00   0.33   0.50   0.67   1.09   0.02   0.00   0.00   0.00   0.00   0.00   0.00      0      0      0       0       4
 1991 242    51    48    8.0      1   0.40    200     14      0    143    214      0    0.0  0.000      0      0  0.000  0.000  0.000  0.000   3.47   0.00   0.00      0      0    199.1   0.00   0.00   0.35   0.51   0.69   1.12   0.03   0.00   0.00   0.00   0.00   0.00   0.00      0      0      0       0       5
 1991 243    52    49    8.0      1   0.42    215     14      0    149    229      0    0.0  0.000      0      0  0.000  0.000  0.000  0.000   3.73   0.00   0.00      0      0    196.2   0.00   0.00   0.36   0.53   0.71   1.17   0.04   0.00   0.00   0.00   0.00   0.00   0.00      0      0      0       0       6
 1991 244    53    50    8.0      1   0.44    226     14      0    165    240      0    0.0  0.000      0      0  0.000  0.000  0.000  0.000   3.79   0.00   0.00      0      0    194.2   0.00   0.00   0.36   0.54   0.78   1.30   0.07   0.00   0.00   0.00   0.00   0.00   0.00      0      0      0       0       6
 1991 245    54    51    8.0      1   0.46    243     14      0    172    257      0    0.0  0.000      0      0  0.000  0.000  0.000  0.000   3.69   0.00   0.00      0      0    191.2   0.00   0.00   0.37   0.55   0.81   1.35   0.09   0.00   0.00   0.00   0.00   0.00   0.00      0      0      0       0       7
 1991 246    55    52    9.0      1   0.51    274     14      0    191    288      0    0.0  0.000      0      0  0.000  0.000  0.000  0.000   3.51   0.00   0.00      0      0    186.5   0.00   0.00   0.39   0.57   0.89   1.49   0.13   0.00   0.00   0.00   0.00   0.00   0.00      0      0      0       0       8
 1991 247    56    53    9.0      1   0.57    313     14      0    237    327      0    0.0  0.000      0      0  0.000  0.000  0.000  0.000   3.43   0.00   0.00      0      0    181.4   0.00   0.00   0.40   0.62   1.08   1.82   0.26   0.00   0.00   0.00   0.00   0.00   0.00      0      0      0       0       9
 1991 248    57    54    9.0      2   0.65    339     14      0    296    353      0    0.0  0.000      0      0  0.000  0.000  0.000  0.000   3.59   0.00   0.00      0      0    190.5   0.00   0.00   0.42   0.68   1.31   2.22   0.46   0.00   0.00   0.00   0.00   0.00   0.00      0      0      0       0      10
 1991 249    58    55   10.0      2   0.70    374     14      0    301    388      0    0.0  0.000      0      0  0.000  0.000  0.003  0.000   3.55   0.00   0.00      0      0    186.7   0.00   0.00   0.44   0.68   1.33   2.25   0.48   0.00   0.00   0.00   0.00   0.00   0.00      0      0      0       0      12
 1991 250    59    56   10.0      2   0.74    404     14      0    309    418      0    0.0  0.000      0      0  0.000  0.000  0.000  0.000   3.54   0.00   0.00      0      0    183.7   0.00   0.00   0.45   0.68   1.36   2.29   0.51   0.00   0.00   0.00   0.00   0.00   0.00      0      0      0       0      13
 1991 251    60    57   10.0      2   0.78    430     14      0    320    444      0    0.0  0.000      0      0  0.000  0.000  0.000  0.000   3.81   0.00   0.00      0      0    181.2   0.00   0.00   0.45   0.68   1.40   2.36   0.57   0.00   0.00   0.00   0.00   0.00   0.00      0      0      0       0      15
 1991 252    61    58   10.0      3   0.82    461     14      0    381    475      0    0.0  0.000      0      0  0.000  0.000  0.022  0.000   3.68   0.00   0.00      0      0    177.2   0.00   0.00   0.46   0.71   1.61   2.72   0.83   0.02   0.00   0.00   0.00   0.00   0.00      0      0      0       0      16
 1991 253    62    59   10.0      3   0.88    503     14      0    449    517      0    0.0  0.000      0      0  0.000  0.000  0.022  0.000   3.58   0.00   0.00      0      0    174.0   0.00   0.00   0.47   0.73   1.83   3.10   1.13   0.07   0.00   0.00   0.00   0.00   0.00      0      0      0       0      18
 1991 254    63    60   11.0      3   0.95    560     15      0    528    574      0    0.0  0.000      0      0  0.000  0.000  0.022  0.000   3.54   0.00   0.00      0      0    170.4   0.00   0.00   0.49   0.75   2.08   3.51   1.49   0.17   0.00   0.00   0.00   0.00   0.00      0      0      0       0      20
 1991 255    64    61   11.0      3   1.05    631     16      0    604    647      0    0.0  0.000      0      0  0.000  0.000  0.022  0.000   3.50   0.00   0.00      0      0    166.4   0.00   0.00   0.50   0.76   2.28   3.86   1.83   0.32   0.00   0.00   0.00   0.00   0.00      0      0      0       0      23
 1991 256    65    62   11.0      3   1.17    724     19      0    647    743      0    0.0  0.000      0      0  0.000  0.000  0.022  0.000   3.45   0.00   0.00      0      0    162.1   0.00   0.00   0.52   0.77   2.38   4.00   2.03   0.45   0.00   0.00   0.00   0.00   0.00      0      0      0       0      26
 1991 257    66    63   11.0      3   1.22    764     21      0    662    786      0    0.0  0.000      0      0  0.000  0.000  0.022  0.000   3.43   0.00   0.00      0      0    160.1   0.00   0.00   0.53   0.77   2.40   4.00   2.11   0.50   0.00   0.00   0.00   0.00   0.00      0      0      0       0      29
 1991 258    67    64   12.0      3   1.24    781     22      0    671    803      0    0.0  0.000      0      0  0.000  0.000  0.022  0.000   3.50   0.00   0.00      0      0    159.0   0.00   0.00   0.53   0.77   2.42   4.00   2.15   0.54   0.00   0.00   0.00   0.00   0.00      0      0      0       0      33
 1991 259    68    65   12.0      3   1.34    858     27      0    704    885      0    0.0  0.000      0      0  0.000  0.000  0.022  0.000   3.39   0.00   0.00      0      0    156.1   0.00   0.00   0.54   0.77   2.49   4.00   2.30   0.67   0.00   0.00   0.00   0.00   0.00      0      0      0       0      36
 1991 260    69    66   12.0      3   1.43    931     34      0    705    964      0    0.0  0.000      0      0  0.000  0.000  0.022  0.097   3.36   0.00   0.00      0      0    153.5   0.00   0.00   0.56   0.77   2.49   3.99   2.31   0.68   0.00   0.00   0.00   0.00   0.00      0      0      0       0      40
 1991 261    70    67   12.0      3   1.50    993     40      0    804   1033      0    0.0  0.000      0      0  0.000  0.000  0.022  0.113   3.29   0.00   0.00      0      0    151.4   0.00   0.00   0.57   0.75   2.39   4.00   2.55   1.17   0.00   0.00   0.00   0.00   0.00      0      0      0       0      43
 1991 262    71    68   12.0      3   1.55   1031     45      0    923   1075      0    0.0  0.000      0      0  0.000  0.000  0.022  0.121   3.32   0.00   0.00      0      0    150.0   0.00   0.00   0.58   0.78   2.36   4.00   2.97   1.92   0.00   0.00   0.00   0.00   0.00      0      0      0       0      47
 1991 263    72    69   13.0      3   1.62   1091     53      0    983   1144      0    0.0  0.000      0      0  0.000  0.000  0.022  0.054   3.27   0.00   0.00      0      0    148.2   0.00   0.00   0.58   0.80   2.35   3.96   3.17   2.38   0.00   0.00   0.00   0.00   0.00      0      0      0       0      52
[...]
 1992 318   127   124   20.0      3   2.51   3409   1796      0   4483   5205      0    0.0  0.000      0      0  0.707  0.805  0.046  0.000   1.94   0.00   0.00      0      0     73.6   0.00   0.00   0.92   3.98   4.00   4.00   4.00   4.00   2.33   0.11   0.00   0.00   0.00      0      0      0       0     631
 1992 319   128   125   20.0      3   2.47   3437   1880      0   4495   5317      0    0.0  0.000      0      0  0.494  0.663  0.046  0.000   1.91   0.00   0.00      0      0     72.0   0.00   0.00   0.94   3.96   4.00   4.00   4.00   4.00   2.35   0.22   0.00   0.00   0.00      0      0      0       0     653
 1992 320   129   126   20.0      3   2.44   3463   1959      0   4533   5423      0    0.0  0.000      0      0  0.467  0.645  0.045  0.000   1.88   0.00   0.00      0      0     70.5   0.00   0.00   0.95   4.00   4.00   4.00   4.00   4.00   2.38   0.43   0.00   0.00   0.00      0      0      0       0     676
 1992 321   130   127   20.0      3   2.47   3503   2077      0   4684   5580      0    0.0  0.000      0      0  0.000  0.000  0.046  0.000   1.84   0.00   0.00      0      0     70.4   0.00   0.00   0.96   4.00   4.00   4.00   4.00   4.00   2.52   1.07   0.00   0.00   0.00      0      0      0       0     698
 1992 322   131   128   20.0      3   2.48   3536   2175      0   4844   5710      0    0.0  0.000      0      0  0.000  0.000  0.048  0.000   1.81   0.00   0.00      0      0     70.2   0.00   0.00   0.96   4.00   4.00   4.00   4.00   4.00   2.67   1.73   0.00   0.00   0.00      0      0      0       0     722
 1992 323   132   129   20.0      3   2.50   3573   2286      0   4998   5859      0    0.0  0.000      0      0  0.000  0.000  0.050  0.000   1.77   0.00   0.00      0      0     70.1   0.00   0.00   0.97   4.00   4.00   4.00   3.98   4.00   2.82   2.34   0.00   0.00   0.00      0      0      0       0     746
 1992 324   133   130   20.0      3   2.54   3631   2456      0   5119   6087      0    0.0  0.000      0      0  0.000  0.000  0.052  0.000   1.71   0.00   0.00      0      0     70.0   0.00   0.00   0.98   4.00   4.00   4.00   3.98   4.00   2.94   2.81   0.00   0.00   0.00      0      0      0       0     771
 1992 325   134   131   20.0      3   2.59   3700   2657      0   5153   6357      0    0.0  0.000      0      0  0.000  0.000  0.054  0.000   1.65   0.00   0.00      0      0     70.1   0.00   0.00   0.99   4.00   4.00   4.00   3.96   4.00   2.99   2.98   0.00   0.00   0.00      0      0      0       0     797
 1992 326   135   132   20.0      4   2.57   3662   2254      0   5134   6460      0    0.0  0.000    545      0  0.000  0.000  0.059  0.000   1.78   0.00   0.08      0    545     70.3   0.00   0.00   1.00   4.00   4.00   4.00   3.94   3.99   2.98   2.98   0.00   0.00   0.00      0      0      0       0     822
 1992 327   136   133   20.0      4   2.55   3623   2277      0   5275   6504      0    0.0  0.000    604      0  0.136  0.424  0.065  0.000   1.79   0.00   0.09      0    604     70.5   0.00   0.00   1.01   3.98   4.00   4.00   3.92   4.00   3.17   3.34   0.00   0.00   0.00      0      0      0       0     848
 1992 328   137   134   20.0      4   2.52   3583   2295      0   5375   6527      0    0.0  0.000    649      0  0.235  0.491  0.049  0.000   1.80   0.00   0.10      0    649     70.4   0.00   0.00   1.02   3.96   4.00   4.00   3.92   4.00   3.34   3.54   0.00   0.00   0.00      0      0      0       0     874
 1992 329   138   135   20.0      4   2.47   3540   2320      0   5431   6570      0    0.0  0.000    710      0  0.434  0.623  0.046  0.000   1.81   0.00   0.11      0    710     69.7   0.00   0.00   1.03   3.94   4.00   4.00   3.90   3.98   3.46   3.59   0.00   0.00   0.00      0      0      0       0     901
 1992 330   139   136   20.0      4   2.40   3496   2342      0   5460   6604      0    0.0  0.000    766      0  0.531  0.688  0.043  0.000   1.82   0.00   0.12      0    766     68.7   0.00   0.00   1.04   3.92   4.00   4.00   3.89   3.98   3.53   3.62   0.00   0.00   0.00      0      0      0       0     929
 1992 331   140   137   20.0      4   2.35   3450   2370      0   5481   6655      0    0.0  0.000    835      0  0.444  0.630  0.040  0.000   1.82   0.00   0.13      0    835     68.1   0.00   0.00   1.05   3.90   4.00   4.00   3.87   3.96   3.59   3.65   0.00   0.00   0.00      0      0      0       0     956
 1992 332   141   138   20.0      4   2.26   3401   2383      0   5505   6653      0    0.0  0.000    868      0  0.729  0.820  0.037  0.000   1.84   0.00   0.13      0    868     66.6   0.00   0.00   1.06   3.88   4.00   4.00   3.85   3.95   3.65   3.68   0.00   0.00   0.00      0      0      0       0     983
 1992 333   142   139   20.0      4   2.20   3350   2406      0   5520   6679      0    0.0  0.000    924      0  0.569  0.713  0.034  0.000   1.85   0.00   0.14      0    924     65.6   0.00   0.00   1.07   3.86   4.00   4.00   3.83   3.93   3.70   3.71   0.00   0.00   0.00      0      0      0       0    1011
 1992 334   143   140   20.0      4   2.13   3296   2427      0   5515   6700      0    0.0  0.000    977      0  0.663  0.776  0.031  0.000   1.86   0.00   0.15      0    977     64.5   0.00   0.00   1.08   3.84   4.00   3.98   3.81   3.92   3.74   3.73   0.00   0.00   0.00      0      0      0       0    1038
 1992 335   144   141   20.0      4   2.05   3239   2447      0   5514   6714      0    0.0  0.000   1028      0  0.677  0.785  0.028  0.000   1.87   0.00   0.15      0   1028     63.4   0.00   0.00   1.09   3.99   4.00   3.98   3.79   3.90   3.78   3.75   0.00   0.00   0.00      0      0      0       0    1066
 1992 336   145   142   20.0      4   2.05   3180   2510      0   5626   6876      0    0.0  0.000   1186      0  0.000  0.000  0.025  0.000   1.87   0.00   0.17      0   1186     64.4   0.00   0.00   1.10   4.00   4.00   4.00   3.78   3.89   3.94   3.86   0.11   0.00   0.00      0      0      0       0    1093
 1992 337   146   143   20.0      4   2.04   3119   2562      0   5765   6995      0    0.0  0.000   1314      0  0.000  0.000  0.024  0.000   1.88   0.00   0.19      0   1314     65.4   0.00   0.00   1.10   4.00   4.00   4.00   3.76   3.87   4.00   4.00   0.28   0.00   0.00      0      0      0       0    1122
 1992 338   147   144   20.0      4   2.04   3057   2623      0   5851   7147      0    0.0  0.000   1468      0  0.000  0.000  0.022  0.000   1.88   0.00   0.21      0   1468     66.6   0.00   0.00   1.11   4.00   4.00   4.00   3.76   3.86   4.00   4.00   0.43   0.00   0.00      0      0      0       0    1150
 1992 339   148   145   20.0      4   2.03   2992   2701      0   5944   7354      0    0.0  0.000   1661      0  0.000  0.000  0.022  0.000   1.88   0.00   0.23      0   1661     67.9   0.00   0.00   1.12   4.00   4.00   4.00   3.74   3.84   4.00   4.00   0.60   0.00   0.00      0      0      0       0    1180
 1992 340   149   146   20.0      4   2.02   2924   2766      0   5958   7516      0    0.0  0.000   1826      0  0.000  0.179  0.022  0.000   1.88   0.00   0.24      0   1826     69.2   0.00   0.00   1.13   3.98   4.00   4.00   3.72   3.83   4.00   4.00   0.67   0.00   0.00      0      0      0       0    1209
 1992 341   150   147   20.0      5   1.99   2924   2766    159   5964   7675   2551    6.2  0.021   1985      7  0.307  0.538  0.000  0.000   1.83   8.01   0.26      0   1985     68.2   0.00   0.00   1.14   4.00   4.00   4.00   3.70   3.81   4.00   4.00   0.72   0.00   0.00      0      0      0       0    1239
 1992 342   151   148   20.0      5   1.99   2924   2766    325   5993   7842   2551   12.8  0.042   2151      7  0.000  0.000  0.000  0.000   1.78  15.13   0.27      0   2151     68.2   0.00   0.00   1.15   4.00   4.00   4.00   3.70   3.79   4.00   4.00   0.81   0.00   0.00      0      0      0       0    1269
 1992 343   152   149   20.0      5   1.99   2924   2766    499   6029   8015   2551   19.6  0.062   2325      7  0.000  0.000  0.000  0.000   1.73  21.46   0.29      0   2325     68.2   0.00   0.00   1.16   4.00   4.00   4.00   3.68   3.77   4.00   4.00   0.91   0.00   0.00      0      0      0       0    1299
 1992 344   153   150   20.0      5   1.99   2924   2766    676   6045   8192   2551   26.5  0.083   2502      7  0.000  0.000  0.000  0.000   1.68  27.03   0.31      0   2502     68.2   0.00   0.00   1.17   4.00   4.00   4.00   3.67   3.76   4.00   4.00   0.98   0.00   0.00      0      0      0       0    1329
 1992 345   154   151   20.0      5   1.99   2924   2766    867   6064   8384   2551   34.0  0.103   2693      7  0.000  0.000  0.004  0.000   1.63  32.21   0.32      0   2693     68.1   0.00   0.00   1.18   4.00   4.00   4.00   3.65   3.74   4.00   4.00   1.04   0.00   0.00      0      0      0       0    1359
 1992 346   155   152   20.0      5   1.99   2924   2766   1037   6090   8553   2551   40.7  0.121   2863      7  0.000  0.000  0.013  0.000   1.58  36.22   0.33      0   2863     68.0   0.00   0.00   1.19   4.00   4.00   4.00   3.65   3.72   4.00   4.00   1.10   0.00   0.00      0      0      0       0    1390
 1992 347   156   153   20.0      5   1.96   2924   2766   1168   6115   8685   2551   45.8  0.135   2994      7  0.306  0.538  0.021  0.000   1.54  39.02   0.34      0   2994     67.0   0.00   0.00   1.20   3.98   4.00   4.00   3.63   3.70   4.00   4.00   1.15   0.00   0.00      0      0      0       0    1420
 1992 348   157   154   20.0      5   1.90   2924   2766   1298   6107   8815   2551   50.9  0.147   3124      7  0.581  0.721  0.025  0.000   1.50  41.56   0.35      0   3124     65.0   0.00   0.00   1.21   3.96   4.00   4.00   3.62   3.68   4.00   4.00   1.16   0.00   0.00      0      0      0       0    1451
 1992 349   158   155   20.0      5   1.85   2924   2766   1425   6098   8942   2551   55.9  0.159   3251      7  0.566  0.711  0.030  0.000   1.47  43.84   0.36      0   3251     63.2   0.00   0.00   1.21   3.94   4.00   4.00   3.60   3.66   3.98   4.00   1.17   0.00   0.00      0      0      0       0    1481
 1992 350   159   156   20.0      5   1.78   2924   2766   1508   6082   9024   2551   59.1  0.167   3334      7  0.721  0.814  0.036  0.000   1.44  45.23   0.37      0   3334     60.9   0.00   0.00   1.22   3.92   4.00   4.00   3.59   3.64   3.96   4.00   1.17   0.00   0.00      0      0      0       0    1512
 1992 351   160   157   20.0      5   1.73   2924   2766   1621   6064   9138   2551   63.6  0.177   3447      7  0.607  0.739  0.037  0.000   1.41  47.04   0.38      0   3447     59.1   0.00   0.00   1.23   3.90   4.00   4.00   3.57   3.62   3.94   4.00   1.17   0.00   0.00      0      0      0       0    1542
 1992 352   161   158   20.0      5   1.67   2924   2759   1747   6033   9256   2551   68.5  0.189   3573      7  0.625  0.750  0.040  0.000   1.38  48.90   0.39      0   3573     57.2   0.00   0.00   1.23   3.90   4.00   4.00   3.57   3.62   3.94   4.00   1.17   0.00   0.00      0      0      0       0    1572
 1992 353   162   159   20.0      5   1.61   2924   2766   1862   6008   9379   2551   73.0  0.199   3688      7  0.716  0.811  0.045  0.000   1.34  50.50   0.39      0   3688     55.2   0.00   0.00   1.24   3.88   4.00   4.00   3.55   3.61   3.92   3.98   1.17   0.00   0.00      0      0      0       0    1603
 1992 354   163   160   20.0      5   1.56   2924   2743   1985   5978   9478   2551   77.8  0.209   3811      7  0.650  0.767  0.049  0.000   1.31  52.10   0.40      0   3811     53.4   0.00   0.00   1.24   3.88   4.00   4.00   3.55   3.61   3.92   3.98   1.17   0.00   0.00      0      0      0       0    1633
 1992 355   164   161   20.0      5   1.50   2924   2744   2096   5949   9590   2551   82.2  0.219   3921      7  0.770  0.847  0.053  0.000   1.28  53.44   0.41      0   3921     51.3   0.00   0.00   1.24   3.86   3.98   3.98   3.53   3.59   3.90   3.96   1.16   0.00   0.00      0      0      0       0    1663
 1992 356   165   162   20.0      5   1.44   2924   2720   2205   5919   9675   2551   86.4  0.228   4030      7  0.781  0.855  0.054  0.000   1.26  54.70   0.42      0   4030     49.3   0.00   0.00   1.24   3.86   3.98   3.98   3.53   3.59   3.90   3.96   1.16   0.00   0.00      0      0      0       0    1692
 1992 357   166   163   20.0      5   1.42   2924   2674   2359   5890   9783   2551   92.5  0.241   4184      7  0.354  0.570  0.058  0.000   1.22  56.37   0.43      0   4184     48.5   0.00   0.00   1.24   3.86   3.98   3.98   3.53   3.59   3.90   3.96   1.16   0.00   0.00      0      0      0       0    1722
 1992 358   167   164   20.0      5   1.38   2924   2619   2498   5860   9867   2551   97.9  0.253   4324      7  0.492  0.662  0.065  0.000   1.20  57.78   0.44      0   4324     47.3   0.00   0.00   1.24   3.86   3.98   3.98   3.53   3.59   3.90   3.96   1.16   0.00   0.00      0      0      0       0    1751
 1992 359   168   165   20.0      5   1.33   2924   2596   2607   5831   9953   2551  102.2  0.262   4432      7  0.790  0.860  0.069  0.000   1.17  58.81   0.45      0   4432     45.4   0.00   0.00   1.24   3.86   3.98   3.98   3.53   3.59   3.90   3.96   1.16   0.00   0.00      0      0      0       0    1781
 1992 360   169   166   20.0      5   1.32   2924   2663   2778   5835  10191   2551  108.9  0.273   4604      7  0.000  0.000  0.068  0.000   1.12  60.35   0.45      0   4604     45.0   0.00   0.00   1.25   4.00   4.00   4.00   3.52   3.57   3.88   3.95   1.18   0.00   0.00      0      0      0       0    1810
 1992 361   170   167   20.0      5   1.30   2924   2766   2935   5870  10452   2551  115.1  0.281   4761      7  0.000  0.000  0.079  0.000   1.06  61.65   0.46      0   4761     44.6   0.00   0.00   1.25   4.00   4.00   4.00   3.51   3.55   3.86   3.93   1.22   0.00   0.00      0      0      0       0    1839
 1992 362   171   168   20.0      5   1.29   2924   2766   3093   5900  10609   2551  121.2  0.292   4918      7  0.000  0.000  0.097  0.000   1.02  62.88   0.46      0   4918     44.0   0.00   0.00   1.25   4.00   4.00   4.00   3.49   3.53   3.84   3.94   1.25   0.00   0.00      0      0      0       0    1868
 1992 363   172   169   20.0      5   1.27   2924   2766   3284   5916  10800   2551  128.7  0.304   5110      7  0.000  0.287  0.117  0.000   0.98  64.27   0.47      0   5110     43.4   0.00   0.00   1.25   3.98   4.00   4.00   3.48   3.51   3.82   3.92   1.28   0.00   0.00      0      0      0       0    1898
 1992 364   173   170   20.0      5   1.25   2924   2685   3475   5887  10910   2551  136.2  0.319   5301      7  0.000  0.244  0.132  0.000   0.95  65.56   0.49      0   5301     42.7   0.00   0.00   1.25   3.98   4.00   4.00   3.48   3.51   3.82   3.92   1.28   0.00   0.00      0      0      0       0    1927
 1992 365   174   171   20.0      5   1.22   2924   2624   3643   5857  11018   2551  142.8  0.331   5469      7  0.070  0.381  0.147  0.000   0.93  66.62   0.50      0   5469     41.9   0.00   0.00   1.25   3.98   4.00   4.00   3.48   3.51   3.82   3.92   1.28   0.00   0.00      0      0      0       0    1957
 1992 366   175   172   20.0      5   1.20   2924   2582   3791   5828  11123   2551  148.6  0.341   5617      7  0.000  0.000  0.153  0.000   0.91  67.50   0.50      0   5617     41.1   0.00   0.00   1.25   3.98   4.00   4.00   3.48   3.51   3.82   3.92   1.28   0.00   0.00      0      0      0       0    1986
 1993 001   176   173   20.0      5   1.18   2924   2528   3950   5799  11227   2551  154.9  0.352   5775      7  0.000  0.000  0.155  0.000   0.89  68.39   0.51      0   5775     40.3   0.00   0.00   1.25   3.98   4.00   4.00   3.48   3.51   3.82   3.92   1.28   0.00   0.00      0      0      0       0    2015
 1993 002   177   174   20.0      5   1.15   2924   2468   4111   5770  11330   2551  161.2  0.363   5937      7  0.000  0.000  0.159  0.069   0.88  69.25   0.52      0   5937     39.5   0.00   0.00   1.25   3.98   4.00   4.00   3.48   3.51   3.82   3.92   1.28   0.00   0.00      0      0      0       0    2044
 1993 003   178   175   20.0      5   1.13   2924   2404   4276   5741  11431   2551  167.7  0.374   6102      7  0.000  0.000  0.163  0.288   0.86  70.08   0.53      0   6102     38.7   0.00   0.00   1.25   3.98   4.00   4.00   3.48   3.51   3.82   3.92   1.28   0.00   0.00      0      0      0       0    2073
 1993 004   179   176   20.0      5   1.11   2924   2376   4468   5712  11593   2551  175.2  0.385   6293      7  0.000  0.000  0.166  0.270   0.83  70.99   0.54      0   6293     37.9   0.00   0.00   1.25   3.98   4.00   4.00   3.48   3.51   3.82   3.92   1.28   0.00   0.00      0      0      0       0    2102
 1993 005   180   177   20.0      5   1.08   2924   2406   4659   5699  11815   2551  182.7  0.394   6485      7  0.000  0.000  0.171  0.140   0.80  71.85   0.55      0   6485     37.1   0.00   0.00   1.25   4.00   4.00   4.00   3.48   3.52   3.82   3.92   1.28   0.00   0.00      0      0      0       0    2130
 1993 006   181   178   20.0      5   1.06   2924   2467   4850   5701  12067   2551  190.2  0.402   6676      7  0.000  0.000  0.178  0.040   0.76  72.65   0.55      0   6676     36.2   0.00   0.00   1.25   4.00   4.00   4.00   3.51   3.54   3.83   3.92   1.29   0.00   0.00      0      0      0       0    2159
 1993 007   182   179   20.0      5   1.03   2924   2403   5042   5672  12194   2551  197.7  0.413   6867      7  0.000  0.000  0.193  0.008   0.74  73.41   0.56      0   6867     35.4   0.00   0.00   1.25   4.00   4.00   4.00   3.51   3.54   3.83   3.92   1.29   0.00   0.00      0      0      0       0    2187
 1993 008   183   180   20.0      5   1.01   2924   2403   5233   5644  12386   2551  205.2  0.422   7059      7  0.000  0.000  0.234  0.128   0.71  74.14   0.57      0   7059     34.4   0.00   0.00   1.25   3.98   3.98   3.98   3.49   3.52   3.81   3.90   1.28   0.00   0.00      0      0      0       0    2216
 1993 009   184   181   20.0      5   0.98   2924   2453   5408   5641  12611   2551  212.0  0.429   7233      7  0.000  0.000  0.262  0.073   0.68  74.76   0.57      0   7233     33.5   0.00   0.00   1.25   4.00   4.00   4.00   3.51   3.54   3.82   3.90   1.28   0.00   0.00      0      0      0       0    2244
 1993 010   185   182   20.0      5   0.95   2924   2487   5599   5630  12836   2551  219.5  0.436   7425      7  0.000  0.000  0.300  0.027   0.65  75.41   0.58      0   7425     32.5   0.00   0.00   1.25   4.00   4.00   4.00   3.52   3.54   3.82   3.89   1.28   0.00   0.00      0      0      0       0    2272
 1993 011   186   183   20.0      5   0.92   2924   2511   5790   5613  13051   2551  227.0  0.444   7616      7  0.000  0.000  0.352  0.000   0.63  76.03   0.58      0   7616     31.5   0.00   0.00   1.25   4.00   4.00   4.00   3.52   3.54   3.81   3.88   1.28   0.00   0.00      0      0      0       0    2300
 1993 012   187   184   20.0      5   0.92   2924   2511   5790   5613  13051   2551  227.0  0.444   7616      7  0.000  0.000  0.352  0.000   0.63  76.03   0.58      0   7616     31.5   0.00   0.00   1.25   4.00   4.00   4.00   3.52   3.53   3.80   3.87   1.28   0.00   0.00      0      0      0       0    2300
 1993 013   188   185   20.0      5   0.92   2924   2511   5790   5613  13051   2551  227.0  0.444   7616      7  0.000  0.000  0.352  0.000   0.63  76.03   0.58      0   7616     31.5   0.00   0.00   1.25   4.00   4.00   4.00   3.51   3.53   3.80   3.86   1.28   0.00   0.00      0      0      0       0    2300
 1993 014   189   186   20.0      5   0.92   2924   2511   5790   5613  13051   2551  227.0  0.444   7616      7  0.000  0.000  0.352  0.000   0.63  76.03   0.58      0   7616     31.5   0.00   0.00   1.25   4.00   4.00   4.00   3.50   3.52   3.78   3.85   1.27   0.00   0.00      0      0      0       0    2300
