*SOIL-PLANT-ATMOSPHERE MODULE OUTPUT FILE

*DSSAT Cropping System Model Ver. 4.0.2.000               Aug 15, 2016; 15:31:22

*RUN   1        : UYMZ                    
 MODEL          : MZCER040 - Maize           
 EXPERIMENT     : UYMZ0199 MZ    late to create DSS                             
 TREATMENT  1   : UYMZ                    

@YEAR DOY   DAS   SRAA   TMXA   TMNA   EOAA   ETAA   EPAA   ESAA   EFAD   ETAC   EPAC   ESAC   EFAC
 1990 162     0  11.50  12.30  -1.00  2.042  2.042  0.000  2.042  0.000    2.0    0.0    2.0    0.0
 1990 163     1   3.70   9.90   3.30  0.662  0.662  0.000  0.662  0.000    2.7    0.0    2.7    0.0
 1990 164     2   3.70  12.70   8.60  0.731  0.731  0.000  0.731  0.000    3.4    0.0    3.4    0.0
 1990 165     3   5.90  14.40   8.40  1.194  1.194  0.000  1.194  0.000    4.6    0.0    4.6    0.0
 1990 166     4  12.80  10.70   2.10  2.290  2.290  0.000  2.290  0.000    6.9    0.0    6.9    0.0
 1990 167     5  12.30  17.00   0.20  2.384  2.384  0.000  2.384  0.000    9.3    0.0    9.3    0.0
 1990 168     6  12.90  20.40   4.80  2.748  1.701  0.000  1.701  0.000   11.0    0.0   11.0    0.0
 1990 169     7  13.10  22.30   4.60  2.859  2.266  0.000  2.266  0.000   13.3    0.0   13.3    0.0
 1990 170     8   3.70  13.20   7.10  0.726  0.726  0.000  0.726  0.000   14.0    0.0   14.0    0.0
 1990 171     9   9.00   9.50   2.40  1.584  1.188  0.000  1.188  0.000   15.2    0.0   15.2    0.0
 1990 172    10  11.30  12.80  -1.90  2.003  0.981  0.000  0.981  0.000   16.2    0.0   16.2    0.0
 1990 173    11  10.90  13.00   0.70  1.995  0.856  0.000  0.856  0.000   17.0    0.0   17.0    0.0
 1990 174    12   7.10  14.40   1.50  1.340  0.768  0.000  0.768  0.000   17.8    0.0   17.8    0.0
 1990 175    13   9.10  14.40   6.70  1.811  0.703  0.000  0.703  0.000   18.5    0.0   18.5    0.0
 1990 176    14  12.50  15.50   1.40  2.397  0.653  0.000  0.653  0.000   19.1    0.0   19.1    0.0
 1990 177    15  13.00  18.30   1.70  2.608  0.611  0.000  0.611  0.000   19.8    0.0   19.8    0.0
 1990 178    16   9.40  17.80   3.50  1.906  0.577  0.000  0.577  0.000   20.3    0.0   20.3    0.0
 1990 179    17  11.20  19.00   4.60  2.335  0.548  0.000  0.548  0.000   20.9    0.0   20.9    0.0
 1990 180    18  11.00  16.20   4.50  2.200  0.523  0.000  0.523  0.000   21.4    0.0   21.4    0.0
 1990 181    19   8.10  17.00   9.70  1.722  0.501  0.000  0.501  0.000   21.9    0.0   21.9    0.0
 1990 182    20  12.60  19.20   7.60  2.709  0.482  0.000  0.482  0.000   22.4    0.0   22.4    0.0
 1990 183    21   5.10  17.00   7.40  1.061  0.464  0.000  0.464  0.000   22.9    0.0   22.9    0.0
 1990 184    22   3.90  14.00   9.80  0.795  0.449  0.000  0.449  0.000   23.3    0.0   23.3    0.0
 1990 185    23   4.70  16.50   9.60  0.991  0.435  0.000  0.435  0.000   23.7    0.0   23.7    0.0
 1990 186    24   3.70  17.40  13.40  0.818  0.423  0.001  0.422  0.000   24.2    0.0   24.2    0.0
 1990 187    25   5.40  19.70  13.20  1.228  0.413  0.003  0.410  0.000   24.6    0.0   24.6    0.0
 1990 188    26   3.80  15.80  11.30  0.806  0.402  0.003  0.399  0.000   25.0    0.0   25.0    0.0
 1990 189    27   4.30  19.60  13.50  0.979  0.394  0.004  0.389  0.000   25.4    0.0   25.4    0.0
 1990 190    28   5.60  17.10  11.30  1.209  1.209  0.007  1.202  0.000   26.6    0.0   26.6    0.0
 1990 191    29   7.60  13.90   6.30  1.493  0.432  0.010  0.421  0.000   27.0    0.0   27.0    0.0
 1990 192    30  13.70  18.20   5.20  2.836  0.431  0.021  0.410  0.000   27.4    0.0   27.4    0.0
 1990 193    31  13.80  17.60   3.90  2.797  0.422  0.023  0.399  0.000   27.9    0.1   27.8    0.0
 1990 194    32  13.40  19.70   6.00  2.854  0.413  0.024  0.389  0.000   28.3    0.1   28.2    0.0
 1990 195    33   9.40  19.20   7.80  2.021  0.399  0.019  0.380  0.000   28.7    0.1   28.6    0.0
 1990 196    34   6.90  20.00  10.10  1.531  1.531  0.017  1.515  0.000   30.2    0.1   30.1    0.0
 1990 197    35   5.50  15.70  10.10  1.150  1.150  0.014  1.136  0.000   31.4    0.1   31.2    0.0
 1990 198    36   8.40  16.00   9.40  1.752  1.752  0.028  1.724  0.000   33.1    0.2   32.9    0.0
 1990 199    37  12.00  11.20   1.60  2.147  2.147  0.040  2.107  0.000   35.3    0.2   35.0    0.0
 1990 200    38  12.30   8.90  -2.00  2.031  2.031  0.031  2.000  0.000   37.3    0.2   37.0    0.0
 1990 201    39  11.70   8.10  -1.20  1.926  1.917  0.011  1.906  0.000   39.2    0.3   38.9    0.0
 1990 202    40   9.40   8.60  -1.00  1.565  1.565  0.004  1.561  0.000   40.8    0.3   40.5    0.0
 1990 203    41  12.50   8.80  -5.60  1.976  1.976  0.003  1.973  0.000   42.7    0.3   42.5    0.0
 1990 204    42  12.50  13.90  -0.70  2.286  1.436  0.000  1.436  0.000   44.2    0.3   43.9    0.0
 1990 205    43  14.00  14.70   2.10  2.671  1.107  0.001  1.106  0.000   45.3    0.3   45.0    0.0
 1990 206    44  14.70   6.50  -1.00  2.357  0.937  0.003  0.934  0.000   46.2    0.3   46.0    0.0
 1990 207    45  11.00  12.00   4.00  2.052  0.825  0.001  0.824  0.000   47.1    0.3   46.8    0.0
 1990 208    46  13.50  16.00   1.70  2.616  0.748  0.003  0.745  0.000   47.8    0.3   47.5    0.0
 1990 209    47  14.90  10.20   1.10  2.614  0.692  0.006  0.685  0.000   48.5    0.3   48.2    0.0
 1990 210    48  14.20  12.70  -1.10  2.535  0.643  0.005  0.638  0.000   49.1    0.3   48.9    0.0
 1990 211    49  12.80  12.80  -1.00  2.291  0.602  0.003  0.600  0.000   49.7    0.3   49.4    0.0
 1990 212    50  13.00  14.90  -1.90  2.385  0.569  0.002  0.567  0.000   50.3    0.3   50.0    0.0
 1990 213    51  13.00  17.50   3.80  2.631  0.541  0.002  0.540  0.000   50.8    0.3   50.6    0.0

*DSSAT Cropping System Model Ver. 4.0.2.000               Aug 15, 2016; 15:31:22

*RUN   2        : UYMZ                    
 MODEL          : MZCER040 - Maize           
 EXPERIMENT     : UYMZ0199 MZ    late to create DSS                             
 TREATMENT  1   : UYMZ                    

@YEAR DOY   DAS   SRAA   TMXA   TMNA   EOAA   ETAA   EPAA   ESAA   EFAD   ETAC   EPAC   ESAC   EFAC
 1991 162     0   4.20  19.00  10.50  0.924  0.924  0.000  0.924  0.000    0.9    0.0    0.9    0.0
 1991 163     1   3.70  14.50   9.60  0.758  0.700  0.000  0.700  0.000    1.6    0.0    1.6    0.0
 1991 164     2   3.70  12.70   7.40  0.723  0.723  0.000  0.723  0.000    2.3    0.0    2.3    0.0
 1991 165     3   4.70  20.50  12.10  1.070  1.070  0.000  1.070  0.000    3.4    0.0    3.4    0.0
 1991 166     4   3.70  16.50  13.00  0.805  0.805  0.000  0.805  0.000    4.2    0.0    4.2    0.0
 1991 167     5   3.70  16.40  10.90  0.789  0.789  0.000  0.789  0.000    5.0    0.0    5.0    0.0
 1991 168     6   3.70  17.00  14.50  0.822  0.822  0.000  0.822  0.000    5.8    0.0    5.8    0.0
 1991 169     7   5.00  25.00  12.50  1.209  1.209  0.000  1.209  0.000    7.0    0.0    7.0    0.0
 1991 170     8   9.00  14.40  10.30  1.855  1.855  0.000  1.855  0.000    8.9    0.0    8.9    0.0
 1991 171     9   4.00  12.50   8.40  0.787  0.787  0.000  0.787  0.000    9.7    0.0    9.7    0.0
 1991 172    10   6.30  12.60   4.20  1.189  1.189  0.000  1.189  0.000   10.9    0.0   10.9    0.0
 1991 173    11   4.90  12.40   3.40  0.914  0.914  0.000  0.914  0.000   11.8    0.0   11.8    0.0
 1991 174    12  12.10  11.90   2.10  2.208  2.143  0.000  2.143  0.000   13.9    0.0   13.9    0.0
 1991 175    13  11.60  15.00   0.00  2.175  2.175  0.000  2.175  0.000   16.1    0.0   16.1    0.0
 1991 176    14  11.10  17.40   4.50  2.259  1.901  0.000  1.901  0.000   18.0    0.0   18.0    0.0
 1991 177    15   3.70  17.70  12.70  0.816  0.816  0.000  0.816  0.000   18.8    0.0   18.8    0.0
 1991 178    16   3.70  16.20   9.60  0.777  0.777  0.000  0.777  0.000   19.6    0.0   19.6    0.0
 1991 179    17   6.80  11.70   5.90  1.288  1.288  0.000  1.288  0.000   20.9    0.0   20.9    0.0
 1991 180    18  12.70  15.10   4.30  2.493  2.493  0.000  2.493  0.000   23.4    0.0   23.4    0.0
 1991 181    19   9.10  17.20   3.10  1.821  1.821  0.000  1.821  0.000   25.2    0.0   25.2    0.0
 1991 182    20  13.00  18.60   7.80  2.777  1.825  0.000  1.825  0.000   27.0    0.0   27.0    0.0
 1991 183    21  13.00  18.80   5.10  2.715  2.356  0.003  2.352  0.000   29.4    0.0   29.4    0.0
 1991 184    22  12.70   8.30   5.30  2.262  1.376  0.004  1.372  0.000   30.8    0.0   30.8    0.0
 1991 185    23   8.50   9.00   0.20  1.446  1.079  0.003  1.077  0.000   31.8    0.0   31.8    0.0
 1991 186    24   9.30  13.20  -1.60  1.665  0.918  0.002  0.916  0.000   32.8    0.0   32.7    0.0
 1991 187    25  10.70  15.90   6.50  2.172  0.812  0.001  0.811  0.000   33.6    0.0   33.6    0.0
 1991 188    26  10.70  17.20   4.00  2.160  0.738  0.002  0.736  0.000   34.3    0.0   34.3    0.0
 1991 189    27   5.00  18.00   6.90  1.050  0.680  0.001  0.678  0.000   35.0    0.0   35.0    0.0
 1991 190    28   6.60  23.80  11.10  1.554  0.636  0.003  0.632  0.000   35.6    0.0   35.6    0.0
 1991 191    29   7.30  12.70   5.20  1.393  1.393  0.005  1.388  0.000   37.0    0.0   37.0    0.0
 1991 192    30   7.30   9.90   2.10  1.288  1.288  0.005  1.283  0.000   38.3    0.0   38.3    0.0
 1991 193    31   6.40   8.10   1.00  1.082  1.082  0.004  1.078  0.000   39.4    0.0   39.4    0.0
 1991 194    32  11.80   8.20  -1.10  1.949  1.271  0.005  1.266  0.000   40.7    0.0   40.6    0.0
 1991 195    33  11.40  10.00  -1.70  1.930  1.930  0.002  1.928  0.000   42.6    0.0   42.5    0.0
 1991 196    34  12.40  12.60  -2.10  2.186  1.630  0.001  1.629  0.000   44.2    0.0   44.2    0.0
 1991 197    35   8.10  16.00   5.80  1.636  1.186  0.000  1.185  0.000   45.4    0.0   45.4    0.0
 1991 198    36   8.40  22.00   9.90  1.913  0.981  0.001  0.980  0.000   46.4    0.0   46.3    0.0
 1991 199    37   3.90  16.90   8.70  0.820  0.820  0.002  0.818  0.000   47.2    0.0   47.2    0.0
 1991 200    38  10.60  15.00   5.60  2.104  2.104  0.007  2.097  0.000   49.3    0.1   49.3    0.0
 1991 201    39   9.40  24.20  12.80  2.255  2.255  0.008  2.247  0.000   51.6    0.1   51.5    0.0
 1991 202    40   4.00  12.80   8.00  0.787  0.787  0.004  0.782  0.000   52.3    0.1   52.3    0.0
 1991 203    41   4.00   8.40   6.60  0.723  0.723  0.004  0.719  0.000   53.1    0.1   53.0    0.0
 1991 204    42   8.20  10.20   4.80  1.498  1.498  0.009  1.488  0.000   54.6    0.1   54.5    0.0
 1991 205    43  14.00  15.90   2.30  2.724  2.724  0.016  2.707  0.000   57.3    0.1   57.2    0.0
 1991 206    44  14.10  16.80   2.80  2.795  2.405  0.015  2.389  0.000   59.7    0.1   59.6    0.0
 1991 207    45  14.30  24.00   9.10  3.317  2.981  0.018  2.963  0.000   62.7    0.1   62.6    0.0
 1991 208    46  14.40  27.10  10.20  3.500  1.478  0.042  1.436  0.000   64.2    0.2   64.0    0.0
 1991 209    47  13.80  26.30  14.20  3.425  1.180  0.074  1.106  0.000   65.3    0.2   65.1    0.0
 1991 210    48  11.00  25.20  16.10  2.731  1.026  0.092  0.934  0.000   66.4    0.3   66.0    0.0
 1991 211    49   4.20  20.20   8.80  0.919  0.867  0.043  0.824  0.000   67.2    0.4   66.9    0.0
 1991 212    50  11.30  15.40   5.60  2.239  2.239  0.121  2.118  0.000   69.5    0.5   69.0    0.0
 1991 213    51  15.40   6.50   0.50  2.494  2.494  0.143  2.351  0.000   72.0    0.6   71.3    0.0
 1991 214    52  13.80   9.60  -1.80  2.304  2.032  0.093  1.939  0.000   74.0    0.7   73.3    0.0
 1991 215    53  14.00  11.90  -0.90  2.466  2.466  0.039  2.427  0.000   76.5    0.8   75.7    0.0
 1991 216    54   4.40  10.90   4.00  0.805  0.805  0.007  0.799  0.000   77.3    0.8   76.5    0.0
 1991 217    55  14.60  15.00   4.30  2.858  2.858  0.024  2.835  0.000   80.1    0.8   79.3    0.0
 1991 218    56   4.50   9.70   1.90  0.789  0.789  0.008  0.781  0.000   80.9    0.8   80.1    0.0
 1991 219    57   7.50  15.40   2.30  1.448  1.448  0.012  1.436  0.000   82.4    0.8   81.5    0.0
 1991 220    58  11.00  16.70   7.50  2.278  1.434  0.019  1.415  0.000   83.8    0.8   83.0    0.0
 1991 221    59   5.10  15.70  10.40  1.070  1.070  0.014  1.055  0.000   84.9    0.9   84.0    0.0
 1991 222    60   4.80  11.90   8.10  0.930  0.930  0.018  0.912  0.000   85.8    0.9   84.9    0.0
 1991 223    61   7.80  13.10   5.60  1.500  1.500  0.033  1.467  0.000   87.3    0.9   86.4    0.0
 1991 224    62  12.50  15.80   1.50  2.402  1.218  0.058  1.160  0.000   88.5    1.0   87.5    0.0
 1991 225    63  11.60  18.50   7.30  2.455  1.018  0.052  0.966  0.000   89.5    1.0   88.5    0.0
 1991 226    64  15.20  25.70  10.80  3.641  0.948  0.103  0.845  0.000   90.5    1.1   89.4    0.0
 1991 227    65  10.70  25.30  15.40  2.641  0.878  0.117  0.761  0.000   91.4    1.2   90.1    0.0
 1991 228    66  12.60  27.30  14.40  3.150  0.899  0.202  0.698  0.000   92.3    1.4   90.8    0.0
 1991 229    67  16.10  24.70  11.80  3.808  0.969  0.321  0.648  0.000   93.2    1.8   91.5    0.0
 1991 230    68   9.30  23.80  13.60  2.201  0.837  0.229  0.608  0.000   94.1    2.0   92.1    0.0
 1991 231    69  12.70  26.00  10.90  3.007  0.981  0.407  0.574  0.000   95.0    2.4   92.6    0.0
 1991 232    70   9.30  26.00  11.80  2.206  0.921  0.375  0.545  0.000   96.0    2.8   93.2    0.0
 1991 233    71  14.70  26.00  11.60  3.467  1.211  0.690  0.521  0.000   97.2    3.5   93.7    0.0
 1991 234    72  13.80  26.40  14.60  3.337  1.245  0.746  0.499  0.000   98.4    4.2   94.2    0.0
 1991 235    73  16.70  21.60  14.50  3.790  1.436  0.956  0.480  0.000   99.9    5.2   94.7    0.0
 1991 236    74  16.20  20.70   9.90  3.480  1.423  0.960  0.463  0.000  101.3    6.1   95.2    0.0
 1991 237    75  14.10  24.70  11.10  3.213  1.392  0.945  0.447  0.000  102.7    7.1   95.6    0.0
 1991 238    76   5.40  16.90  11.90  1.114  0.793  0.360  0.433  0.000  103.5    7.4   96.0    0.0
 1991 239    77   5.30  16.20  10.20  1.063  1.063  0.362  0.701  0.000  104.5    7.8   96.7    0.0
 1991 240    78  10.80  21.40  12.10  2.358  1.298  0.837  0.461  0.000  105.8    8.6   97.2    0.0
 1991 241    79  10.70  22.80  14.40  2.415  1.364  0.918  0.446  0.000  107.2    9.5   97.6    0.0
 1991 242    80   7.30  24.20  16.00  1.692  1.119  0.686  0.432  0.000  108.3   10.2   98.1    0.0
 1991 243    81   5.50  16.80  11.00  1.105  1.105  0.483  0.622  0.000  109.4   10.7   98.7    0.0
 1991 244    82   9.40  16.10   8.10  1.816  1.816  0.821  0.994  0.000  111.2   11.5   99.7    0.0
 1991 245    83   5.50  17.90  11.20  1.119  1.119  0.518  0.601  0.000  112.3   12.1  100.3    0.0
 1991 246    84  10.50  22.80  14.00  2.327  2.120  1.115  1.005  0.000  114.5   13.2  101.3    0.0
 1991 247    85  18.10  25.80  13.20  4.118  4.118  2.084  2.035  0.000  118.6   15.3  103.3    0.0
 1991 248    86  18.40  27.20  13.90  4.262  4.149  2.282  1.868  0.000  122.7   17.5  105.2    0.0
 1991 249    87   5.70  22.50  16.00  1.262  1.262  0.723  0.539  0.000  124.0   18.3  105.7    0.0
 1991 250    88   5.80  17.20  12.80  1.163  1.163  0.692  0.471  0.000  125.2   19.0  106.2    0.0
 1991 251    89   6.40  17.10  10.50  1.251  1.251  0.767  0.484  0.000  126.4   19.7  106.7    0.0
 1991 252    90  15.60  20.00   8.40  3.107  3.107  1.949  1.158  0.000  129.5   21.7  107.9    0.0
 1991 253    91  17.50  22.00  10.20  3.628  3.402  2.328  1.074  0.000  132.9   24.0  108.9    0.0
 1991 254    92  20.20  25.00  10.80  4.361  4.361  2.879  1.482  0.000  137.3   26.9  110.4    0.0
 1991 255    93  19.90  27.80  14.10  4.548  4.548  3.100  1.449  0.000  141.8   30.0  111.9    0.0
 1991 256    94  15.40  30.70  16.10  3.680  3.680  2.603  1.077  0.000  145.5   32.6  112.9    0.0
 1991 257    95   6.10  21.00   7.80  1.205  1.205  0.885  0.320  0.000  146.7   33.5  113.3    0.0
 1991 258    96   6.20  12.30   8.20  1.085  1.085  0.808  0.277  0.000  147.8   34.3  113.5    0.0
 1991 259    97  11.50  23.50  12.40  2.438  2.438  1.821  0.617  0.000  150.2   36.1  114.1    0.0
 1991 260    98   6.30  21.10  17.10  1.345  1.345  1.025  0.319  0.000  151.6   37.1  114.5    0.0
 1991 261    99  18.90  19.70  13.10  3.824  3.824  2.961  0.863  0.000  155.4   40.1  115.3    0.0
 1991 262   100  21.70  17.30   8.80  4.083  4.083  3.208  0.874  0.000  159.5   43.3  116.2    0.0
 1991 263   101  13.10  22.60   8.30  2.634  2.634  2.086  0.548  0.000  162.1   45.4  116.8    0.0
 1991 264   102  11.00  27.50  12.60  2.433  2.433  1.948  0.484  0.000  164.6   47.3  117.2    0.0
 1991 265   103  20.40  20.30  10.30  4.035  4.035  3.292  0.743  0.000  168.6   50.6  118.0    0.0
 1991 266   104  21.60  16.90   3.20  3.808  3.808  3.137  0.671  0.000  172.4   53.7  118.7    0.0
 1991 267   105  22.30  19.00   4.90  4.133  4.133  3.315  0.818  0.000  176.5   57.1  119.5    0.0
 1991 268   106  20.30  21.10   8.70  4.008  4.008  3.223  0.785  0.000  180.5   60.3  120.3    0.0
 1991 269   107  21.70  23.40   7.80  4.377  4.132  3.552  0.580  0.000  184.7   63.8  120.8    0.0
 1991 270   108  17.70  27.80  13.80  3.955  3.955  3.241  0.714  0.000  188.6   67.1  121.5    0.0
 1991 271   109  22.20  16.10   9.00  4.087  4.087  3.402  0.685  0.000  192.7   70.5  122.2    0.0
 1991 272   110  21.80  18.00   7.50  4.063  4.063  3.395  0.667  0.000  196.8   73.9  122.9    0.0
 1991 273   111  21.10  20.20   9.70  4.133  4.133  3.465  0.667  0.000  200.9   77.3  123.6    0.0
 1991 274   112  19.70  18.40   7.00  3.671  3.671  3.096  0.575  0.000  204.6   80.4  124.1    0.0
 1991 275   113  22.00  18.40   5.70  4.048  4.048  3.424  0.624  0.000  208.6   83.9  124.8    0.0
 1991 276   114  23.00  19.80   3.80  4.239  4.239  3.593  0.646  0.000  212.9   87.5  125.4    0.0
 1991 277   115  19.10  21.70   6.30  3.703  3.703  3.101  0.602  0.000  216.6   90.6  126.0    0.0
 1991 278   116   7.10  13.60  10.60  1.279  1.279  1.075  0.204  0.000  217.8   91.6  126.2    0.0
 1991 279   117  13.30  12.50   7.00  2.274  2.274  1.914  0.360  0.000  220.1   93.5  126.6    0.0
 1991 280   118  14.80  14.20   4.00  2.519  2.519  2.118  0.402  0.000  222.6   95.7  127.0    0.0
 1991 281   119  23.60  16.90   3.90  4.185  4.185  3.476  0.710  0.000  226.8   99.1  127.7    0.0
 1991 282   120  20.30  20.90   7.30  3.939  3.939  3.230  0.709  0.000  230.8  102.4  128.4    0.0
 1991 283   121  24.30  23.10   7.20  4.833  4.833  4.087  0.745  0.000  235.6  106.5  129.1    0.0
 1991 284   122  24.30  25.00   8.70  5.009  5.009  4.289  0.721  0.000  240.6  110.7  129.9    0.0
 1991 285   123  24.40  29.20  12.20  5.440  5.440  4.692  0.748  0.000  246.0  115.4  130.6    0.0
 1991 286   124  21.90  33.00  20.00  5.391  5.391  4.683  0.708  0.000  251.4  120.1  131.3    0.0
 1991 287   125  11.80  32.00  21.10  2.894  2.894  2.532  0.362  0.000  254.3  122.7  131.7    0.0
 1991 288   126   7.50  23.50  17.60  1.628  1.628  1.426  0.203  0.000  256.0  124.1  131.9    0.0
 1991 289   127   7.60  17.80  11.60  1.459  1.459  1.274  0.185  0.000  257.4  125.4  132.1    0.0
 1991 290   128  15.50  16.00   8.40  2.818  2.818  2.454  0.364  0.000  260.2  127.8  132.4    0.0
 1991 291   129  26.30  21.50   8.40  5.160  5.160  4.473  0.688  0.000  265.4  132.3  133.1    0.0
 1991 292   130  26.30  24.60  11.00  5.493  5.493  4.744  0.749  0.000  270.9  137.0  133.9    0.0
 1991 293   131  26.30  24.90  12.50  5.584  5.584  4.811  0.773  0.000  276.5  141.8  134.6    0.0
 1991 294   132  24.40  29.60  14.20  5.552  5.552  4.774  0.778  0.000  282.0  146.6  135.4    0.0
 1991 295   133  20.20  29.90  19.80  4.809  4.809  4.132  0.677  0.000  286.8  150.7  136.1    0.0
 1991 296   134   8.30  19.10  12.60  1.639  1.639  1.408  0.231  0.000  288.5  152.1  136.3    0.0
 1991 297   135   7.90  17.40  10.20  1.493  1.493  1.278  0.215  0.000  290.0  153.4  136.5    0.0
 1991 298   136   7.90  21.30  15.40  1.645  1.645  1.402  0.243  0.000  291.6  154.8  136.8    0.0
 1991 299   137  22.70  24.90  16.30  4.978  4.978  4.226  0.753  0.000  296.6  159.1  137.5    0.0
 1991 300   138  12.20  23.30  14.70  2.591  2.591  2.195  0.396  0.000  299.2  161.2  137.9    0.0
 1991 301   139   8.00  20.10  14.90  1.636  1.636  1.382  0.254  0.000  300.8  162.6  138.2    0.0
 1991 302   140   8.00  16.80  15.20  1.572  1.572  1.323  0.249  0.000  302.4  164.0  138.4    0.0
 1991 303   141   8.10  18.00  14.60  1.609  1.609  1.348  0.261  0.000  304.0  165.3  138.7    0.0
 1991 304   142   8.10  20.70  14.60  1.667  1.667  1.391  0.276  0.000  305.7  166.7  139.0    0.0
 1991 305   143  17.90  22.30  13.70  3.734  3.734  3.092  0.643  0.000  309.4  169.8  139.6    0.0
 1991 306   144  25.50  22.30  12.20  5.258  5.258  4.319  0.940  0.000  314.7  174.1  140.6    0.0
 1991 307   145  20.80  22.80  12.80  4.341  4.341  3.543  0.799  0.000  319.0  177.6  141.4    0.0
 1991 308   146  27.90  25.00  11.90  5.945  5.945  4.820  1.124  0.000  324.9  182.5  142.5    0.0
 1991 309   147  20.90  25.90  13.20  4.553  4.553  3.670  0.883  0.000  329.5  186.1  143.4    0.0
 1991 310   148  11.60  24.30  16.20  2.541  2.541  2.036  0.505  0.000  332.0  188.2  143.9    0.0
 1991 311   149  21.40  22.80  13.70  4.513  4.513  3.595  0.917  0.000  336.6  191.8  144.8    0.0
 1991 312   150  20.00  21.40  12.40  4.101  4.101  3.250  0.851  0.000  340.7  195.0  145.6    0.0
 1991 313   151  27.20  23.90   9.20  5.607  5.607  4.420  1.187  0.000  346.3  199.4  146.8    0.0
 1991 314   152  17.60  25.70  11.30  3.778  3.778  2.964  0.815  0.000  350.0  202.4  147.6    0.0
 1991 315   153  18.50  19.00  10.10  3.608  3.608  2.817  0.791  0.000  353.6  205.2  148.4    0.0
 1991 316   154  27.30  19.00   6.40  5.150  5.064  4.003  1.062  0.000  358.7  209.2  149.5    0.0
 1991 317   155  18.50  21.00   8.40  3.654  3.654  2.828  0.826  0.000  362.4  212.0  150.3    0.0
 1991 318   156   8.50  19.90  12.10  1.710  1.710  1.318  0.392  0.000  364.1  213.4  150.7    0.0
 1991 319   157  11.90  22.20  14.00  2.507  2.507  1.925  0.582  0.000  366.6  215.3  151.3    0.0
 1991 320   158  19.50  23.20  12.10  4.097  4.097  3.134  0.963  0.000  370.7  218.4  152.3    0.0
 1991 321   159  21.50  23.00  11.30  4.477  4.477  3.414  1.064  0.000  375.2  221.8  153.3    0.0
 1991 322   160  23.70  27.00  13.30  5.271  5.271  4.006  1.265  0.000  380.4  225.8  154.6    0.0
 1991 323   161  29.90  21.30  13.80  6.230  6.230  4.708  1.522  0.000  386.7  230.6  156.1    0.0
 1991 324   162  24.60  24.40  13.00  5.296  5.296  3.978  1.318  0.000  392.0  234.5  157.4    0.0
 1991 325   163  29.40  28.60  12.50  6.634  6.634  4.953  1.682  0.000  398.6  239.5  159.1    0.0
 1991 326   164  28.60  33.30  13.80  6.880  6.761  5.104  1.657  0.000  405.3  244.6  160.8    0.0
 1991 327   165  24.90  35.20  18.50  6.384  6.384  4.705  1.679  0.000  411.7  249.3  162.4    0.0
 1991 328   166   8.80  19.10  13.80  1.789  1.789  1.309  0.479  0.000  413.5  250.6  162.9    0.0
 1991 329   167   8.80  18.80  14.20  1.789  1.789  1.301  0.489  0.000  415.3  251.9  163.4    0.0
 1991 330   168  14.10  20.20  12.60  2.881  2.881  2.079  0.802  0.000  418.2  254.0  164.2    0.0
 1991 331   169  22.40  24.20  10.70  4.744  4.744  3.398  1.346  0.000  422.9  257.4  165.6    0.0
 1991 332   170  22.30  29.00  14.90  5.177  5.177  3.681  1.497  0.000  428.1  261.1  167.1    0.0
 1991 333   171  16.00  25.60  19.00  3.689  3.689  2.603  1.086  0.000  431.8  263.7  168.1    0.0
 1991 334   172  30.00  28.20  17.50  7.051  7.051  4.935  2.116  0.000  438.9  268.6  170.3    0.0
 1991 335   173  24.30  27.80  14.60  5.565  5.565  3.862  1.703  0.000  444.4  272.5  172.0    0.0
 1991 336   174  29.40  30.10  14.90  6.936  6.507  4.769  1.737  0.000  450.9  277.2  173.7    0.0
 1991 337   175  15.40  27.50  18.00  3.615  3.615  2.462  1.152  0.000  454.5  279.7  174.8    0.0
 1991 338   176  29.90  31.50  16.10  7.243  7.024  4.886  2.138  0.000  461.6  284.6  177.0    0.0
 1991 339   177  14.60  27.30  18.30  3.434  3.434  2.293  1.141  0.000  465.0  286.9  178.1    0.0
 1991 340   178  29.40  31.80  18.90  7.308  7.308  4.827  2.481  0.000  472.3  291.7  180.6    0.0
 1991 341   179  16.80  27.80  19.00  4.003  4.003  2.614  1.389  0.000  476.3  294.3  182.0    0.0
 1991 342   180  28.30  29.80  17.70  6.838  6.263  4.413  1.850  0.000  482.6  298.7  183.8    0.0
 1991 343   181   9.00  22.80  18.90  2.027  2.027  1.292  0.735  0.000  484.6  300.0  184.6    0.0
 1991 344   182  24.70  27.00  18.80  5.845  5.845  3.677  2.168  0.000  490.4  303.7  186.8    0.0
 1991 345   183  19.50  27.60  17.30  4.599  4.599  2.854  1.745  0.000  495.0  306.5  188.5    0.0
 1991 346   184   9.40  23.80  16.60  2.112  2.112  1.292  0.819  0.000  497.2  307.8  189.3    0.0
 1991 347   185  29.90  28.40  15.10  7.017  7.017  4.230  2.787  0.000  504.2  312.1  192.1    0.0
 1991 348   186   9.40  21.90  16.70  2.071  2.071  1.229  0.842  0.000  506.2  313.3  192.9    0.0
 1991 349   187   9.10  23.50  16.70  2.047  2.047  1.195  0.852  0.000  508.3  314.5  193.8    0.0
 1991 350   188  20.20  26.90  17.10  4.752  4.752  2.727  2.025  0.000  513.0  317.2  195.8    0.0
 1991 351   189  27.60  27.80  17.90  6.610  6.610  3.727  2.883  0.000  519.7  320.9  198.7    0.0
 1991 352   190  26.20  31.10  17.80  6.515  6.515  3.607  2.908  0.000  526.2  324.6  201.6    0.0
 1991 353   191  21.60  31.20  17.50  5.374  5.374  2.919  2.455  0.000  531.5  327.5  204.1    0.0
 1991 354   192  28.80  31.00  18.00  7.188  7.188  3.826  3.362  0.000  538.7  331.3  207.4    0.0
 1991 355   193  23.90  32.40  19.90  6.149  6.027  3.204  2.822  0.000  544.8  334.5  210.3    0.0
 1991 356   194  11.20  27.10  20.30  2.732  2.732  1.392  1.340  0.000  547.5  335.9  211.6    0.0
 1991 357   195  23.80  30.00  19.50  5.971  5.971  2.973  2.998  0.000  553.5  338.9  214.6    0.0
 1991 358   196  27.30  30.80  20.60  6.976  6.743  3.391  3.352  0.000  560.2  342.3  217.9    0.0
 1991 359   197  21.00  25.60  17.40  4.951  4.951  2.349  2.602  0.000  565.2  344.6  220.5    0.0
 1991 360   198  23.90  22.70  13.40  5.278  4.962  2.441  2.521  0.000  570.1  347.1  223.1    0.0
 1991 361   199  29.90  25.20  12.40  6.766  6.107  3.048  3.058  0.000  576.2  350.1  226.1    0.0
 1991 362   200  28.80  26.60  14.90  6.774  4.412  2.972  1.440  0.000  580.6  353.1  227.6    0.0
 1991 363   201  30.80  29.30  14.60  7.458  4.380  3.272  1.108  0.000  585.0  356.3  228.7    0.0
 1991 364   202  23.60  30.40  17.40  5.908  3.527  2.592  0.935  0.000  588.5  358.9  229.6    0.0

*DSSAT Cropping System Model Ver. 4.0.2.000               Aug 15, 2016; 15:31:22

*RUN   3        : UYMZ                    
 MODEL          : MZCER040 - Maize           
 EXPERIMENT     : UYMZ0199 MZ    late to create DSS                             
 TREATMENT  1   : UYMZ                    

@YEAR DOY   DAS   SRAA   TMXA   TMNA   EOAA   ETAA   EPAA   ESAA   EFAD   ETAC   EPAC   ESAC   EFAC
 1992 162     0  11.80  15.60   6.10  2.376  1.950  0.000  1.950  0.000    2.0    0.0    2.0    0.0
 1992 163     1  12.50  13.40   4.90  2.406  2.406  0.000  2.406  0.000    4.4    0.0    4.4    0.0
 1992 164     2  10.10  16.60   2.90  2.000  1.594  0.000  1.594  0.000    6.0    0.0    6.0    0.0
 1992 165     3   7.40  19.50  11.20  1.650  1.650  0.000  1.650  0.000    7.6    0.0    7.6    0.0
 1992 166     4  12.10  25.40  10.00  2.881  2.881  0.000  2.881  0.000   10.5    0.0   10.5    0.0
 1992 167     5   3.90  21.60  13.20  0.909  0.909  0.000  0.909  0.000   11.4    0.0   11.4    0.0
 1992 168     6   8.60  22.70  13.60  2.040  2.040  0.000  2.040  0.000   13.4    0.0   13.4    0.0
 1992 169     7  12.10  22.20  10.00  2.766  2.766  0.000  2.766  0.000   16.2    0.0   16.2    0.0
 1992 170     8   5.70  23.50  14.60  1.377  1.304  0.000  1.304  0.000   17.5    0.0   17.5    0.0
 1992 171     9  10.90  23.80  13.10  2.610  2.610  0.000  2.610  0.000   20.1    0.0   20.1    0.0
 1992 172    10   7.50  24.60  13.40  1.818  1.713  0.000  1.713  0.000   21.8    0.0   21.8    0.0
 1992 173    11   3.60  19.80  15.70  0.838  0.838  0.002  0.836  0.000   22.7    0.0   22.7    0.0
 1992 174    12   4.80  20.80  15.40  1.128  1.128  0.004  1.124  0.000   23.8    0.0   23.8    0.0
 1992 175    13   3.60  18.30  14.10  0.810  0.810  0.004  0.806  0.000   24.6    0.0   24.6    0.0
 1992 176    14   5.10  19.80  16.60  1.195  1.195  0.008  1.187  0.000   25.8    0.0   25.8    0.0
 1992 177    15   7.80  26.50  18.70  2.014  2.014  0.017  1.997  0.000   27.8    0.0   27.8    0.0
 1992 178    16   4.10  22.70  10.20  0.943  0.943  0.010  0.933  0.000   28.7    0.0   28.7    0.0
 1992 179    17  12.10  10.30   4.30  2.199  2.199  0.028  2.171  0.000   30.9    0.1   30.9    0.0
 1992 180    18  12.00  10.40   1.20  2.111  2.111  0.026  2.085  0.000   33.1    0.1   33.0    0.0
 1992 181    19   3.70  10.50   5.00  0.680  0.680  0.007  0.674  0.000   33.7    0.1   33.6    0.0
 1992 182    20   3.70   9.80   2.70  0.656  0.656  0.006  0.649  0.000   34.4    0.1   34.3    0.0
 1992 183    21   3.70  11.00   5.90  0.692  0.586  0.006  0.580  0.000   35.0    0.1   34.9    0.0
 1992 184    22  12.10  13.40   3.90  2.302  1.725  0.020  1.706  0.000   36.7    0.1   36.6    0.0
 1992 185    23  12.10  13.80   1.00  2.247  2.247  0.021  2.226  0.000   39.0    0.2   38.8    0.0
 1992 186    24   3.70  14.00   8.90  0.747  0.747  0.006  0.741  0.000   39.7    0.2   39.5    0.0
 1992 187    25  10.70  11.60   6.10  2.025  1.378  0.020  1.358  0.000   41.1    0.2   40.9    0.0
 1992 188    26  10.20   9.20  -0.50  1.725  1.088  0.019  1.070  0.000   42.2    0.2   42.0    0.0
 1992 189    27  11.40  10.80  -2.00  1.949  0.924  0.012  0.912  0.000   43.1    0.2   42.9    0.0
 1992 190    28  11.30  17.00   2.00  2.230  0.813  0.005  0.808  0.000   43.9    0.2   43.7    0.0
 1992 191    29  11.40  19.50   4.90  2.399  0.742  0.008  0.734  0.000   44.6    0.2   44.4    0.0
 1992 192    30  12.30  23.00   9.50  2.826  0.697  0.020  0.677  0.000   45.3    0.2   45.1    0.0
 1992 193    31  12.30  24.20   9.60  2.868  0.674  0.043  0.631  0.000   46.0    0.3   45.7    0.0
 1992 194    32  12.30  24.60  11.90  2.935  0.664  0.071  0.594  0.000   46.7    0.4   46.3    0.0
 1992 195    33   8.30  25.80  13.80  2.037  0.634  0.072  0.562  0.000   47.3    0.4   46.9    0.0
 1992 196    34   3.90  16.50   4.30  0.776  0.776  0.038  0.738  0.000   48.1    0.5   47.6    0.0
 1992 197    35  11.40   7.10   1.00  1.879  1.879  0.095  1.784  0.000   50.0    0.6   49.4    0.0
 1992 198    36   7.10   6.60  -1.50  1.127  1.127  0.043  1.084  0.000   51.1    0.6   50.5    0.0
 1992 199    37  10.20   9.00  -1.80  1.691  1.691  0.029  1.662  0.000   52.8    0.6   52.2    0.0
 1992 200    38  13.50   6.80   3.40  2.292  2.034  0.015  2.019  0.000   54.8    0.7   54.2    0.0
 1992 201    39   4.00  11.20   2.70  0.726  0.726  0.005  0.721  0.000   55.5    0.7   54.9    0.0
 1992 202    40  12.80  16.30   0.20  2.453  2.453  0.014  2.439  0.000   58.0    0.7   57.3    0.0
 1992 203    41  14.10   9.70   2.30  2.485  1.478  0.013  1.465  0.000   59.5    0.7   58.8    0.0
 1992 204    42  10.40   8.40  -1.50  1.715  1.127  0.008  1.119  0.000   60.6    0.7   59.9    0.0
 1992 205    43  14.60   8.40  -1.30  2.414  0.947  0.005  0.942  0.000   61.6    0.7   60.9    0.0
 1992 206    44   9.40  10.50  -0.90  1.621  0.831  0.002  0.829  0.000   62.4    0.7   61.7    0.0
 1992 207    45  10.70  15.20   3.40  2.085  0.750  0.001  0.749  0.000   63.1    0.7   62.4    0.0
 1992 208    46   4.20  11.80   9.50  0.826  0.691  0.002  0.689  0.000   63.8    0.7   63.1    0.0
 1992 209    47  12.50  14.00   5.80  2.448  2.448  0.014  2.434  0.000   66.3    0.7   65.6    0.0
 1992 210    48   4.20  11.10   3.00  0.763  0.763  0.007  0.756  0.000   67.0    0.7   66.3    0.0
 1992 211    49   9.60  16.80   9.10  2.021  1.216  0.016  1.200  0.000   68.3    0.7   67.5    0.0
 1992 212    50   4.30  13.60   7.50  0.850  0.850  0.013  0.837  0.000   69.1    0.8   68.3    0.0
 1992 213    51   6.30   9.40   3.80  1.122  1.122  0.018  1.104  0.000   70.2    0.8   69.5    0.0
 1992 214    52  13.60   8.80   0.20  2.301  1.043  0.035  1.008  0.000   71.3    0.8   70.5    0.0
 1992 215    53  13.70  12.00   0.10  2.446  0.897  0.024  0.873  0.000   72.2    0.8   71.3    0.0
 1992 216    54  13.70  13.70   0.50  2.527  0.799  0.018  0.781  0.000   73.0    0.8   72.1    0.0
 1992 217    55  10.00  12.50   1.20  1.823  0.723  0.010  0.713  0.000   73.7    0.9   72.8    0.0
 1992 218    56  12.80  17.40  -1.30  2.457  0.671  0.010  0.660  0.000   74.4    0.9   73.5    0.0
 1992 219    57  15.20  25.60   6.90  3.533  0.626  0.008  0.618  0.000   75.0    0.9   74.1    0.0
 1992 220    58   4.50  21.40   8.20  1.002  0.585  0.003  0.582  0.000   75.6    0.9   74.7    0.0
 1992 221    59  14.50  10.40   1.40  2.561  1.927  0.007  1.920  0.000   77.5    0.9   76.6    0.0
 1992 222    60  10.20  13.40  -0.60  1.852  0.580  0.003  0.577  0.000   78.1    0.9   77.2    0.0
 1992 223    61   9.40  15.40   7.80  1.918  0.550  0.002  0.548  0.000   78.6    0.9   77.7    0.0
 1992 224    62  15.10  14.90   3.90  2.943  0.524  0.001  0.523  0.000   79.1    0.9   78.3    0.0
 1992 225    63  14.50  15.90   6.10  2.932  0.501  0.000  0.501  0.000   79.7    0.9   78.8    0.0
 1992 226    64  15.60  18.00   2.80  3.150  0.482  0.000  0.482  0.000   80.1    0.9   79.2    0.0
 1992 227    65  14.70  18.40   3.00  2.992  0.464  0.000  0.464  0.000   80.6    0.9   79.7    0.0
 1992 228    66   9.50  19.20   5.70  2.007  0.449  0.000  0.449  0.000   81.0    0.9   80.2    0.0
 1992 229    67  15.30  22.20   8.70  3.458  0.435  0.000  0.435  0.000   81.5    0.9   80.6    0.0
 1992 230    68  12.30  23.20   9.70  2.841  0.422  0.000  0.422  0.000   81.9    0.9   81.0    0.0
 1992 231    69  14.00  20.80   9.20  3.120  0.410  0.000  0.410  0.000   82.3    0.9   81.4    0.0
 1992 232    70  13.40  19.60   7.90  2.904  0.399  0.000  0.399  0.000   82.7    0.9   81.8    0.0
 1992 233    71  13.30  19.40   6.20  2.830  0.389  0.000  0.389  0.000   83.1    0.9   82.2    0.0
 1992 234    72  16.90  23.10   9.50  3.891  0.380  0.000  0.380  0.000   83.5    0.9   82.6    0.0
 1992 235    73   7.80  20.10  13.90  1.795  1.200  0.000  1.200  0.000   84.7    0.9   83.8    0.0
 1992 236    74  17.00  19.30   9.60  3.727  3.727  0.000  3.727  0.000   88.4    0.9   87.5    0.0
 1992 237    75  17.80  21.00   7.10  3.904  0.436  0.000  0.436  0.000   88.8    0.9   88.0    0.0
 1992 238    76  18.00  21.20   5.80  3.912  0.423  0.000  0.423  0.000   89.3    0.9   88.4    0.0
 1992 239    77  17.90  20.30   6.20  3.857  0.411  0.000  0.411  0.000   89.7    0.9   88.8    0.0
 1992 240    78  17.60  25.40   6.30  4.061  0.400  0.000  0.400  0.000   90.1    0.9   89.2    0.0
 1992 241    79  11.50  18.80  11.40  2.545  0.390  0.000  0.390  0.000   90.5    0.9   89.6    0.0
 1992 242    80  14.20  24.40  11.00  3.366  0.381  0.000  0.381  0.000   90.8    0.9   90.0    0.0
 1992 243    81   5.50  20.90  15.20  1.293  0.372  0.000  0.372  0.000   91.2    0.9   90.3    0.0
 1992 244    82   7.20  13.80   9.60  1.461  1.461  0.000  1.461  0.000   92.7    0.9   91.8    0.0
 1992 245    83   7.50  14.00   7.20  1.491  0.496  0.000  0.496  0.000   93.2    0.9   92.3    0.0
 1992 246    84   5.70  14.80   8.60  1.162  0.477  0.000  0.477  0.000   93.7    0.9   92.8    0.0
 1992 247    85  14.90  17.40   7.30  3.115  0.460  0.000  0.460  0.000   94.1    0.9   93.2    0.0
 1992 248    86  18.80  18.80   6.80  3.989  0.445  0.000  0.445  0.000   94.6    0.9   93.7    0.0
 1992 249    87  18.30  21.20   6.10  3.988  0.431  0.000  0.431  0.000   95.0    0.9   94.1    0.0
 1992 250    88  18.30  18.80   8.70  3.952  0.419  0.000  0.419  0.000   95.4    0.9   94.5    0.0
 1992 251    89  17.80  20.60   9.70  3.974  0.407  0.000  0.407  0.000   95.8    0.9   94.9    0.0
 1992 252    90   5.90  20.10  13.60  1.354  0.397  0.000  0.397  0.000   96.2    0.9   95.3    0.0
 1992 253    91  11.20  20.00  13.40  2.562  0.387  0.000  0.387  0.000   96.6    0.9   95.7    0.0
 1992 254    92  12.60  21.60  13.10  2.935  0.378  0.000  0.378  0.000   97.0    0.9   96.1    0.0
 1992 255    93   8.60  21.20  14.90  2.024  2.024  0.000  2.024  0.000   99.0    0.9   98.1    0.0
 1992 256    94  16.90  19.30  12.30  3.795  1.120  0.000  1.120  0.000  100.1    0.9   99.2    0.0
 1992 257    95  10.20  16.70   8.80  2.141  0.427  0.000  0.427  0.000  100.5    0.9   99.7    0.0
 1992 258    96  17.10  20.10   6.20  3.674  0.414  0.000  0.414  0.000  101.0    0.9  100.1    0.0
 1992 259    97  19.70  21.30   9.00  4.412  0.403  0.000  0.403  0.000  101.4    0.9  100.5    0.0
 1992 260    98  12.60  22.60  12.60  2.960  0.393  0.000  0.393  0.000  101.8    0.9  100.9    0.0
 1992 261    99  14.90  26.70  15.20  3.757  0.383  0.000  0.383  0.000  102.1    0.9  101.2    0.0
 1992 262   100  19.80  16.60   9.30  4.170  3.200  0.000  3.200  0.000  105.3    0.9  104.4    0.0
 1992 263   101  21.60  19.30   5.20  4.547  0.394  0.000  0.394  0.000  105.7    0.9  104.8    0.0
 1992 264   102  21.40  25.60   5.90  4.934  0.384  0.000  0.384  0.000  106.1    0.9  105.2    0.0
 1992 265   103  21.20  30.00  10.20  5.344  0.375  0.000  0.375  0.000  106.5    0.9  105.6    0.0
 1992 266   104   6.50  12.70   8.80  1.288  1.288  0.000  1.288  0.000  107.8    0.9  106.9    0.0
 1992 267   105  16.00  18.60   6.50  3.376  3.376  0.000  3.376  0.000  111.2    0.9  110.3    0.0
 1992 268   106   6.60  13.20  10.60  1.341  1.051  0.000  1.051  0.000  112.2    0.9  111.3    0.0
 1992 269   107  21.20  12.50   4.50  4.007  4.007  0.000  4.007  0.000  116.2    0.9  115.3    0.0
 1992 270   108  20.60  14.20   0.80  3.847  3.105  0.000  3.105  0.000  119.3    0.9  118.4    0.0
 1992 271   109  21.70  20.00   4.50  4.583  2.560  0.000  2.560  0.000  121.9    0.9  121.0    0.0
 1992 272   110  23.00  21.40   5.30  4.990  1.401  0.000  1.401  0.000  123.3    0.9  122.4    0.0
 1992 273   111  23.30  23.20   6.10  5.216  1.090  0.000  1.090  0.000  124.4    0.9  123.5    0.0
 1992 274   112  22.50  26.20  10.30  5.423  0.924  0.000  0.924  0.000  125.3    0.9  124.4    0.0
 1992 275   113  12.50  26.40  11.00  3.037  0.817  0.000  0.817  0.000  126.1    0.9  125.2    0.0
 1992 276   114  11.80  21.80  13.00  2.753  1.600  0.000  1.600  0.000  127.7    0.9  126.8    0.0
 1992 277   115  17.90  20.60  11.10  4.046  0.776  0.000  0.776  0.000  128.5    0.9  127.6    0.0
 1992 278   116  18.00  25.50  11.70  4.351  0.709  0.000  0.709  0.000  129.2    0.9  128.3    0.0
 1992 279   117   7.10  18.20  11.80  1.564  0.657  0.000  0.657  0.000  129.9    0.9  129.0    0.0
 1992 280   118  24.40  15.90   7.40  4.997  3.939  0.000  3.939  0.000  133.8    0.9  132.9    0.0
 1992 281   119  21.30  15.60   4.20  4.209  2.256  0.000  2.256  0.000  136.1    0.9  135.2    0.0
 1992 282   120  24.30  19.00   3.40  5.008  1.355  0.000  1.355  0.000  137.4    0.9  136.5    0.0
 1992 283   121  24.30  21.00   6.60  5.305  1.069  0.000  1.069  0.000  138.5    0.9  137.6    0.0
 1992 284   122  25.10  25.30   7.30  5.834  0.911  0.000  0.911  0.000  139.4    0.9  138.5    0.0
 1992 285   123  16.70  27.20   9.20  4.038  0.808  0.000  0.808  0.000  140.2    0.9  139.3    0.0
 1992 286   124  22.70  24.00  12.40  5.417  0.733  0.000  0.733  0.000  140.9    0.9  140.0    0.0
 1992 287   125  25.10  25.60   8.60  5.921  0.676  0.000  0.676  0.000  141.6    0.9  140.7    0.0
 1992 288   126  24.70  29.50  11.40  6.248  0.631  0.000  0.631  0.000  142.2    0.9  141.3    0.0
 1992 289   127   7.60  31.50  15.50  2.029  0.593  0.000  0.593  0.000  142.8    0.9  141.9    0.0
 1992 290   128   9.30  20.50  15.70  2.184  2.184  0.000  2.184  0.000  145.0    0.9  144.1    0.0
 1992 291   129  23.40  21.20  12.00  5.372  4.750  0.000  4.750  0.000  149.8    0.9  148.9    0.0
 1992 292   130  25.90  21.20   7.50  5.716  2.689  0.000  2.689  0.000  152.5    0.9  151.6    0.0
 1992 293   131   9.10  19.80  11.20  2.037  1.415  0.000  1.415  0.000  153.9    0.9  153.0    0.0
 1992 294   132  24.10  18.60  10.30  5.266  5.266  0.000  5.266  0.000  159.1    0.9  158.2    0.0
 1992 295   133  26.10  21.30   5.50  5.665  3.692  0.000  3.692  0.000  162.8    0.9  161.9    0.0
 1992 296   134  24.90  24.50   7.60  5.743  1.624  0.000  1.624  0.000  164.4    0.9  163.6    0.0
 1992 297   135  25.00  27.30  12.00  6.191  1.184  0.000  1.184  0.000  165.6    0.9  164.7    0.0
 1992 298   136  24.60  30.90  14.60  6.480  0.979  0.000  0.979  0.000  166.6    0.9  165.7    0.0
 1992 299   137   9.50  26.40  17.60  2.432  0.854  0.000  0.854  0.000  167.5    0.9  166.6    0.0
 1992 300   138  26.70  27.40  17.30  6.899  0.767  0.000  0.767  0.000  168.2    0.9  167.3    0.0
 1992 301   139  27.40  30.00  15.80  7.210  0.703  0.000  0.703  0.000  168.9    0.9  168.0    0.0
 1992 302   140  10.50  15.30   6.40  2.111  1.200  0.000  1.200  0.000  170.1    0.9  169.2    0.0
 1992 303   141  27.70  21.90   3.90  5.974  0.800  0.000  0.800  0.000  170.9    0.9  170.0    0.0
 1992 304   142  26.80  21.80   6.40  5.904  0.687  0.000  0.687  0.000  171.6    0.9  170.7    0.0
 1992 305   143  26.90  23.80   6.80  6.106  0.640  0.000  0.640  0.000  172.3    0.9  171.4    0.0
 1992 306   144  27.10  27.10   9.00  6.534  0.601  0.000  0.601  0.000  172.9    0.9  172.0    0.0
 1992 307   145  27.30  30.20  13.00  7.049  0.568  0.000  0.568  0.000  173.4    0.9  172.5    0.0
 1992 308   146  21.90  19.80   9.40  4.824  4.824  0.000  4.824  0.000  178.3    0.9  177.4    0.0
 1992 309   147  27.20  14.10   6.50  5.377  3.697  0.000  3.697  0.000  182.0    0.9  181.1    0.0
 1992 310   148  24.50  16.40   2.70  4.827  1.792  0.000  1.792  0.000  183.7    0.9  182.9    0.0
 1992 311   149  27.00  19.20   4.80  5.655  1.241  0.000  1.241  0.000  185.0    0.9  184.1    0.0
 1992 312   150  27.40  21.50   7.30  6.060  1.011  0.000  1.011  0.000  186.0    0.9  185.1    0.0
 1992 313   151  28.00  25.20   8.30  6.555  0.875  0.000  0.875  0.000  186.9    0.9  186.0    0.0
 1992 314   152  28.20  29.80  10.00  7.081  0.782  0.000  0.782  0.000  187.7    0.9  186.8    0.0
 1992 315   153   8.60  22.00  16.00  2.063  0.714  0.000  0.714  0.000  188.4    0.9  187.5    0.0
 1992 316   154  23.60  28.40  16.10  6.112  3.200  0.000  3.200  0.000  191.6    0.9  190.7    0.0
 1992 317   155  28.00  29.50  15.30  7.299  0.721  0.000  0.721  0.000  192.3    0.9  191.4    0.0
 1992 318   156  28.50  27.90  12.90  7.159  0.666  0.000  0.666  0.000  193.0    0.9  192.1    0.0
 1992 319   157  19.40  31.40  14.40  5.132  0.623  0.000  0.623  0.000  193.6    0.9  192.7    0.0
 1992 320   158  23.00  25.50  17.30  5.814  5.814  0.000  5.814  0.000  199.4    0.9  198.5    0.0
 1992 321   159  28.80  20.40  11.50  6.515  3.984  0.000  3.984  0.000  203.4    0.9  202.5    0.0
 1992 322   160  28.20  21.50   7.70  6.260  1.367  0.000  1.367  0.000  204.7    0.9  203.8    0.0
 1992 323   161  28.80  23.90   7.20  6.569  1.074  0.000  1.074  0.000  205.8    0.9  204.9    0.0
 1992 324   162  29.50  28.10  11.20  7.328  0.915  0.000  0.915  0.000  206.7    0.9  205.8    0.0
 1992 325   163  22.20  30.00  13.80  5.754  0.810  0.000  0.810  0.000  207.5    0.9  206.6    0.0
 1992 326   164   8.70  21.20  13.60  2.025  0.735  0.000  0.735  0.000  208.3    0.9  207.4    0.0
 1992 327   165  25.70  19.30  10.00  5.654  0.678  0.000  0.678  0.000  209.0    0.9  208.1    0.0
 1992 328   166  22.10  20.60   6.40  4.790  0.632  0.000  0.632  0.000  209.6    0.9  208.7    0.0
 1992 329   167  24.00  26.00  11.10  5.808  0.594  0.000  0.594  0.000  210.2    0.9  209.3    0.0
 1992 330   168  21.90  23.90  15.40  5.350  0.563  0.000  0.563  0.000  210.7    0.9  209.8    0.0
 1992 331   169  19.00  26.00  14.30  4.718  0.536  0.000  0.536  0.000  211.3    0.9  210.4    0.0
 1992 332   170  30.10  27.20  12.90  7.498  0.512  0.000  0.512  0.000  211.8    0.9  210.9    0.0
 1992 333   171  21.00  27.70  13.50  5.287  0.492  0.000  0.492  0.000  212.3    0.9  211.4    0.0
 1992 334   172  19.80  29.80  16.90  5.241  0.473  0.000  0.473  0.000  212.8    0.9  211.9    0.0
 1992 335   173  21.90  28.00  18.70  5.758  5.758  0.000  5.758  0.000  218.5    0.9  217.6    0.0
 1992 336   174  29.50  23.90  14.00  7.125  4.372  0.000  4.372  0.000  222.9    0.9  222.0    0.0
 1992 337   175  30.20  24.80   8.90  7.070  1.284  0.000  1.284  0.000  224.2    0.9  223.3    0.0
 1992 338   176  26.20  27.40   9.70  6.377  1.033  0.000  1.033  0.000  225.2    0.9  224.3    0.0
