*GROWTH ASPECTS OUTPUT FILE

*DSSAT Cropping System Model Ver. 4.0.2.000               Aug 15, 2016; 15:31:22

*RUN   1        : UYMZ                    
 MODEL          : MZCER040 - Maize           
 EXPERIMENT     : UYMZ0199 MZ    late to create DSS                             
 TREATMENT  1   : UYMZ                    

@YEAR DOY   DAS   DAP   L#SD   GSTD   LAID   LWAD   SWAD   GWAD   RWAD   CWAD   G#AD   GWGD   HIAD   PWAD   P#AD   WSPD   WSGD   NSTD   EWSD   LN%D   SH%D   HIPD   PWDD   PWTD     SLAD   CHTD   CWID   RDPD   RL1D   RL2D   RL3D   RL4D   RL5D   RL6D   RL7D   RL8D   RL9D   RL10   CDAD   LDAD   SDAD   SNW0C   SNW1C
 1990 165     3     0    0.0      0   0.00      0      0      0      0      0      0    0.0  0.000      0      0  0.000  0.000  0.000  0.000   0.00   0.00   0.00      0      0      0.0   0.00   0.00   0.03   0.00   0.00   0.00   0.00   0.00   0.00   0.00   0.00   0.00   0.00      0      0      0       0       0
 1990 166     4     1    0.0      0   0.00      0      0      0      0      0      0    0.0  0.000      0      0  0.000  0.000  0.000  0.000   0.00   0.00   0.00      0      0      0.0   0.00   0.00   0.03   0.00   0.00   0.00   0.00   0.00   0.00   0.00   0.00   0.00   0.00      0      0      0       0       0
 1990 167     5     2    0.0      0   0.00      0      0      0      0      0      0    0.0  0.000      0      0  0.000  0.000  0.000  0.000   0.00   0.00   0.00      0      0      0.0   0.00   0.00   0.03   0.00   0.00   0.00   0.00   0.00   0.00   0.00   0.00   0.00   0.00      0      0      0       0       0
 1990 168     6     3    0.0      0   0.00      0      0      0      0      0      0    0.0  0.000      0      0  0.000  0.000  0.000  0.000   0.00   0.00   0.00      0      0      0.0   0.00   0.00   0.04   0.00   0.00   0.00   0.00   0.00   0.00   0.00   0.00   0.00   0.00      0      0      0       0       0
 1990 169     7     4    0.0      0   0.00      0      0      0      0      0      0    0.0  0.000      0      0  0.000  0.000  0.000  0.000   0.00   0.00   0.00      0      0      0.0   0.00   0.00   0.05   0.00   0.00   0.00   0.00   0.00   0.00   0.00   0.00   0.00   0.00      0      0      0       0       0
 1990 170     8     5    0.0      0   0.00      0      0      0      0      0      0    0.0  0.000      0      0  0.000  0.000  0.000  0.000   0.00   0.00   0.00      0      0      0.0   0.00   0.00   0.05   0.00   0.00   0.00   0.00   0.00   0.00   0.00   0.00   0.00   0.00      0      0      0       0       0
 1990 171     9     6    0.0      0   0.00      0      0      0      0      0      0    0.0  0.000      0      0  0.000  0.000  0.000  0.000   0.00   0.00   0.00      0      0      0.0   0.00   0.00   0.05   0.00   0.00   0.00   0.00   0.00   0.00   0.00   0.00   0.00   0.00      0      0      0       0       0
 1990 172    10     7    0.0      0   0.00      0      0      0      0      0      0    0.0  0.000      0      0  0.000  0.000  0.000  0.000   0.00   0.00   0.00      0      0      0.0   0.00   0.00   0.05   0.00   0.00   0.00   0.00   0.00   0.00   0.00   0.00   0.00   0.00      0      0      0       0       0
 1990 173    11     8    0.0      0   0.00      0      0      0      0      0      0    0.0  0.000      0      0  0.000  0.000  0.000  0.000   0.00   0.00   0.00      0      0      0.0   0.00   0.00   0.05   0.00   0.00   0.00   0.00   0.00   0.00   0.00   0.00   0.00   0.00      0      0      0       0       0
 1990 174    12     9    0.0      0   0.00      0      0      0      0      0      0    0.0  0.000      0      0  0.000  0.000  0.000  0.000   0.00   0.00   0.00      0      0      0.0   0.00   0.00   0.05   0.00   0.00   0.00   0.00   0.00   0.00   0.00   0.00   0.00   0.00      0      0      0       0       0
 1990 175    13    10    0.0      0   0.00      0      0      0      0      0      0    0.0  0.000      0      0  0.000  0.000  0.000  0.000   0.00   0.00   0.00      0      0      0.0   0.00   0.00   0.06   0.00   0.00   0.00   0.00   0.00   0.00   0.00   0.00   0.00   0.00      0      0      0       0       0
 1990 176    14    11    0.0      0   0.00      0      0      0      0      0      0    0.0  0.000      0      0  0.000  0.000  0.000  0.000   0.00   0.00   0.00      0      0      0.0   0.00   0.00   0.06   0.00   0.00   0.00   0.00   0.00   0.00   0.00   0.00   0.00   0.00      0      0      0       0       0
 1990 177    15    12    0.0      0   0.00      0      0      0      0      0      0    0.0  0.000      0      0  0.000  0.000  0.000  0.000   0.00   0.00   0.00      0      0      0.0   0.00   0.00   0.06   0.00   0.00   0.00   0.00   0.00   0.00   0.00   0.00   0.00   0.00      0      0      0       0       0
 1990 178    16    13    0.0      0   0.00      0      0      0      0      0      0    0.0  0.000      0      0  0.000  0.000  0.000  0.000   0.00   0.00   0.00      0      0      0.0   0.00   0.00   0.07   0.00   0.00   0.00   0.00   0.00   0.00   0.00   0.00   0.00   0.00      0      0      0       0       0
 1990 179    17    14    0.0      0   0.00      0      0      0      0      0      0    0.0  0.000      0      0  0.000  0.000  0.000  0.000   0.00   0.00   0.00      0      0      0.0   0.00   0.00   0.07   0.00   0.00   0.00   0.00   0.00   0.00   0.00   0.00   0.00   0.00      0      0      0       0       0
 1990 180    18    15    0.0      0   0.00      0      0      0      0      0      0    0.0  0.000      0      0  0.000  0.000  0.000  0.000   0.00   0.00   0.00      0      0      0.0   0.00   0.00   0.08   0.00   0.00   0.00   0.00   0.00   0.00   0.00   0.00   0.00   0.00      0      0      0       0       0
 1990 181    19    16    0.0      0   0.00      0      0      0      0      0      0    0.0  0.000      0      0  0.000  0.000  0.000  0.000   0.00   0.00   0.00      0      0      0.0   0.00   0.00   0.09   0.00   0.00   0.00   0.00   0.00   0.00   0.00   0.00   0.00   0.00      0      0      0       0       0
 1990 182    20    17    0.0      0   0.00      0      0      0      0      0      0    0.0  0.000      0      0  0.000  0.000  0.000  0.000   0.00   0.00   0.00      0      0      0.0   0.00   0.00   0.10   0.00   0.00   0.00   0.00   0.00   0.00   0.00   0.00   0.00   0.00      0      0      0       0       0
 1990 183    21    18    0.0      0   0.00      0      0      0      0      0      0    0.0  0.000      0      0  0.000  0.000  0.000  0.000   0.00   0.00   0.00      0      0      0.0   0.00   0.00   0.10   0.00   0.00   0.00   0.00   0.00   0.00   0.00   0.00   0.00   0.00      0      0      0       0       0
 1990 184    22    19    0.0      0   0.00      0      0      0      0      0      0    0.0  0.000      0      0  0.000  0.000  0.000  0.000   0.00   0.00   0.00      0      0      0.0   0.00   0.00   0.11   0.00   0.00   0.00   0.00   0.00   0.00   0.00   0.00   0.00   0.00      0      0      0       0       0
 1990 185    23    20    1.0      1   0.00     14     14      0     14     28      0    0.0  0.000      0      0  0.000  0.000  0.012  0.000   4.40   0.00   0.00      0      0     11.4   0.00   0.00   0.11   0.28   0.08   0.00   0.00   0.00   0.00   0.00   0.00   0.00   0.00      0      0      0       0       0
 1990 186    24    21    1.0      1   0.00     14     14      0     14     28      0    0.0  0.000      0      0  0.000  0.000  0.018  0.000   4.55   0.00   0.00      0      0     21.9   0.00   0.00   0.12   0.28   0.08   0.00   0.00   0.00   0.00   0.00   0.00   0.00   0.00      0      0      0       0       0
 1990 187    25    22    2.0      1   0.00     14     14      0     14     28      0    0.0  0.000      0      0  0.000  0.000  0.000  0.000   4.55   0.00   0.00      0      0     35.5   0.00   0.00   0.13   0.28   0.08   0.00   0.00   0.00   0.00   0.00   0.00   0.00   0.00      0      0      0       0       0
 1990 188    26    23    2.0      1   0.01     14     14      0     14     28      0    0.0  0.000      0      0  0.000  0.000  0.000  0.000   4.55   0.00   0.00      0      0     44.9   0.00   0.00   0.13   0.28   0.08   0.00   0.00   0.00   0.00   0.00   0.00   0.00   0.00      0      0      0       0       0
 1990 189    27    24    2.0      1   0.01     14     14      0     14     28      0    0.0  0.000      0      0  0.000  0.000  0.000  0.000   4.55   0.00   0.00      0      0     60.8   0.00   0.00   0.14   0.28   0.08   0.00   0.00   0.00   0.00   0.00   0.00   0.00   0.00      0      0      0       0       0
 1990 190    28    25    2.0      1   0.01     14     14      0     15     28      0    0.0  0.000      0      0  0.000  0.000  0.000  0.000   4.55   0.00   0.00      0      0     73.0   0.00   0.00   0.15   0.28   0.09   0.00   0.00   0.00   0.00   0.00   0.00   0.00   0.00      0      0      0       0       0
 1990 191    29    26    3.0      1   0.01     14     14      0     15     28      0    0.0  0.000      0      0  0.000  0.000  0.000  0.000   4.55   0.00   0.00      0      0     77.4   0.00   0.00   0.15   0.28   0.09   0.00   0.00   0.00   0.00   0.00   0.00   0.00   0.00      0      0      0       0       0
 1990 192    30    27    3.0      1   0.01     14     14      0     16     28      0    0.0  0.000      0      0  0.000  0.000  0.000  0.000   4.46   0.00   0.00      0      0     85.7   0.00   0.00   0.16   0.30   0.11   0.00   0.00   0.00   0.00   0.00   0.00   0.00   0.00      0      0      0       0       0
 1990 193    31    28    3.0      1   0.01     14     14      0     17     28      0    0.0  0.000      0      0  0.000  0.000  0.000  0.000   4.45   0.00   0.00      0      0     88.8   0.00   0.00   0.16   0.31   0.12   0.00   0.00   0.00   0.00   0.00   0.00   0.00   0.00      0      0      0       0       0
 1990 194    32    29    3.0      1   0.01     14     14      0     18     28      0    0.0  0.000      0      0  0.000  0.000  0.000  0.000   4.44   0.00   0.00      0      0    100.8   0.00   0.00   0.16   0.32   0.14   0.00   0.00   0.00   0.00   0.00   0.00   0.00   0.00      0      0      0       0       0
 1990 195    33    30    3.0      1   0.02     14     14      0     20     28      0    0.0  0.000      0      0  0.000  0.000  0.000  0.000   4.42   0.00   0.00      0      0    113.9   0.00   0.00   0.17   0.33   0.15   0.00   0.00   0.00   0.00   0.00   0.00   0.00   0.00      0      0      0       0       0
 1990 196    34    31    3.0      1   0.02     14     14      0     20     28      0    0.0  0.000      0      0  0.000  0.000  0.000  0.000   4.41   0.00   0.00      0      0    130.8   0.00   0.00   0.18   0.34   0.16   0.00   0.00   0.00   0.00   0.00   0.00   0.00   0.00      0      0      0       0       0
 1990 197    35    32    4.0      1   0.02     14     14      0     21     28      0    0.0  0.000      0      0  0.000  0.000  0.000  0.000   4.39   0.00   0.00      0      0    166.5   0.00   0.00   0.18   0.33   0.16   0.00   0.00   0.00   0.00   0.00   0.00   0.00   0.00      0      0      0       0       1
 1990 198    36    33    4.0      1   0.03     14     14      0     22     28      0    0.0  0.000      0      0  0.000  0.000  0.000  0.168   4.38   0.00   0.00      0      0    197.4   0.00   0.00   0.19   0.34   0.18   0.01   0.00   0.00   0.00   0.00   0.00   0.00   0.00      0      0      0       0       1
 1990 199    37    34    4.0      1   0.02     14     14      0     23     28      0    0.0  0.000      0      0  0.000  0.000  0.000  0.241   4.38   0.00   0.00      0      0    160.3   0.00   0.00   0.19   0.33   0.18   0.01   0.00   0.00   0.00   0.00   0.00   0.00   0.00      0      0      0       0       1
 1990 200    38    35    4.0      1   0.01     14     14      0     23     28      0    0.0  0.000      0      0  0.000  0.000  0.000  0.173   4.38   0.00   0.00      0      0     57.7   0.00   0.00   0.19   0.33   0.18   0.01   0.00   0.00   0.00   0.00   0.00   0.00   0.00      0      0      0       0       1
 1990 201    39    36    4.0      1   0.00     14     14      0     23     28      0    0.0  0.000      0      0  0.000  0.000  0.000  0.003   4.38   0.00   0.00      0      0     27.8   0.00   0.00   0.19   0.33   0.18   0.01   0.00   0.00   0.00   0.00   0.00   0.00   0.00      0      0      0       0       1
 1990 202    40    37    4.0      1   0.00     14     14      0     23     28      0    0.0  0.000      0      0  0.000  0.000  0.000  0.000   4.38   0.00   0.00      0      0     14.2   0.00   0.00   0.19   0.33   0.18   0.01   0.00   0.00   0.00   0.00   0.00   0.00   0.00      0      0      0       0       1
 1990 203    41    38    4.0      1   0.00     14     14      0     22     28      0    0.0  0.000      0      0  0.000  0.000  0.000  0.000   4.38   0.00   0.00      0      0      0.0   0.00   0.00   0.19   0.33   0.18   0.01   0.00   0.00   0.00   0.00   0.00   0.00   0.00      0      0      0       0       1
 1990 204    42    39    4.0      1   0.00     14     14      0     22     28      0    0.0  0.000      0      0  0.000  0.000  0.000  0.000   4.38   0.00   0.00      0      0      3.9   0.00   0.00   0.19   0.33   0.18   0.01   0.00   0.00   0.00   0.00   0.00   0.00   0.00      0      0      0       0       1
 1990 205    43    40    4.0      1   0.00     14     14      0     22     28      0    0.0  0.000      0      0  0.000  0.000  0.000  0.000   4.38   0.00   0.00      0      0     14.7   0.00   0.00   0.19   0.33   0.18   0.01   0.00   0.00   0.00   0.00   0.00   0.00   0.00      0      0      0       0       1
 1990 206    44    41    4.0      1   0.00     14     14      0     22     28      0    0.0  0.000      0      0  0.000  0.000  0.000  0.000   4.38   0.00   0.00      0      0      7.5   0.00   0.00   0.19   0.33   0.18   0.01   0.00   0.00   0.00   0.00   0.00   0.00   0.00      0      0      0       0       1
 1990 207    45    42    4.0      1   0.00     14     14      0     22     28      0    0.0  0.000      0      0  0.000  0.000  0.000  0.000   4.38   0.00   0.00      0      0     13.5   0.00   0.00   0.19   0.33   0.18   0.01   0.00   0.00   0.00   0.00   0.00   0.00   0.00      0      0      0       0       1
 1990 208    46    43    4.0      1   0.00     14     14      0     22     28      0    0.0  0.000      0      0  0.000  0.000  0.000  0.000   4.38   0.00   0.00      0      0     24.9   0.00   0.00   0.19   0.33   0.18   0.01   0.00   0.00   0.00   0.00   0.00   0.00   0.00      0      0      0       0       1
 1990 209    47    44    4.0      1   0.00     14     14      0     22     28      0    0.0  0.000      0      0  0.000  0.000  0.000  0.000   4.38   0.00   0.00      0      0     18.9   0.00   0.00   0.19   0.32   0.18   0.01   0.00   0.00   0.00   0.00   0.00   0.00   0.00      0      0      0       0       1
 1990 210    48    45    4.0      1   0.00     14     14      0     22     28      0    0.0  0.000      0      0  0.000  0.000  0.000  0.000   4.38   0.00   0.00      0      0     11.7   0.00   0.00   0.19   0.32   0.18   0.01   0.00   0.00   0.00   0.00   0.00   0.00   0.00      0      0      0       0       1
 1990 211    49    46    4.0      1   0.00     14     14      0     22     28      0    0.0  0.000      0      0  0.000  0.000  0.000  0.000   4.38   0.00   0.00      0      0      8.1   0.00   0.00   0.19   0.32   0.17   0.01   0.00   0.00   0.00   0.00   0.00   0.00   0.00      0      0      0       0       1
 1990 212    50    47    4.0      1   0.00     14     14      0     22     28      0    0.0  0.000      0      0  0.000  0.000  0.000  0.000   4.38   0.00   0.00      0      0      6.7   0.00   0.00   0.19   0.32   0.17   0.01   0.00   0.00   0.00   0.00   0.00   0.00   0.00      0      0      0       0       1
 1990 213    51    48    4.0      6   0.00     14     14      0     22     28      0    0.0  0.000      0      0  0.000  0.000  0.000  0.000   4.38   0.00   0.00      0      0     33.4   0.00   0.00   0.20   0.32   0.17   0.01   0.00   0.00   0.00   0.00   0.00   0.00   0.00      0      0      0       0       1

*DSSAT Cropping System Model Ver. 4.0.2.000               Aug 15, 2016; 15:31:22

*RUN   2        : UYMZ                    
 MODEL          : MZCER040 - Maize           
 EXPERIMENT     : UYMZ0199 MZ    late to create DSS                             
 TREATMENT  1   : UYMZ                    

@YEAR DOY   DAS   DAP   L#SD   GSTD   LAID   LWAD   SWAD   GWAD   RWAD   CWAD   G#AD   GWGD   HIAD   PWAD   P#AD   WSPD   WSGD   NSTD   EWSD   LN%D   SH%D   HIPD   PWDD   PWTD     SLAD   CHTD   CWID   RDPD   RL1D   RL2D   RL3D   RL4D   RL5D   RL6D   RL7D   RL8D   RL9D   RL10   CDAD   LDAD   SDAD   SNW0C   SNW1C
 1991 165     3     0    0.0      0   0.00      0      0      0      0      0      0    0.0  0.000      0      0  0.000  0.000  0.000  0.000   0.00   0.00   0.00      0      0      0.0   0.00   0.00   0.03   0.00   0.00   0.00   0.00   0.00   0.00   0.00   0.00   0.00   0.00      0      0      0       0       0
 1991 166     4     1    0.0      0   0.00      0      0      0      0      0      0    0.0  0.000      0      0  0.000  0.000  0.000  0.000   0.00   0.00   0.00      0      0      0.0   0.00   0.00   0.04   0.00   0.00   0.00   0.00   0.00   0.00   0.00   0.00   0.00   0.00      0      0      0       0       0
 1991 167     5     2    0.0      0   0.00      0      0      0      0      0      0    0.0  0.000      0      0  0.000  0.000  0.000  0.000   0.00   0.00   0.00      0      0      0.0   0.00   0.00   0.04   0.00   0.00   0.00   0.00   0.00   0.00   0.00   0.00   0.00   0.00      0      0      0       0       0
 1991 168     6     3    0.0      0   0.00      0      0      0      0      0      0    0.0  0.000      0      0  0.000  0.000  0.000  0.000   0.00   0.00   0.00      0      0      0.0   0.00   0.00   0.06   0.00   0.00   0.00   0.00   0.00   0.00   0.00   0.00   0.00   0.00      0      0      0       0       0
 1991 169     7     4    0.0      0   0.00      0      0      0      0      0      0    0.0  0.000      0      0  0.000  0.000  0.000  0.000   0.00   0.00   0.00      0      0      0.0   0.00   0.00   0.07   0.00   0.00   0.00   0.00   0.00   0.00   0.00   0.00   0.00   0.00      0      0      0       0       0
 1991 170     8     5    0.0      0   0.00      0      0      0      0      0      0    0.0  0.000      0      0  0.000  0.000  0.000  0.000   0.00   0.00   0.00      0      0      0.0   0.00   0.00   0.08   0.00   0.00   0.00   0.00   0.00   0.00   0.00   0.00   0.00   0.00      0      0      0       0       0
 1991 171     9     6    0.0      0   0.00      0      0      0      0      0      0    0.0  0.000      0      0  0.000  0.000  0.000  0.000   0.00   0.00   0.00      0      0      0.0   0.00   0.00   0.08   0.00   0.00   0.00   0.00   0.00   0.00   0.00   0.00   0.00   0.00      0      0      0       0       0
 1991 172    10     7    0.0      0   0.00      0      0      0      0      0      0    0.0  0.000      0      0  0.000  0.000  0.000  0.000   0.00   0.00   0.00      0      0      0.0   0.00   0.00   0.08   0.00   0.00   0.00   0.00   0.00   0.00   0.00   0.00   0.00   0.00      0      0      0       0       0
 1991 173    11     8    0.0      0   0.00      0      0      0      0      0      0    0.0  0.000      0      0  0.000  0.000  0.000  0.000   0.00   0.00   0.00      0      0      0.0   0.00   0.00   0.08   0.00   0.00   0.00   0.00   0.00   0.00   0.00   0.00   0.00   0.00      0      0      0       0       0
 1991 174    12     9    0.0      0   0.00      0      0      0      0      0      0    0.0  0.000      0      0  0.000  0.000  0.000  0.000   0.00   0.00   0.00      0      0      0.0   0.00   0.00   0.08   0.00   0.00   0.00   0.00   0.00   0.00   0.00   0.00   0.00   0.00      0      0      0       0       0
 1991 175    13    10    0.0      0   0.00      0      0      0      0      0      0    0.0  0.000      0      0  0.000  0.000  0.000  0.000   0.00   0.00   0.00      0      0      0.0   0.00   0.00   0.09   0.00   0.00   0.00   0.00   0.00   0.00   0.00   0.00   0.00   0.00      0      0      0       0       0
 1991 176    14    11    0.0      0   0.00      0      0      0      0      0      0    0.0  0.000      0      0  0.000  0.000  0.000  0.000   0.00   0.00   0.00      0      0      0.0   0.00   0.00   0.09   0.00   0.00   0.00   0.00   0.00   0.00   0.00   0.00   0.00   0.00      0      0      0       0       0
 1991 177    15    12    0.0      0   0.00      0      0      0      0      0      0    0.0  0.000      0      0  0.000  0.000  0.000  0.000   0.00   0.00   0.00      0      0      0.0   0.00   0.00   0.10   0.00   0.00   0.00   0.00   0.00   0.00   0.00   0.00   0.00   0.00      0      0      0       0       0
 1991 178    16    13    0.0      0   0.00      0      0      0      0      0      0    0.0  0.000      0      0  0.000  0.000  0.000  0.000   0.00   0.00   0.00      0      0      0.0   0.00   0.00   0.11   0.00   0.00   0.00   0.00   0.00   0.00   0.00   0.00   0.00   0.00      0      0      0       0       0
 1991 179    17    14    0.0      0   0.00      0      0      0      0      0      0    0.0  0.000      0      0  0.000  0.000  0.000  0.000   0.00   0.00   0.00      0      0      0.0   0.00   0.00   0.11   0.00   0.00   0.00   0.00   0.00   0.00   0.00   0.00   0.00   0.00      0      0      0       0       0
 1991 180    18    15    0.0      0   0.00      0      0      0      0      0      0    0.0  0.000      0      0  0.000  0.000  0.000  0.000   0.00   0.00   0.00      0      0      0.0   0.00   0.00   0.11   0.00   0.00   0.00   0.00   0.00   0.00   0.00   0.00   0.00   0.00      0      0      0       0       0
 1991 181    19    16    0.0      0   0.00      0      0      0      0      0      0    0.0  0.000      0      0  0.000  0.000  0.000  0.000   0.00   0.00   0.00      0      0      0.0   0.00   0.00   0.12   0.00   0.00   0.00   0.00   0.00   0.00   0.00   0.00   0.00   0.00      0      0      0       0       0
 1991 182    20    17    1.0      1   0.00     14     14      0     14     28      0    0.0  0.000      0      0  0.000  0.000  0.012  0.000   4.40   0.00   0.00      0      0     12.2   0.00   0.00   0.12   0.28   0.10   0.00   0.00   0.00   0.00   0.00   0.00   0.00   0.00      0      0      0       0       0
 1991 183    21    18    1.0      1   0.00     14     14      0     14     28      0    0.0  0.000      0      0  0.000  0.000  0.019  0.000   4.56   0.00   0.00      0      0     18.4   0.00   0.00   0.13   0.28   0.10   0.00   0.00   0.00   0.00   0.00   0.00   0.00   0.00      0      0      0       0       0
 1991 184    22    19    1.0      1   0.00     14     14      0     14     28      0    0.0  0.000      0      0  0.000  0.000  0.000  0.000   4.56   0.00   0.00      0      0     18.3   0.00   0.00   0.13   0.28   0.10   0.00   0.00   0.00   0.00   0.00   0.00   0.00   0.00      0      0      0       0       0
 1991 185    23    20    1.0      1   0.00     14     14      0     14     28      0    0.0  0.000      0      0  0.000  0.000  0.000  0.000   4.56   0.00   0.00      0      0     12.1   0.00   0.00   0.13   0.27   0.10   0.00   0.00   0.00   0.00   0.00   0.00   0.00   0.00      0      0      0       0       0
 1991 186    24    21    1.0      1   0.00     14     14      0     14     28      0    0.0  0.000      0      0  0.000  0.000  0.000  0.000   4.56   0.00   0.00      0      0      5.3   0.00   0.00   0.13   0.27   0.10   0.00   0.00   0.00   0.00   0.00   0.00   0.00   0.00      0      0      0       0       0
 1991 187    25    22    2.0      1   0.00     14     14      0     14     28      0    0.0  0.000      0      0  0.000  0.000  0.000  0.000   4.56   0.00   0.00      0      0     10.4   0.00   0.00   0.13   0.27   0.10   0.00   0.00   0.00   0.00   0.00   0.00   0.00   0.00      0      0      0       0       0
 1991 188    26    23    2.0      1   0.00     14     14      0     14     28      0    0.0  0.000      0      0  0.000  0.000  0.000  0.000   4.56   0.00   0.00      0      0     14.4   0.00   0.00   0.14   0.27   0.10   0.00   0.00   0.00   0.00   0.00   0.00   0.00   0.00      0      0      0       0       0
 1991 189    27    24    2.0      1   0.00     14     14      0     14     28      0    0.0  0.000      0      0  0.000  0.000  0.000  0.000   4.56   0.00   0.00      0      0     21.5   0.00   0.00   0.14   0.27   0.10   0.00   0.00   0.00   0.00   0.00   0.00   0.00   0.00      0      0      0       0       0
 1991 190    28    25    2.0      1   0.01     14     14      0     14     28      0    0.0  0.000      0      0  0.000  0.000  0.000  0.000   4.56   0.00   0.00      0      0     38.8   0.00   0.00   0.15   0.27   0.10   0.00   0.00   0.00   0.00   0.00   0.00   0.00   0.00      0      0      0       0       0
 1991 191    29    26    2.0      1   0.01     14     14      0     14     28      0    0.0  0.000      0      0  0.000  0.000  0.000  0.000   4.56   0.00   0.00      0      0     40.5   0.00   0.00   0.15   0.25   0.09   0.00   0.00   0.00   0.00   0.00   0.00   0.00   0.00      0      0      0       0       0
 1991 192    30    27    2.0      1   0.00     14     14      0     14     28      0    0.0  0.000      0      0  0.000  0.000  0.000  0.000   4.56   0.00   0.00      0      0     34.4   0.00   0.00   0.15   0.25   0.09   0.00   0.00   0.00   0.00   0.00   0.00   0.00   0.00      0      0      0       0       0
 1991 193    31    28    2.0      1   0.00     14     14      0     14     28      0    0.0  0.000      0      0  0.000  0.000  0.000  0.037   4.56   0.00   0.00      0      0     25.8   0.00   0.00   0.15   0.25   0.09   0.00   0.00   0.00   0.00   0.00   0.00   0.00   0.00      0      0      0       0       0
 1991 194    32    29    2.0      1   0.00     14     14      0     14     28      0    0.0  0.000      0      0  0.000  0.000  0.000  0.000   4.56   0.00   0.00      0      0     12.8   0.00   0.00   0.15   0.25   0.09   0.00   0.00   0.00   0.00   0.00   0.00   0.00   0.00      0      0      0       0       0
 1991 195    33    30    2.0      1   0.00     14     14      0     14     28      0    0.0  0.000      0      0  0.000  0.000  0.000  0.000   4.56   0.00   0.00      0      0      5.2   0.00   0.00   0.15   0.24   0.09   0.00   0.00   0.00   0.00   0.00   0.00   0.00   0.00      0      0      0       0       0
 1991 196    34    31    2.0      1   0.00     14     14      0     14     28      0    0.0  0.000      0      0  0.000  0.000  0.000  0.000   4.56   0.00   0.00      0      0      1.9   0.00   0.00   0.15   0.24   0.09   0.00   0.00   0.00   0.00   0.00   0.00   0.00   0.00      0      0      0       0       0
 1991 197    35    32    2.0      1   0.00     14     14      0     14     28      0    0.0  0.000      0      0  0.000  0.000  0.000  0.000   4.56   0.00   0.00      0      0      7.7   0.00   0.00   0.15   0.24   0.09   0.00   0.00   0.00   0.00   0.00   0.00   0.00   0.00      0      0      0       0       0
 1991 198    36    33    3.0      1   0.00     14     14      0     14     28      0    0.0  0.000      0      0  0.000  0.000  0.000  0.000   4.56   0.00   0.00      0      0     24.1   0.00   0.00   0.16   0.24   0.09   0.00   0.00   0.00   0.00   0.00   0.00   0.00   0.00      0      0      0       0       0
 1991 199    37    34    3.0      1   0.00     14     14      0     14     28      0    0.0  0.000      0      0  0.000  0.000  0.000  0.000   4.56   0.00   0.00      0      0     33.9   0.00   0.00   0.17   0.22   0.09   0.00   0.00   0.00   0.00   0.00   0.00   0.00   0.00      0      0      0       0       0
 1991 200    38    35    3.0      1   0.01     14     14      0     14     28      0    0.0  0.000      0      0  0.000  0.000  0.000  0.000   4.56   0.00   0.00      0      0     39.3   0.00   0.00   0.17   0.21   0.08   0.00   0.00   0.00   0.00   0.00   0.00   0.00   0.00      0      0      0       0       0
 1991 201    39    36    3.0      1   0.01     14     14      0     15     28      0    0.0  0.000      0      0  0.000  0.000  0.000  0.183   4.56   0.00   0.00      0      0     59.4   0.00   0.00   0.18   0.19   0.08   0.00   0.00   0.00   0.00   0.00   0.00   0.00   0.00      0      0      0       0       0
 1991 202    40    37    3.0      1   0.01     14     14      0     15     28      0    0.0  0.000      0      0  0.000  0.000  0.000  0.311   4.56   0.00   0.00      0      0     63.2   0.00   0.00   0.18   0.18   0.08   0.00   0.00   0.00   0.00   0.00   0.00   0.00   0.00      0      0      0       0       0
 1991 203    41    38    3.0      1   0.01     14     14      0     15     28      0    0.0  0.000      0      0  0.000  0.000  0.000  0.504   4.56   0.00   0.00      0      0     63.2   0.00   0.00   0.18   0.16   0.07   0.00   0.00   0.00   0.00   0.00   0.00   0.00   0.00      0      0      0       0       0
 1991 204    42    39    3.0      1   0.01     14     14      0     15     28      0    0.0  0.000      0      0  0.000  0.000  0.000  0.342   4.56   0.00   0.00      0      0     62.6   0.00   0.00   0.18   0.15   0.07   0.00   0.00   0.00   0.00   0.00   0.00   0.00   0.00      0      0      0       0       0
 1991 205    43    40    3.0      1   0.01     14     14      0     15     28      0    0.0  0.000      0      0  0.000  0.000  0.000  0.200   4.56   0.00   0.00      0      0     57.5   0.00   0.00   0.19   0.14   0.07   0.01   0.00   0.00   0.00   0.00   0.00   0.00   0.00      0      0      0       0       0
 1991 206    44    41    3.0      1   0.01     14     14      0     16     28      0    0.0  0.000      0      0  0.000  0.000  0.000  0.024   4.56   0.00   0.00      0      0     56.8   0.00   0.00   0.19   0.14   0.07   0.01   0.00   0.00   0.00   0.00   0.00   0.00   0.00      0      0      0       0       0
 1991 207    45    42    4.0      1   0.02     14     14      0     17     28      0    0.0  0.000      0      0  0.000  0.000  0.000  0.019   4.56   0.00   0.00      0      0    127.2   0.00   0.00   0.20   0.14   0.07   0.02   0.00   0.00   0.00   0.00   0.00   0.00   0.00      0      0      0       0       0
 1991 208    46    43    4.0      1   0.03     14     14      0     19     28      0    0.0  0.000      0      0  0.000  0.000  0.000  0.009   4.35   0.00   0.00      0      0    228.0   0.00   0.00   0.21   0.13   0.08   0.04   0.00   0.00   0.00   0.00   0.00   0.00   0.00      0      0      0       0       0
 1991 209    47    44    4.0      1   0.05     18     14      0     21     32      0    0.0  0.000      0      0  0.000  0.000  0.000  0.000   3.76   0.00   0.00      0      0    274.8   0.00   0.00   0.22   0.13   0.09   0.06   0.00   0.00   0.00   0.00   0.00   0.00   0.00      0      0      0       0       0
 1991 210    48    45    5.0      1   0.07     26     14      0     22     40      0    0.0  0.000      0      0  0.000  0.000  0.000  0.000   3.43   0.00   0.00      0      0    268.1   0.00   0.00   0.23   0.13   0.10   0.07   0.00   0.00   0.00   0.00   0.00   0.00   0.00      0      0      0       0       0
 1991 211    49    46    5.0      1   0.08     31     14      0     22     45      0    0.0  0.000      0      0  0.000  0.000  0.000  0.000   3.85   0.00   0.00      0      0    264.2   0.00   0.00   0.24   0.13   0.10   0.08   0.00   0.00   0.00   0.00   0.00   0.00   0.00      0      0      0       0       0
 1991 212    50    47    5.0      1   0.09     33     14      0     26     47      0    0.0  0.000      0      0  0.000  0.000  0.000  0.000   4.08   0.00   0.00      0      0    262.0   0.00   0.00   0.24   0.12   0.11   0.11   0.00   0.00   0.00   0.00   0.00   0.00   0.00      0      0      0       0       1
 1991 213    51    48    5.0      1   0.06     33     14      0     26     47      0    0.0  0.000      0      0  0.000  0.000  0.000  0.000   4.08   0.00   0.00      0      0    182.7   0.00   0.00   0.24   0.12   0.11   0.11   0.00   0.00   0.00   0.00   0.00   0.00   0.00      0      0      0       0       1
 1991 214    52    49    5.0      1   0.02     33     14      0     27     47      0    0.0  0.000      0      0  0.000  0.000  0.024  0.135   4.27   0.00   0.00      0      0     71.6   0.00   0.00   0.24   0.12   0.11   0.11   0.00   0.00   0.00   0.00   0.00   0.00   0.00      0      0      0       0       1
 1991 215    53    50    5.0      1   0.01     33     14      0     27     47      0    0.0  0.000      0      0  0.000  0.000  0.000  0.294   4.25   0.00   0.00      0      0     37.8   0.00   0.00   0.24   0.11   0.10   0.11   0.00   0.00   0.00   0.00   0.00   0.00   0.00      0      0      0       0       1
 1991 216    54    51    5.0      1   0.01     33     14      0     27     47      0    0.0  0.000      0      0  0.000  0.000  0.000  0.331   4.25   0.00   0.00      0      0     36.9   0.00   0.00   0.24   0.10   0.09   0.10   0.00   0.00   0.00   0.00   0.00   0.00   0.00      0      0      0       0       1
 1991 217    55    52    5.0      1   0.01     34     14      0     27     48      0    0.0  0.000      0      0  0.000  0.000  0.001  0.359   4.15   0.00   0.00      0      0     41.7   0.00   0.00   0.25   0.10   0.09   0.10   0.00   0.00   0.00   0.00   0.00   0.00   0.00      0      0      0       0       1
 1991 218    56    53    5.0      1   0.01     34     14      0     27     48      0    0.0  0.000      0      0  0.000  0.000  0.002  0.158   4.15   0.00   0.00      0      0     34.7   0.00   0.00   0.25   0.09   0.09   0.09   0.00   0.00   0.00   0.00   0.00   0.00   0.00      0      0      0       0       1
 1991 219    57    54    5.0      1   0.01     35     14      0     27     49      0    0.0  0.000      0      0  0.000  0.000  0.013  0.095   4.07   0.00   0.00      0      0     34.9   0.00   0.00   0.25   0.09   0.08   0.09   0.00   0.00   0.00   0.00   0.00   0.00   0.00      0      0      0       0       1
 1991 220    58    55    5.0      1   0.02     38     14      0     27     52      0    0.0  0.000      0      0  0.000  0.000  0.012  0.058   3.81   0.00   0.00      0      0     51.4   0.00   0.00   0.25   0.09   0.08   0.09   0.00   0.00   0.00   0.00   0.00   0.00   0.00      0      0      0       0       1
 1991 221    59    56    5.0      1   0.03     42     14      0     27     56      0    0.0  0.000      0      0  0.000  0.000  0.022  0.021   3.92   0.00   0.00      0      0     68.0   0.00   0.00   0.26   0.09   0.08   0.09   0.00   0.00   0.00   0.00   0.00   0.00   0.00      0      0      0       0       1
 1991 222    60    57    5.0      1   0.03     44     14      0     27     58      0    0.0  0.000      0      0  0.000  0.000  0.000  0.000   4.10   0.00   0.00      0      0     73.9   0.00   0.00   0.26   0.09   0.08   0.09   0.00   0.00   0.00   0.00   0.00   0.00   0.00      0      0      0       0       1
 1991 223    61    58    5.0      1   0.04     45     14      0     27     59      0    0.0  0.000      0      0  0.000  0.000  0.000  0.000   4.13   0.00   0.00      0      0     77.9   0.00   0.00   0.26   0.09   0.08   0.10   0.00   0.00   0.00   0.00   0.00   0.00   0.00      0      0      0       0       1
 1991 224    62    59    5.0      1   0.03     47     14      0     28     61      0    0.0  0.000      0      0  0.000  0.000  0.000  0.000   4.10   0.00   0.00      0      0     66.2   0.00   0.00   0.26   0.09   0.09   0.11   0.00   0.00   0.00   0.00   0.00   0.00   0.00      0      0      0       0       1
 1991 225    63    60    6.0      1   0.04     52     14      0     29     66      0    0.0  0.000      0      0  0.000  0.000  0.000  0.000   3.89   0.00   0.00      0      0     80.4   0.00   0.00   0.27   0.08   0.09   0.12   0.00   0.00   0.00   0.00   0.00   0.00   0.00      0      0      0       0       1
 1991 226    64    61    6.0      1   0.07     64     14      0     30     78      0    0.0  0.000      0      0  0.000  0.000  0.000  0.000   3.55   0.00   0.00      0      0    103.9   0.00   0.00   0.28   0.08   0.09   0.13   0.00   0.00   0.00   0.00   0.00   0.00   0.00      0      0      0       0       2
 1991 227    65    62    6.0      1   0.10     73     14      0     32     87      0    0.0  0.000      0      0  0.000  0.000  0.000  0.000   3.73   0.00   0.00      0      0    133.0   0.00   0.00   0.29   0.08   0.10   0.14   0.00   0.00   0.00   0.00   0.00   0.00   0.00      0      0      0       0       2
 1991 228    66    63    7.0      1   0.13     88     14      0     34    102      0    0.0  0.000      0      0  0.000  0.000  0.000  0.000   3.51   0.00   0.00      0      0    146.2   0.00   0.00   0.31   0.08   0.11   0.17   0.00   0.00   0.00   0.00   0.00   0.00   0.00      0      0      0       0       2
 1991 229    67    64    7.0      1   0.16    113     14      0     39    127      0    0.0  0.000      0      0  0.000  0.000  0.000  0.000   3.29   0.00   0.00      0      0    142.5   0.00   0.00   0.31   0.08   0.12   0.22   0.00   0.00   0.00   0.00   0.00   0.00   0.00      0      0      0       0       2
 1991 230    68    65    7.0      1   0.21    130     14      0     42    144      0    0.0  0.000      0      0  0.000  0.000  0.000  0.000   3.56   0.00   0.00      0      0    162.9   0.00   0.00   0.32   0.09   0.13   0.25   0.00   0.00   0.00   0.00   0.00   0.00   0.00      0      0      0       0       2
 1991 231    69    66    7.0      1   0.27    163     14      0     47    177      0    0.0  0.000      0      0  0.000  0.000  0.000  0.000   3.31   0.00   0.00      0      0    167.4   0.00   0.00   0.33   0.09   0.15   0.30   0.01   0.00   0.00   0.00   0.00   0.00   0.00      0      0      0       0       2
 1991 232    70    67    8.0      1   0.32    192     14      0     52    206      0    0.0  0.000      0      0  0.000  0.000  0.000  0.000   3.45   0.00   0.00      0      0    169.1   0.00   0.00   0.35   0.10   0.17   0.34   0.02   0.00   0.00   0.00   0.00   0.00   0.00      0      0      0       0       3
 1991 233    71    68    8.0      1   0.37    236     14      0     66    250      0    0.0  0.000      0      0  0.000  0.000  0.000  0.000   3.28   0.00   0.00      0      0    156.2   0.00   0.00   0.36   0.12   0.22   0.45   0.05   0.00   0.00   0.00   0.00   0.00   0.00      0      0      0       0       3
 1991 234    72    69    8.0      1   0.42    272     14      0     86    286      0    0.0  0.000      0      0  0.000  0.000  0.000  0.000   3.47   0.00   0.00      0      0    156.1   0.00   0.00   0.38   0.16   0.30   0.59   0.11   0.00   0.00   0.00   0.00   0.00   0.00      0      0      0       0       3
 1991 235    73    70    9.0      1   0.47    302     14      0    123    316      0    0.0  0.000      0      0  0.000  0.000  0.000  0.000   3.55   0.00   0.00      0      0    155.7   0.00   0.00   0.40   0.21   0.41   0.81   0.27   0.00   0.00   0.00   0.00   0.00   0.00      0      0      0       0       4
 1991 236    74    71    9.0      1   0.51    327     14      0    165    341      0    0.0  0.000      0      0  0.000  0.000  0.000  0.000   3.63   0.00   0.00      0      0    155.2   0.00   0.00   0.41   0.26   0.53   1.03   0.50   0.00   0.00   0.00   0.00   0.00   0.00      0      0      0       0       4
 1991 237    75    72    9.0      2   0.57    340     14      0    209    354      0    0.0  0.000      0      0  0.000  0.000  0.000  0.000   3.76   0.00   0.00      0      0    167.5   0.00   0.00   0.42   0.29   0.64   1.23   0.79   0.00   0.00   0.00   0.00   0.00   0.00      0      0      0       0       5
 1991 238    76    73    9.0      2   0.61    364     14      0    214    378      0    0.0  0.000      0      0  0.000  0.000  0.000  0.000   3.64   0.00   0.00      0      0    166.7   0.00   0.00   0.43   0.29   0.65   1.25   0.83   0.00   0.00   0.00   0.00   0.00   0.00      0      0      0       0       6
 1991 239    77    74    9.0      2   0.64    385     14      0    220    399      0    0.0  0.000      0      0  0.000  0.000  0.000  0.000   3.62   0.00   0.00      0      0    166.1   0.00   0.00   0.44   0.30   0.66   1.27   0.88   0.00   0.00   0.00   0.00   0.00   0.00      0      0      0       0       7
 1991 240    78    75   10.0      2   0.70    424     14      0    246    438      0    0.0  0.000      0      0  0.000  0.000  0.000  0.000   3.78   0.00   0.00      0      0    164.8   0.00   0.00   0.45   0.31   0.72   1.37   1.07   0.00   0.00   0.00   0.00   0.00   0.00      0      0      0       0       8
 1991 241    79    76   10.0      3   0.76    471     14      0    270    485      0    0.0  0.000      0      0  0.000  0.000  0.022  0.000   3.68   0.00   0.00      0      0    161.4   0.00   0.00   0.46   0.33   0.73   1.42   1.33   0.00   0.00   0.00   0.00   0.00   0.00      0      0      0       0      10
 1991 242    80    77   10.0      3   0.84    528     14      0    276    542      0    0.0  0.000      0      0  0.000  0.000  0.022  0.000   3.57   0.00   0.00      0      0    159.1   0.00   0.00   0.48   0.33   0.73   1.41   1.39   0.02   0.00   0.00   0.00   0.00   0.00      0      0      0       0      11
 1991 243    81    78   10.0      3   0.88    557     15      0    287    571      0    0.0  0.000      0      0  0.000  0.000  0.022  0.000   3.56   0.00   0.00      0      0    157.8   0.00   0.00   0.48   0.34   0.74   1.42   1.47   0.07   0.00   0.00   0.00   0.00   0.00      0      0      0       0      12
 1991 244    82    79   10.0      3   0.91    578     15      0    314    593      0    0.0  0.000      0      0  0.000  0.000  0.022  0.000   3.56   0.00   0.00      0      0    156.7   0.00   0.00   0.49   0.36   0.75   1.43   1.66   0.20   0.00   0.00   0.00   0.00   0.00      0      0      0       0      14
 1991 245    83    80   11.0      3   0.95    613     16      0    325    629      0    0.0  0.000      0      0  0.000  0.000  0.022  0.000   3.51   0.00   0.00      0      0    155.3   0.00   0.00   0.50   0.37   0.76   1.43   1.73   0.27   0.00   0.00   0.00   0.00   0.00      0      0      0       0      15
 1991 246    84    81   11.0      3   1.03    671     17      0    354    688      0    0.0  0.000      0      0  0.000  0.000  0.022  0.000   3.46   0.00   0.00      0      0    153.3   0.00   0.00   0.51   0.38   0.77   1.45   1.88   0.46   0.00   0.00   0.00   0.00   0.00      0      0      0       0      17
 1991 247    85    82   11.0      3   1.12    740     21      0    425    760      0    0.0  0.000      0      0  0.000  0.000  0.022  0.000   3.41   0.00   0.00      0      0    151.1   0.00   0.00   0.52   0.43   0.82   1.49   2.20   0.99   0.00   0.00   0.00   0.00   0.00      0      0      0       0      19
 1991 248    86    83   12.0      3   1.24    835     27      0    489    862      0    0.0  0.000      0      0  0.000  0.000  0.022  0.000   3.29   0.00   0.00      0      0    148.5   0.00   0.00   0.54   0.48   0.87   1.53   2.41   1.51   0.00   0.00   0.00   0.00   0.00      0      0      0       0      21
 1991 249    87    84   12.0      3   1.32    898     33      0    491    931      0    0.0  0.000      0      0  0.000  0.000  0.022  0.000   3.32   0.00   0.00      0      0    146.8   0.00   0.00   0.55   0.48   0.87   1.53   2.41   1.54   0.00   0.00   0.00   0.00   0.00      0      0      0       0      23
 1991 250    88    85   12.0      3   1.38    954     38      0    497    992      0    0.0  0.000      0      0  0.000  0.000  0.022  0.000   3.31   0.00   0.00      0      0    145.2   0.00   0.00   0.56   0.49   0.87   1.53   2.42   1.62   0.00   0.00   0.00   0.00   0.00      0      0      0       0      26
 1991 251    89    86   12.0      3   1.44   1000     44      0    511   1043      0    0.0  0.000      0      0  0.000  0.000  0.022  0.000   3.29   0.00   0.00      0      0    144.0   0.00   0.00   0.57   0.51   0.89   1.54   2.42   1.76   0.00   0.00   0.00   0.00   0.00      0      0      0       0      28
 1991 252    90    87   12.0      3   1.50   1050     50      0    594   1100      0    0.0  0.000      0      0  0.000  0.000  0.022  0.000   3.19   0.00   0.00      0      0    142.7   0.00   0.00   0.58   0.64   1.02   1.67   2.46   2.54   0.00   0.00   0.00   0.00   0.00      0      0      0       0      31
 1991 253    91    88   13.0      3   1.57   1115     60      0    683   1176      0    0.0  0.000      0      0  0.000  0.000  0.022  0.000   3.05   0.00   0.00      0      0    141.2   0.00   0.00   0.59   0.81   1.19   1.84   2.53   3.30   0.00   0.00   0.00   0.00   0.00      0      0      0       0      34
 1991 254    92    89   13.0      3   1.67   1197     75      0    786   1272      0    0.0  0.000      0      0  0.000  0.000  0.022  0.000   2.87   0.00   0.00      0      0    139.5   0.00   0.00   0.60   1.05   1.42   2.07   2.62   4.00   0.00   0.00   0.00   0.00   0.00      0      0      0       0      37
 1991 255    93    90   13.0      3   1.79   1304     99      0    871   1403      0    0.0  0.000      0      0  0.000  0.000  0.025  0.000   2.64   0.00   0.00      0      0    137.4   0.00   0.00   0.62   1.21   1.59   2.22   2.67   4.00   0.19   0.00   0.00   0.00   0.00      0      0      0       0      41
 1991 256    94    91   13.0      3   1.93   1431    134      0    909   1565      0    0.0  0.000      0      0  0.000  0.000  0.032  0.001   2.64   0.00   0.00      0      0    135.2   0.00   0.00   0.63   1.27   1.64   2.27   2.67   4.00   0.34   0.00   0.00   0.00   0.00      0      0      0       0      45
 1991 257    95    92   14.0      3   1.99   1486    150      0    919   1636      0    0.0  0.000      0      0  0.000  0.000  0.029  0.001   2.81   0.00   0.00      0      0    134.0   0.00   0.00   0.64   1.28   1.65   2.28   2.66   3.98   0.40   0.00   0.00   0.00   0.00      0      0      0       0      50
 1991 258    96    93   14.0      3   2.00   1504    156      0    928   1661      0    0.0  0.000      0      0  0.000  0.000  0.029  0.001   3.01   0.00   0.00      0      0    133.3   0.00   0.00   0.64   1.30   1.66   2.28   2.65   3.96   0.46   0.00   0.00   0.00   0.00      0      0      0       0      55
 1991 259    97    94   14.0      3   2.10   1591    186      0    962   1777      0    0.0  0.000      0      0  0.000  0.000  0.024  0.000   3.00   0.00   0.00      0      0    131.9   0.00   0.00   0.65   1.35   1.71   2.33   2.67   3.97   0.62   0.00   0.00   0.00   0.00      0      0      0       0      59
 1991 260    98    95   14.0      3   2.17   1660    214      0    963   1874      0    0.0  0.000      0      0  0.000  0.000  0.022  0.064   3.02   0.00   0.00      0      0    130.8   0.00   0.00   0.67   1.35   1.71   2.33   2.66   3.95   0.64   0.00   0.00   0.00   0.00      0      0      0       0      64
 1991 261    99    96   14.0      3   2.25   1734    245      0   1069   1979      0    0.0  0.000      0      0  0.000  0.000  0.022  0.070   2.91   0.00   0.00      0      0    129.7   0.00   0.00   0.68   1.44   1.78   2.36   2.56   3.77   1.04   0.00   0.00   0.00   0.00      0      0      0       0      69
 1991 262   100    97   15.0      3   2.29   1778    265      0   1202   2043      0    0.0  0.000      0      0  0.000  0.000  0.022  0.086   2.88   0.00   0.00      0      0    128.9   0.00   0.00   0.68   1.62   1.95   2.50   2.57   3.71   1.53   0.00   0.00   0.00   0.00      0      0      0       0      74
 1991 263   101    98   15.0      3   2.35   1841    297      0   1264   2138      0    0.0  0.000      0      0  0.000  0.000  0.024  0.106   2.81   0.00   0.00      0      0    127.9   0.00   0.00   0.69   1.71   2.03   2.57   2.56   3.67   1.75   0.00   0.00   0.00   0.00      0      0      0       0      80
 1991 264   102    99   15.0      3   2.47   1950    357      0   1271   2307      0    0.0  0.000      0      0  0.000  0.000  0.023  0.046   2.67   0.00   0.00      0      0    126.6   0.00   0.00   0.70   1.71   2.02   2.55   2.53   3.62   1.77   0.00   0.00   0.00   0.00      0      0      0       0      87
 1991 265   103   100   15.0      3   2.53   2016    396      0   1395   2413      0    0.0  0.000      0      0  0.000  0.000  0.025  0.015   2.60   0.00   0.00      0      0    125.6   0.00   0.00   0.71   1.98   2.29   2.82   2.62   3.70   2.19   0.00   0.00   0.00   0.00      0      0      0       0      93
 1991 266   104   101   15.0      3   2.36   2046    414      0   1507   2460      0    0.0  0.000      0      0  0.000  0.000  0.032  0.000   2.59   0.00   0.00      0      0    115.5   0.00   0.00   0.72   2.27   2.58   3.10   2.74   3.79   2.53   0.00   0.00   0.00   0.00      0      0      0       0     100
 1991 267   105   102   15.0      3   2.38   2087    440      0   1649   2527      0    0.0  0.000      0      0  0.000  0.000  0.035  0.000   2.55   0.00   0.00      0      0    114.0   0.00   0.00   0.72   2.68   2.99   3.51   2.91   3.94   2.90   0.00   0.00   0.00   0.00      0      0      0       0     107
 1991 268   106   103   16.0      3   2.43   2148    482      0   1768   2630      0    0.0  0.000      0      0  0.000  0.000  0.035  0.000   2.48   0.00   0.00      0      0    113.3   0.00   0.00   0.73   3.08   3.38   3.90   3.07   4.00   3.14   0.00   0.00   0.00   0.00      0      0      0       0     116
 1991 269   107   104   16.0      3   2.50   2217    531      0   1893   2748      0    0.0  0.000      0      0  0.000  0.000  0.036  0.000   2.40   0.00   0.00      0      0    112.6   0.00   0.00   0.74   3.55   3.85   4.00   3.26   4.00   3.31   0.00   0.00   0.00   0.00      0      0      0       0     124
 1991 270   108   105   16.0      3   2.61   2332    622      0   1937   2954      0    0.0  0.000      0      0  0.000  0.000  0.039  0.000   2.25   0.00   0.00      0      0    111.8   0.00   0.00   0.75   3.75   4.00   4.00   3.34   4.00   3.33   0.00   0.00   0.00   0.00      0      0      0       0     134
 1991 271   109   106   16.0      3   2.63   2372    656      0   2055   3028      0    0.0  0.000      0      0  0.000  0.000  0.044  0.000   2.22   0.00   0.00      0      0    111.1   0.00   0.00   0.76   4.00   4.00   4.00   3.55   4.00   3.40   0.00   0.00   0.00   0.00      0      0      0       0     144
 1991 272   110   107   16.0      3   2.66   2414    691      0   2189   3105      0    0.0  0.000      0      0  0.000  0.000  0.055  0.000   2.18   0.00   0.00      0      0    110.2   0.00   0.00   0.76   4.00   4.00   4.00   3.79   4.00   3.49   0.00   0.00   0.00   0.00      0      0      0       0     154
 1991 273   111   108   17.0      3   2.70   2474    746      0   2308   3220      0    0.0  0.000      0      0  0.000  0.000  0.057  0.000   2.11   0.00   0.00      0      0    109.3   0.00   0.00   0.77   4.00   4.00   4.00   4.00   4.00   3.56   0.00   0.00   0.00   0.00      0      0      0       0     165
 1991 274   112   109   17.0      3   2.73   2516    784      0   2425   3300      0    0.0  0.000      0      0  0.000  0.000  0.060  0.000   2.07   0.00   0.00      0      0    108.4   0.00   0.00   0.77   4.00   4.00   4.00   4.00   4.00   3.64   0.00   0.00   0.00   0.00      0      0      0       0     176
 1991 275   113   110   17.0      3   2.74   2554    821      0   2559   3375      0    0.0  0.000      0      0  0.000  0.000  0.065  0.000   2.04   0.00   0.00      0      0    107.4   0.00   0.00   0.78   4.00   4.00   4.00   4.00   4.00   3.74   0.00   0.00   0.00   0.00      0      0      0       0     189
 1991 276   114   111   17.0      3   2.65   2593    861      0   2710   3454      0    0.0  0.000      0      0  0.000  0.000  0.069  0.000   2.00   0.00   0.00      0      0    102.2   0.00   0.00   0.79   4.00   4.00   4.00   4.00   4.00   3.85   0.00   0.00   0.00   0.00      0      0      0       0     201
 1991 277   115   112   17.0      3   2.68   2646    916      0   2809   3562      0    0.0  0.000      0      0  0.000  0.000  0.071  0.000   1.95   0.00   0.00      0      0    101.3   0.00   0.00   0.79   4.00   4.00   4.00   4.00   4.00   3.92   0.00   0.00   0.00   0.00      0      0      0       0     215
 1991 278   116   113   17.0      3   2.69   2680    952      0   2803   3632      0    0.0  0.000      0      0  0.000  0.000  0.075  0.000   1.92   0.00   0.00      0      0    100.4   0.00   0.00   0.80   4.00   4.00   4.00   3.99   3.99   3.91   0.00   0.00   0.00   0.00      0      0      0       0     229
 1991 279   117   114   17.0      3   2.68   2695    970      0   2833   3665      0    0.0  0.000      0      0  0.000  0.000  0.081  0.000   1.91   0.00   0.00      0      0     99.4   0.00   0.00   0.80   4.00   4.00   4.00   4.00   4.00   3.93   0.00   0.00   0.00   0.00      0      0      0       0     243
 1991 280   118   115   17.0      3   2.59   2713    989      0   2874   3702      0    0.0  0.000      0      0  0.000  0.000  0.084  0.000   1.90   0.00   0.00      0      0     95.4   0.00   0.00   0.80   4.00   4.00   4.00   4.00   4.00   3.95   0.00   0.00   0.00   0.00      0      0      0       0     257
 1991 281   119   116   17.0      3   2.50   2741   1021      0   2989   3761      0    0.0  0.000      0      0  0.000  0.000  0.085  0.024   1.88   0.00   0.00      0      0     91.3   0.00   0.00   0.81   4.00   4.00   4.00   4.00   4.00   4.00   0.00   0.00   0.00   0.00      0      0      0       0     271
 1991 282   120   117   18.0      3   2.73   2991   1080      0   2992   4071      0    0.0  0.000      0      0  0.000  0.000  0.085  0.029   1.74   0.00   0.00      0      0     91.2   0.00   0.00   0.81   4.00   4.00   4.00   4.00   4.00   3.99   0.00   0.00   0.00   0.00      0      0      0       0     286
 1991 283   121   118   18.0      3   2.83   3123   1175      0   3074   4298      0    0.0  0.000      0      0  0.000  0.000  0.086  0.002   1.66   0.00   0.00      0      0     90.6   0.00   0.00   0.82   4.00   4.00   4.00   4.00   4.00   4.00   0.00   0.00   0.00   0.00      0      0      0       0     301
 1991 284   122   119   18.0      3   2.90   3228   1284      0   3159   4512      0    0.0  0.000      0      0  0.000  0.000  0.105  0.000   1.59   0.00   0.00      0      0     89.7   0.00   0.00   0.83   4.00   4.00   4.00   4.00   4.00   4.00   0.00   0.00   0.00   0.00      0      0      0       0     317
 1991 285   123   120   18.0      3   2.96   3339   1435      0   3220   4774      0    0.0  0.000      0      0  0.000  0.000  0.116  0.000   1.51   0.00   0.00      0      0     88.7   0.00   0.00   0.84   4.00   4.00   4.00   4.00   4.00   4.00   0.00   0.00   0.00   0.00      0      0      0       0     333
 1991 286   124   121   19.0      3   3.03   3462   1646      0   3223   5108      0    0.0  0.000      0      0  0.000  0.000  0.124  0.000   1.42   0.00   0.00      0      0     87.6   0.00   0.00   0.87   4.00   4.00   4.00   4.00   4.00   4.00   0.00   0.00   0.00   0.00      0      0      0       0     349
 1991 287   125   122   19.0      3   3.04   3521   1765      0   3216   5286      0    0.0  0.000      0      0  0.000  0.000  0.134  0.000   1.38   0.00   0.00      0      0     86.3   0.00   0.00   0.89   4.00   4.00   4.00   4.00   3.99   3.99   0.00   0.00   0.00   0.00      0      0      0       0     365
 1991 288   126   123   20.0      3   3.02   3555   1842      0   3207   5397      0    0.0  0.000      0      0  0.000  0.000  0.150  0.000   1.36   0.00   0.00      0      0     84.8   0.00   0.00   0.90   4.00   4.00   4.00   3.99   3.98   3.98   0.00   0.00   0.00   0.00      0      0      0       0     381
 1991 289   127   124   20.0      3   2.98   3585   1910      0   3204   5495      0    0.0  0.000      0      0  0.000  0.000  0.158  0.030   1.34   0.00   0.00      0      0     83.3   0.00   0.00   0.91   3.79   3.79   3.79   3.75   3.75   3.74   0.02   0.00   0.00   0.00      0      0      0       0     397
 1991 290   128   125   20.0      3   2.94   3602   1951      0   3273   5553      0    0.0  0.000      0      0  0.000  0.000  0.163  0.285   1.33   0.00   0.00      0      0     81.6   0.00   0.00   0.91   3.91   3.91   3.91   3.72   3.71   3.68   0.16   0.00   0.00   0.00      0      0      0       0     413
 1991 291   129   126   20.0      3   2.91   3630   2020      0   3421   5650      0    0.0  0.000      0      0  0.000  0.000  0.165  0.163   1.32   0.00   0.00      0      0     80.1   0.00   0.00   0.92   4.00   4.00   4.00   3.85   3.81   3.75   0.53   0.00   0.00   0.00      0      0      0       0     429
 1991 292   130   127   20.0      3   2.88   3668   2118      0   3548   5787      0    0.0  0.000      0      0  0.000  0.000  0.160  0.030   1.31   0.00   0.00      0      0     78.6   0.00   0.00   0.93   4.00   4.00   4.00   3.97   3.92   3.83   0.94   0.00   0.00   0.00      0      0      0       0     446
 1991 293   131   128   21.0      3   2.87   3709   2228      0   3668   5937      0    0.0  0.000      0      0  0.000  0.000  0.155  0.004   1.30   0.00   0.00      0      0     77.3   0.00   0.00   0.94   4.00   4.00   4.00   4.00   4.00   3.92   1.39   0.00   0.00   0.00      0      0      0       0     464
 1991 294   132   129   21.0      3   2.86   3760   2371      0   3751   6132      0    0.0  0.000      0      0  0.000  0.000  0.153  0.000   1.27   0.00   0.00      0      0     76.1   0.00   0.00   0.95   4.00   4.00   4.00   4.00   4.00   3.98   1.75   0.00   0.00   0.00      0      0      0       0     482
 1991 295   133   130   21.0      3   2.86   3819   2545      0   3780   6364      0    0.0  0.000      0      0  0.000  0.000  0.153  0.000   1.24   0.00   0.00      0      0     74.9   0.00   0.00   0.97   4.00   4.00   4.00   4.00   4.00   4.00   1.93   0.00   0.00   0.00      0      0      0       0     501
 1991 296   134   131   21.0      3   2.83   3845   2625      0   3775   6470      0    0.0  0.000      0      0  0.000  0.000  0.159  0.000   1.24   0.00   0.00      0      0     73.6   0.00   0.00   0.97   4.00   4.00   4.00   3.99   3.99   3.99   1.98   0.00   0.00   0.00      0      0      0       0     520
 1991 297   135   132   21.0      3   2.79   3864   2681      0   3781   6545      0    0.0  0.000      0      0  0.000  0.000  0.167  0.000   1.23   0.00   0.00      0      0     72.2   0.00   0.00   0.98   4.00   4.00   4.00   4.00   4.00   3.99   2.06   0.00   0.00   0.00      0      0      0       0     539
 1991 298   136   133   21.0      3   2.76   3892   2766      0   3768   6657      0    0.0  0.000      0      0  0.000  0.000  0.166  0.000   1.23   0.00   0.00      0      0     70.8   0.00   0.00   0.99   4.00   4.00   4.00   3.99   3.98   3.97   2.07   0.00   0.00   0.00      0      0      0       0     558
 1991 299   137   134   21.0      3   2.74   3934   2891      0   3846   6825      0    0.0  0.000      0      0  0.000  0.000  0.163  0.000   1.21   0.00   0.00      0      0     69.6   0.00   0.00   1.00   4.00   4.00   4.00   4.00   4.00   4.00   2.37   0.00   0.00   0.00      0      0      0       0     577
 1991 300   138   135   21.0      3   2.72   3971   3000      0   3851   6970      0    0.0  0.000      0      0  0.000  0.000  0.163  0.000   1.19   0.00   0.00      0      0     68.5   0.00   0.00   1.01   4.00   4.00   4.00   4.00   4.00   4.00   2.42   0.00   0.00   0.00      0      0      0       0     596
 1991 301   139   136   21.0      3   2.69   3999   3084      0   3838   7084      0    0.0  0.000      0      0  0.000  0.000  0.167  0.000   1.18   0.00   0.00      0      0     67.2   0.00   0.00   1.02   4.00   4.00   4.00   3.99   3.99   3.98   2.42   0.00   0.00   0.00      0      0      0       0     615
 1991 302   140   137   21.0      3   2.65   4025   3161      0   3830   7186      0    0.0  0.000      0      0  0.000  0.000  0.170  0.000   1.17   0.00   0.00      0      0     66.0   0.00   0.00   1.03   4.00   4.00   4.00   3.98   3.98   3.97   2.43   0.00   0.00   0.00      0      0      0       0     634
 1991 303   141   138   21.0      3   2.62   4052   3241      0   3821   7293      0    0.0  0.000      0      0  0.000  0.000  0.171  0.000   1.16   0.00   0.00      0      0     64.7   0.00   0.00   1.04   4.00   4.00   4.00   3.97   3.97   3.96   2.44   0.00   0.00   0.00      0      0      0       0     654
 1991 304   142   139   21.0      4   2.57   4011   2733      0   3807   7368      0    0.0  0.000    624      0  0.000  0.000  0.171  0.000   1.27   0.00   0.08      0    624     64.0   0.00   0.00   1.05   4.00   4.00   4.00   3.96   3.96   3.95   2.43   0.00   0.00   0.00      0      0      0       0     673
 1991 305   143   140   21.0      4   2.51   3968   2768      0   3865   7449      0    0.0  0.000    713      0  0.000  0.000  0.171  0.038   1.27   0.00   0.10      0    713     63.3   0.00   0.00   1.06   4.00   4.00   4.00   4.00   4.00   4.00   2.47   0.00   0.00   0.00      0      0      0       0     692
 1991 306   144   141   21.0      4   2.47   3923   2806      0   3984   7536      0    0.0  0.000    807      0  0.000  0.000  0.136  0.008   1.28   0.00   0.11      0    807     62.9   0.00   0.00   1.07   4.00   4.00   4.00   4.00   4.00   4.00   2.56   0.00   0.00   0.00      0      0      0       0     711
 1991 307   145   142   21.0      4   2.43   3877   2847      0   4060   7632      0    0.0  0.000    909      0  0.000  0.000  0.129  0.000   1.29   0.00   0.12      0    909     62.7   0.00   0.00   1.07   4.00   4.00   4.00   4.00   4.00   4.00   2.62   0.00   0.00   0.00      0      0      0       0     731
 1991 308   146   143   21.0      4   2.39   3828   2891      0   4187   7739      0    0.0  0.000   1020      0  0.000  0.000  0.123  0.000   1.30   0.00   0.13      0   1020     62.5   0.00   0.00   1.08   4.00   4.00   4.00   4.00   4.00   4.00   2.73   0.00   0.00   0.00      0      0      0       0     751
 1991 309   147   144   21.0      4   2.36   3777   2942      0   4247   7864      0    0.0  0.000   1146      0  0.000  0.000  0.117  0.000   1.31   0.00   0.15      0   1146     62.4   0.00   0.00   1.09   4.00   4.00   4.00   4.00   4.00   4.00   2.78   0.09   0.00   0.00      0      0      0       0     772
 1991 310   148   145   21.0      4   2.32   3724   2991      0   4234   7984      0    0.0  0.000   1269      0  0.000  0.000  0.111  0.000   1.32   0.00   0.16      0   1269     62.4   0.00   0.00   1.10   4.00   4.00   4.00   3.99   3.99   3.99   2.77   0.11   0.00   0.00      0      0      0       0     793
 1991 311   149   146   21.0      4   2.29   3668   3037      0   4305   8091      0    0.0  0.000   1386      0  0.000  0.000  0.105  0.000   1.33   0.00   0.17      0   1386     62.5   0.00   0.00   1.11   4.00   4.00   4.00   4.00   4.00   4.00   2.81   0.32   0.00   0.00      0      0      0       0     815
 1991 312   150   147   21.0      4   2.26   3611   3079      0   4374   8178      0    0.0  0.000   1488      0  0.000  0.000  0.100  0.000   1.35   0.00   0.18      0   1488     62.7   0.00   0.00   1.11   4.00   4.00   4.00   4.00   4.00   4.00   2.85   0.55   0.00   0.00      0      0      0       0     836
 1991 313   151   148   21.0      4   2.24   3552   3119      0   4504   8259      0    0.0  0.000   1589      0  0.000  0.000  0.094  0.000   1.36   0.00   0.19      0   1589     63.0   0.00   0.00   1.12   4.00   4.00   4.00   4.00   4.00   4.00   2.93   0.98   0.00   0.00      0      0      0       0     858
 1991 314   152   149   21.0      4   2.21   3491   3169      0   4537   8375      0    0.0  0.000   1715      0  0.000  0.000  0.088  0.000   1.37   0.00   0.20      0   1715     63.4   0.00   0.00   1.13   4.00   4.00   4.00   4.00   4.00   4.00   2.95   1.14   0.00   0.00      0      0      0       0     880
 1991 315   153   150   21.0      4   2.19   3428   3201      0   4610   8424      0    0.0  0.000   1795      0  0.000  0.000  0.083  0.000   1.39   0.00   0.21      0   1795     63.9   0.00   0.00   1.13   4.00   4.00   4.00   4.00   4.00   4.00   2.99   1.43   0.00   0.00      0      0      0       0     903
 1991 316   154   151   21.0      4   2.17   3365   3226      0   4768   8446      0    0.0  0.000   1856      0  0.000  0.000  0.079  0.000   1.41   0.00   0.22      0   1856     64.5   0.00   0.00   1.14   4.00   4.00   4.00   4.00   4.00   4.00   3.08   1.98   0.00   0.00      0      0      0       0     926
 1991 317   155   152   21.0      4   2.15   3300   3259      0   4838   8499      0    0.0  0.000   1940      0  0.000  0.000  0.075  0.000   1.42   0.00   0.23      0   1940     65.1   0.00   0.00   1.14   4.00   4.00   4.00   4.00   4.00   4.00   3.12   2.26   0.00   0.00      0      0      0       0     950
 1991 318   156   153   21.0      4   2.13   3234   3296      0   4819   8562      0    0.0  0.000   2032      0  0.000  0.000  0.070  0.000   1.44   0.00   0.24      0   2032     65.9   0.00   0.00   1.15   3.99   3.99   3.99   3.99   3.98   3.98   3.11   2.27   0.00   0.00      0      0      0       0     974
 1991 319   157   154   21.0      4   2.11   3165   3348      0   4803   8674      0    0.0  0.000   2161      0  0.000  0.000  0.065  0.000   1.45   0.00   0.25      0   2161     66.7   0.00   0.00   1.15   3.99   3.99   3.99   3.97   3.97   3.97   3.10   2.28   0.00   0.00      0      0      0       0     998
 1991 320   158   155   21.0      4   2.10   3095   3398      0   4852   8780      0    0.0  0.000   2287      0  0.000  0.000  0.060  0.000   1.46   0.00   0.26      0   2287     67.8   0.00   0.00   1.16   4.00   4.00   4.00   4.00   4.00   4.00   3.12   2.51   0.00   0.00      0      0      0       0    1022
 1991 321   159   156   21.0      4   2.08   3023   3447      0   4921   8878      0    0.0  0.000   2409      0  0.000  0.000  0.056  0.000   1.47   0.00   0.27      0   2409     68.9   0.00   0.00   1.17   4.00   4.00   4.00   4.00   4.00   4.00   3.16   2.80   0.00   0.00      0      0      0       0    1047
 1991 322   160   157   21.0      5   2.06   3023   3447    164   4949   9042   2571    6.4  0.018   2572      7  0.000  0.000  0.099  0.000   1.44   6.37   0.28      0   2572     68.0   0.00   0.00   1.17   4.00   4.00   4.00   4.00   4.00   4.00   3.17   2.95   0.00   0.00      0      0      0       0    1071
 1991 323   161   158   21.0      5   2.03   3023   3447    279   5012   9157   2571   10.9  0.030   2688      7  0.000  0.000  0.106  0.000   1.43  10.38   0.29      0   2688     67.1   0.00   0.00   1.18   4.00   4.00   4.00   4.00   4.00   4.00   3.21   3.22   0.00   0.00      0      0      0       0    1096
 1991 324   162   159   21.0      5   2.00   3023   3447    412   5049   9290   2571   16.0  0.044   2821      7  0.000  0.000  0.106  0.000   1.40  14.62   0.30      0   2821     66.2   0.00   0.00   1.19   4.00   4.00   4.00   4.00   4.00   4.00   3.23   3.40   0.00   0.00      0      0      0       0    1121
 1991 325   163   160   21.0      5   1.98   3023   3447    575   5096   9452   2571   22.3  0.061   2983      7  0.000  0.000  0.107  0.000   1.38  19.26   0.32      0   2983     65.4   0.00   0.00   1.20   4.00   4.00   4.00   4.00   4.00   4.00   3.25   3.61   0.00   0.00      0      0      0       0    1146
 1991 326   164   161   21.0      5   1.95   3023   3447    767   5132   9645   2571   29.8  0.080   3176      7  0.000  0.000  0.108  0.000   1.34  24.16   0.33      0   3176     64.5   0.00   0.00   1.21   4.00   4.00   4.00   4.00   4.00   4.00   3.27   3.78   0.00   0.00      0      0      0       0    1172
 1991 327   165   162   21.0      5   1.92   3023   3447    960   5153   9838   2571   37.3  0.098   3369      7  0.000  0.000  0.110  0.000   1.31  28.50   0.34      0   3369     63.6   0.00   0.00   1.22   4.00   4.00   4.00   4.00   4.00   4.00   3.28   3.90   0.00   0.00      0      0      0       0    1197
 1991 328   166   163   21.0      5   1.89   3023   3447   1058   5135   9936   2571   41.2  0.106   3467      7  0.000  0.000  0.117  0.000   1.30  30.52   0.35      0   3467     62.6   0.00   0.00   1.23   4.00   4.00   4.00   3.99   3.99   3.99   3.27   3.91   0.00   0.00      0      0      0       0    1223
 1991 329   167   164   21.0      5   1.87   3023   3447   1157   5118  10035   2571   45.0  0.115   3565      7  0.000  0.000  0.118  0.000   1.28  32.45   0.36      0   3565     61.7   0.00   0.00   1.23   4.00   4.00   4.00   3.98   3.98   3.97   3.26   3.91   0.00   0.00      0      0      0       0    1249
 1991 330   168   165   21.0      5   1.84   3023   3447   1254   5120  10132   2571   48.8  0.124   3663      7  0.000  0.000  0.119  0.000   1.27  34.24   0.36      0   3663     60.8   0.00   0.00   1.24   4.00   4.00   4.00   3.99   3.98   3.98   3.26   3.96   0.00   0.00      0      0      0       0    1274
 1991 331   169   166   21.0      5   1.81   3023   3447   1368   5148  10246   2571   53.2  0.133   3776      7  0.000  0.000  0.120  0.232   1.25  36.22   0.37      0   3776     59.9   0.00   0.00   1.24   4.00   4.00   4.00   4.00   4.00   4.00   3.28   4.00   0.00   0.00      0      0      0       0    1300
 1991 332   170   167   21.0      5   1.78   3023   3447   1552   5158  10430   2571   60.4  0.149   3960      7  0.000  0.000  0.120  0.183   1.22  39.19   0.38      0   3960     59.0   0.00   0.00   1.25   4.00   4.00   4.00   4.00   4.00   4.00   3.29   4.00   0.00   0.00      0      0      0       0    1326
 1991 333   171   168   21.0      5   1.76   3023   3447   1742   5142  10620   2571   67.7  0.164   4150      7  0.000  0.000  0.125  0.187   1.18  41.97   0.39      0   4150     58.1   0.00   0.00   1.25   4.00   4.00   4.00   3.99   3.99   3.99   3.28   4.00   0.00   0.00      0      0      0       0    1352
 1991 334   172   169   21.0      5   1.73   3023   3447   1934   5175  10812   2571   75.2  0.179   4343      7  0.000  0.000  0.130  0.071   1.15  44.54   0.40      0   4343     57.1   0.00   0.00   1.25   4.00   4.00   4.00   4.00   4.00   4.00   3.30   4.00   0.00   0.00      0      0      0       0    1377
 1991 335   173   170   21.0      5   1.70   3023   3447   2107   5192  10985   2571   82.0  0.192   4515      7  0.000  0.000  0.137  0.017   1.13  46.66   0.41      0   4515     56.2   0.00   0.00   1.25   4.00   4.00   4.00   4.00   4.00   4.00   3.32   4.00   0.00   0.00      0      0      0       0    1403
 1991 336   174   171   21.0      5   1.67   3023   3447   2300   5219  11178   2571   89.5  0.206   4708      7  0.000  0.000  0.140  0.000   1.10  48.84   0.42      0   4708     55.2   0.00   0.00   1.25   4.00   4.00   4.00   4.00   4.00   4.00   3.34   4.00   0.00   0.00      0      0      0       0    1429
 1991 337   175   172   21.0      5   1.64   3023   3447   2493   5198  11370   2571   97.0  0.219   4901      7  0.000  0.000  0.145  0.000   1.07  50.86   0.43      0   4901     54.2   0.00   0.00   1.25   3.99   3.99   3.99   3.99   3.98   3.98   3.33   3.98   0.00   0.00      0      0      0       0    1455
 1991 338   176   173   21.0      5   1.61   3023   3447   2685   5225  11563   2571  104.5  0.232   5094      7  0.000  0.000  0.150  0.000   1.04  52.72   0.44      0   5094     53.2   0.00   0.00   1.25   4.00   4.00   4.00   4.00   4.00   4.00   3.35   3.98   0.00   0.00      0      0      0       0    1481
 1991 339   177   174   21.0      5   1.58   3023   3447   2878   5199  11756   2571  112.0  0.245   5287      7  0.000  0.000  0.155  0.000   1.01  54.44   0.45      0   5287     52.1   0.00   0.00   1.25   3.98   3.98   3.98   3.98   3.98   3.98   3.33   3.96   0.00   0.00      0      0      0       0    1507
 1991 340   178   175   21.0      5   1.54   3023   3447   3071   5221  11949   2571  119.5  0.257   5479      7  0.000  0.000  0.160  0.000   0.98  56.04   0.46      0   5479     51.1   0.00   0.00   1.25   4.00   4.00   4.00   4.00   4.00   4.00   3.35   3.96   0.00   0.00      0      0      0       0    1533
 1991 341   179   176   21.0      5   1.51   3023   3447   3264   5201  12142   2571  127.0  0.269   5672      7  0.000  0.000  0.166  0.002   0.96  57.54   0.47      0   5672     50.0   0.00   0.00   1.25   4.00   4.00   4.00   3.99   3.99   3.99   3.34   3.94   0.00   0.00      0      0      0       0    1559
 1991 342   180   177   21.0      5   1.48   3023   3447   3457   5216  12334   2571  134.5  0.280   5865      7  0.000  0.000  0.171  0.000   0.93  58.93   0.48      0   5865     49.0   0.00   0.00   1.25   4.00   4.00   4.00   4.00   4.00   4.00   3.36   3.94   0.00   0.00      0      0      0       0    1585
 1991 343   181   178   21.0      5   1.45   3023   3392   3624   5190  12446   2571  140.9  0.291   6032      7  0.000  0.000  0.178  0.000   0.92  60.07   0.48      0   6032     47.9   0.00   0.00   1.25   4.00   4.00   4.00   4.00   4.00   4.00   3.36   3.94   0.00   0.00      0      0      0       0    1611
 1991 344   182   179   21.0      5   1.41   3023   3446   3816   5192  12694   2571  148.4  0.301   6225      7  0.000  0.000  0.182  0.000   0.88  61.31   0.49      0   6225     46.8   0.00   0.00   1.25   4.00   4.00   4.00   4.00   4.00   4.00   3.36   3.93   0.00   0.00      0      0      0       0    1637
 1991 345   183   180   21.0      5   1.38   3023   3447   4008   5176  12886   2571  155.9  0.311   6417      7  0.000  0.000  0.187  0.059   0.86  62.47   0.50      0   6417     45.7   0.00   0.00   1.25   4.00   4.00   4.00   3.99   3.99   3.99   3.35   3.91   0.00   0.00      0      0      0       0    1663
 1991 346   184   181   21.0      5   1.35   3023   3400   4165   5150  12996   2571  162.0  0.320   6574      7  0.000  0.000  0.198  0.055   0.84  63.36   0.51      0   6574     44.6   0.00   0.00   1.25   4.00   4.00   4.00   3.99   3.99   3.99   3.35   3.91   0.00   0.00      0      0      0       0    1689
 1991 347   185   182   21.0      5   1.31   3023   3447   4346   5165  13224   2571  169.1  0.329   6755      7  0.000  0.000  0.208  0.065   0.82  64.34   0.51      0   6755     43.4   0.00   0.00   1.25   4.00   4.00   4.00   4.00   4.00   4.00   3.37   3.91   0.00   0.00      0      0      0       0    1715
 1991 348   186   183   21.0      5   1.28   3023   3408   4489   5139  13328   2571  174.6  0.337   6897      7  0.000  0.000  0.221  0.224   0.80  65.08   0.52      0   6897     42.3   0.00   0.00   1.25   4.00   4.00   4.00   4.00   4.00   4.00   3.37   3.91   0.00   0.00      0      0      0       0    1741
 1991 349   187   184   21.0      5   1.24   3023   3349   4644   5113  13425   2571  180.6  0.346   7053      7  0.000  0.000  0.245  0.254   0.79  65.85   0.53      0   7053     41.2   0.00   0.00   1.25   4.00   4.00   4.00   4.00   4.00   4.00   3.37   3.91   0.00   0.00      0      0      0       0    1767
 1991 350   188   185   21.0      5   1.21   3023   3361   4829   5093  13621   2571  187.8  0.355   7238      7  0.000  0.000  0.254  0.310   0.77  66.72   0.53      0   7238     40.0   0.00   0.00   1.25   4.00   4.00   4.00   3.99   3.99   3.99   3.35   3.89   0.00   0.00      0      0      0       0    1792
 1991 351   189   186   21.0      5   1.18   3023   3402   5022   5089  13855   2571  195.3  0.362   7430      7  0.000  0.000  0.266  0.290   0.74  67.59   0.54      0   7430     38.9   0.00   0.00   1.25   4.00   4.00   4.00   4.00   3.99   3.99   3.35   3.88   0.00   0.00      0      0      0       0    1818
 1991 352   190   187   21.0      5   1.14   3023   3430   5215   5077  14076   2571  202.8  0.370   7623      7  0.000  0.000  0.291  0.137   0.72  68.41   0.54      0   7623     37.8   0.00   0.00   1.25   4.00   4.00   4.00   4.00   3.99   3.98   3.35   3.87   0.00   0.00      0      0      0       0    1843
 1991 353   191   188   21.0      5   1.11   3023   3430   5407   5052  14269   2571  210.3  0.379   7816      7  0.000  0.000  0.321  0.365   0.70  69.18   0.55      0   7816     36.7   0.00   0.00   1.25   3.98   3.98   3.98   3.98   3.97   3.96   3.33   3.85   0.00   0.00      0      0      0       0    1868
 1991 354   192   189   21.0      5   1.07   3023   3447   5600   5039  14478   2571  217.8  0.387   8009      7  0.000  0.000  0.349  0.304   0.67  69.93   0.55      0   8009     35.5   0.00   0.00   1.25   4.00   4.00   4.00   3.98   3.97   3.96   3.32   3.83   0.00   0.00      0      0      0       0    1894
 1991 355   193   190   21.0      5   1.04   3023   3444   5793   5014  14669   2571  225.3  0.395   8202      7  0.000  0.000  0.371  0.152   0.66  70.63   0.56      0   8202     34.4   0.00   0.00   1.25   4.00   4.00   4.00   3.98   3.97   3.96   3.32   3.83   0.00   0.00      0      0      0       0    1919
 1991 356   194   191   21.0      5   1.01   3023   3336   5986   4989  14753   2571  232.8  0.406   8394      7  0.000  0.000  0.396  0.073   0.65  71.31   0.57      0   8394     33.3   0.00   0.00   1.25   4.00   4.00   4.00   3.98   3.97   3.96   3.32   3.83   0.00   0.00      0      0      0       0    1944
 1991 357   195   192   21.0      5   0.97   3023   3313   6179   4964  14923   2571  240.3  0.414   8587      7  0.000  0.000  0.411  0.408   0.64  71.95   0.58      0   8587     32.1   0.00   0.00   1.25   4.00   4.00   4.00   3.98   3.97   3.96   3.32   3.83   0.00   0.00      0      0      0       0    1969
 1991 358   196   193   21.0      5   0.94   3023   3312   6372   4939  15115   2571  247.8  0.422   8780      7  0.000  0.000  0.410  0.223   0.62  72.57   0.58      0   8780     31.0   0.00   0.00   1.25   4.00   4.00   4.00   3.98   3.97   3.96   3.32   3.83   0.00   0.00      0      0      0       0    1994
 1991 359   197   194   21.0      5   0.91   3023   3273   6549   4914  15253   2571  254.7  0.429   8957      7  0.000  0.000  0.435  0.108   0.61  73.11   0.59      0   8957     30.0   0.00   0.00   1.25   4.00   4.00   4.00   3.98   3.97   3.96   3.32   3.83   0.00   0.00      0      0      0       0    2018
 1991 360   198   195   21.0      5   0.87   3023   3286   6672   4896  15389   2571  259.5  0.434   9080      7  0.000  0.000  0.455  0.054   0.61  73.48   0.59      0   9080     28.9   0.00   0.00   1.25   4.00   4.00   4.00   3.96   3.96   3.94   3.31   3.81   0.00   0.00      0      0      0       0    2043
 1991 361   199   196   21.0      5   0.84   3023   3310   6807   4883  15548   2571  264.8  0.438   9215      7  0.000  0.000  0.450  0.015   0.60  73.86   0.59      0   9215     27.9   0.00   0.00   1.25   4.00   4.00   4.00   3.96   3.95   3.94   3.30   3.80   0.00   0.00      0      0      0       0    2067
 1991 362   200   197   21.0      5   0.84   3023   3310   6807   4883  15548   2571  264.8  0.438   9215      7  0.000  0.000  0.450  0.015   0.60  73.86   0.59      0   9215     27.9   0.00   0.00   1.25   4.00   4.00   4.00   3.96   3.95   3.93   3.29   3.78   0.00   0.00      0      0      0       0    2067
 1991 363   201   198   21.0      5   0.84   3023   3310   6807   4883  15548   2571  264.8  0.438   9215      7  0.000  0.000  0.450  0.015   0.60  73.86   0.59      0   9215     27.9   0.00   0.00   1.25   4.00   4.00   4.00   3.96   3.94   3.92   3.28   3.77   0.00   0.00      0      0      0       0    2067
 1991 364   202   199   21.0      5   0.84   3023   3310   6807   4883  15548   2571  264.8  0.438   9215      7  0.000  0.000  0.450  0.015   0.60  73.86   0.59      0   9215     27.9   0.00   0.00   1.25   4.00   4.00   4.00   3.95   3.93   3.91   3.27   3.75   0.00   0.00      0      0      0       0    2067

*DSSAT Cropping System Model Ver. 4.0.2.000               Aug 15, 2016; 15:31:22

*RUN   3        : UYMZ                    
 MODEL          : MZCER040 - Maize           
 EXPERIMENT     : UYMZ0199 MZ    late to create DSS                             
 TREATMENT  1   : UYMZ                    

@YEAR DOY   DAS   DAP   L#SD   GSTD   LAID   LWAD   SWAD   GWAD   RWAD   CWAD   G#AD   GWGD   HIAD   PWAD   P#AD   WSPD   WSGD   NSTD   EWSD   LN%D   SH%D   HIPD   PWDD   PWTD     SLAD   CHTD   CWID   RDPD   RL1D   RL2D   RL3D   RL4D   RL5D   RL6D   RL7D   RL8D   RL9D   RL10   CDAD   LDAD   SDAD   SNW0C   SNW1C
[...]
 1992 276   114   111   15.0      3   0.00     36     14      0     17     50      0    0.0  0.000      0      0  0.000  0.000  0.022  0.000   9.11   0.00   0.00      0      0      0.0   0.00   0.00   0.29   0.14   0.12   0.03   0.00   0.00   0.00   0.00   0.00   0.00   0.00      0      0      0       0       2
 1992 277   115   112   16.0      3   0.00     36     14      0     16     50      0    0.0  0.000      0      0  0.000  0.000  0.022  0.000   9.12   0.00   0.00      0      0      0.0   0.00   0.00   0.29   0.14   0.12   0.03   0.00   0.00   0.00   0.00   0.00   0.00   0.00      0      0      0       0       2
 1992 278   116   113   16.0      3   0.00     36     14      0     16     50      0    0.0  0.000      0      0  0.000  0.000  0.022  0.000   9.12   0.00   0.00      0      0      0.0   0.00   0.00   0.29   0.14   0.12   0.03   0.00   0.00   0.00   0.00   0.00   0.00   0.00      0      0      0       0       2
 1992 279   117   114   16.0      3   0.00     36     14      0     16     50      0    0.0  0.000      0      0  0.000  0.000  0.022  0.000   9.12   0.00   0.00      0      0      0.0   0.00   0.00   0.29   0.14   0.12   0.03   0.00   0.00   0.00   0.00   0.00   0.00   0.00      0      0      0       0       2
 1992 280   118   115   16.0      3   0.00     36     14      0     16     50      0    0.0  0.000      0      0  0.000  0.000  0.022  0.000   9.13   0.00   0.00      0      0      0.0   0.00   0.00   0.29   0.14   0.12   0.03   0.00   0.00   0.00   0.00   0.00   0.00   0.00      0      0      0       0       2
 1992 281   119   116   16.0      3   0.00     36     14      0     16     50      0    0.0  0.000      0      0  0.000  0.000  0.022  0.000   9.13   0.00   0.00      0      0      0.0   0.00   0.00   0.29   0.14   0.12   0.03   0.00   0.00   0.00   0.00   0.00   0.00   0.00      0      0      0       0       2
 1992 282   120   117   16.0      3   0.00     35     14      0     16     49      0    0.0  0.000      0      0  0.000  0.000  0.022  0.000   9.13   0.00   0.00      0      0      0.0   0.00   0.00   0.29   0.14   0.12   0.03   0.00   0.00   0.00   0.00   0.00   0.00   0.00      0      0      0       0       2
 1992 283   121   118   16.0      3   0.00     35     14      0     16     49      0    0.0  0.000      0      0  0.000  0.000  0.022  0.000   9.14   0.00   0.00      0      0      0.0   0.00   0.00   0.29   0.14   0.12   0.03   0.00   0.00   0.00   0.00   0.00   0.00   0.00      0      0      0       0       2
 1992 284   122   119   17.0      3   0.00     35     14      0     16     49      0    0.0  0.000      0      0  0.000  0.000  0.022  0.000   9.14   0.00   0.00      0      0      0.0   0.00   0.00   0.29   0.14   0.12   0.03   0.00   0.00   0.00   0.00   0.00   0.00   0.00      0      0      0       0       2
 1992 285   123   120   17.0      3   0.00     35     14      0     16     49      0    0.0  0.000      0      0  0.000  0.000  0.022  0.000   9.14   0.00   0.00      0      0      0.0   0.00   0.00   0.29   0.14   0.12   0.03   0.00   0.00   0.00   0.00   0.00   0.00   0.00      0      0      0       0       2
 1992 286   124   121   17.0      3   0.00     35     14      0     16     49      0    0.0  0.000      0      0  0.000  0.000  0.022  0.000   9.15   0.00   0.00      0      0      0.0   0.00   0.00   0.29   0.14   0.12   0.03   0.00   0.00   0.00   0.00   0.00   0.00   0.00      0      0      0       0       2
 1992 287   125   122   17.0      3   0.00     35     14      0     16     49      0    0.0  0.000      0      0  0.000  0.000  0.022  0.000   9.15   0.00   0.00      0      0      0.0   0.00   0.00   0.29   0.14   0.12   0.03   0.00   0.00   0.00   0.00   0.00   0.00   0.00      0      0      0       0       2
 1992 288   126   123   18.0      3   0.00     35     14      0     16     49      0    0.0  0.000      0      0  0.000  0.000  0.022  0.000   9.15   0.00   0.00      0      0      0.0   0.00   0.00   0.29   0.14   0.12   0.03   0.00   0.00   0.00   0.00   0.00   0.00   0.00      0      0      0       0       2
 1992 289   127   124   18.0      3   0.00     35     14      0     15     49      0    0.0  0.000      0      0  0.000  0.000  0.022  0.000   9.16   0.00   0.00      0      0      0.0   0.00   0.00   0.29   0.14   0.12   0.03   0.00   0.00   0.00   0.00   0.00   0.00   0.00      0      0      0       0       2
 1992 290   128   125   18.0      3   0.00     35     14      0     15     49      0    0.0  0.000      0      0  0.000  0.000  0.022  0.000   9.16   0.00   0.00      0      0      0.0   0.00   0.00   0.29   0.14   0.12   0.03   0.00   0.00   0.00   0.00   0.00   0.00   0.00      0      0      0       0       2
 1992 291   129   126   19.0      3   0.00     35     14      0     15     49      0    0.0  0.000      0      0  0.000  0.000  0.022  0.000   9.16   0.00   0.00      0      0      0.0   0.00   0.00   0.29   0.14   0.12   0.03   0.00   0.00   0.00   0.00   0.00   0.00   0.00      0      0      0       0       2
 1992 292   130   127   19.0      3   0.00     35     14      0     15     49      0    0.0  0.000      0      0  0.000  0.000  0.022  0.049   9.17   0.00   0.00      0      0      0.0   0.00   0.00   0.29   0.14   0.12   0.03   0.00   0.00   0.00   0.00   0.00   0.00   0.00      0      0      0       0       2
 1992 293   131   128   19.0      3   0.00     35     14      0     15     49      0    0.0  0.000      0      0  0.000  0.000  0.022  0.020   9.17   0.00   0.00      0      0      0.0   0.00   0.00   0.29   0.14   0.12   0.03   0.00   0.00   0.00   0.00   0.00   0.00   0.00      0      0      0       0       2
 1992 294   132   129   19.0      3   0.00     35     14      0     15     49      0    0.0  0.000      0      0  0.000  0.000  0.022  0.060   9.17   0.00   0.00      0      0      0.0   0.00   0.00   0.29   0.14   0.12   0.03   0.00   0.00   0.00   0.00   0.00   0.00   0.00      0      0      0       0       2
 1992 295   133   130   19.0      3   0.00     35     14      0     15     49      0    0.0  0.000      0      0  0.000  0.000  0.022  0.046   9.18   0.00   0.00      0      0      0.0   0.00   0.00   0.29   0.14   0.12   0.03   0.00   0.00   0.00   0.00   0.00   0.00   0.00      0      0      0       0       2
 1992 296   134   131   19.0      3   0.00     35     14      0     15     49      0    0.0  0.000      0      0  0.000  0.000  0.022  0.021   9.18   0.00   0.00      0      0      0.0   0.00   0.00   0.29   0.14   0.12   0.03   0.00   0.00   0.00   0.00   0.00   0.00   0.00      0      0      0       0       2
 1992 297   135   132   20.0      3   0.00     35     14      0     15     49      0    0.0  0.000      0      0  0.000  0.000  0.022  0.003   9.18   0.00   0.00      0      0      0.0   0.00   0.00   0.29   0.14   0.12   0.03   0.00   0.00   0.00   0.00   0.00   0.00   0.00      0      0      0       0       2
 1992 298   136   133   20.0      3   0.00     35     14      0     15     49      0    0.0  0.000      0      0  0.000  0.000  0.022  0.000   9.19   0.00   0.00      0      0      0.0   0.00   0.00   0.29   0.14   0.12   0.03   0.00   0.00   0.00   0.00   0.00   0.00   0.00      0      0      0       0       2
 1992 299   137   134   20.0      3   0.00     35     14      0     15     49      0    0.0  0.000      0      0  0.000  0.000  0.022  0.000   9.19   0.00   0.00      0      0      0.0   0.00   0.00   0.29   0.14   0.12   0.03   0.00   0.00   0.00   0.00   0.00   0.00   0.00      0      0      0       0       2
 1992 300   138   135   21.0      3   0.00     35     14      0     15     49      0    0.0  0.000      0      0  0.000  0.000  0.022  0.000   9.19   0.00   0.00      0      0      0.0   0.00   0.00   0.29   0.14   0.12   0.03   0.00   0.00   0.00   0.00   0.00   0.00   0.00      0      0      0       0       2
 1992 301   139   136   21.0      3   0.00     35     14      0     15     49      0    0.0  0.000      0      0  0.000  0.000  0.022  0.000   9.20   0.00   0.00      0      0      0.0   0.00   0.00   0.29   0.14   0.12   0.03   0.00   0.00   0.00   0.00   0.00   0.00   0.00      0      0      0       0       2
 1992 302   140   137   21.0      3   0.00     35     14      0     14     49      0    0.0  0.000      0      0  0.000  0.000  0.022  0.000   9.20   0.00   0.00      0      0      0.0   0.00   0.00   0.29   0.14   0.12   0.03   0.00   0.00   0.00   0.00   0.00   0.00   0.00      0      0      0       0       2
 1992 303   141   138   21.0      3   0.00     35     14      0     14     49      0    0.0  0.000      0      0  0.000  0.000  0.022  0.000   9.20   0.00   0.00      0      0      0.0   0.00   0.00   0.29   0.14   0.12   0.03   0.00   0.00   0.00   0.00   0.00   0.00   0.00      0      0      0       0       2
 1992 304   142   139   21.0      3   0.00     35     14      0     14     49      0    0.0  0.000      0      0  0.000  0.000  0.022  0.000   9.21   0.00   0.00      0      0      0.0   0.00   0.00   0.29   0.14   0.12   0.03   0.00   0.00   0.00   0.00   0.00   0.00   0.00      0      0      0       0       2
 1992 305   143   140   21.0      3   0.00     35     14      0     14     49      0    0.0  0.000      0      0  0.000  0.000  0.022  0.000   9.21   0.00   0.00      0      0      0.0   0.00   0.00   0.29   0.14   0.12   0.03   0.00   0.00   0.00   0.00   0.00   0.00   0.00      0      0      0       0       2
 1992 306   144   141   21.0      3   0.00     35     14      0     14     49      0    0.0  0.000      0      0  0.000  0.000  0.022  0.000   9.21   0.00   0.00      0      0      0.0   0.00   0.00   0.29   0.14   0.12   0.03   0.00   0.00   0.00   0.00   0.00   0.00   0.00      0      0      0       0       2
 1992 307   145   142   21.0      3   0.00     35     14      0     14     49      0    0.0  0.000      0      0  0.000  0.000  0.022  0.000   9.22   0.00   0.00      0      0      0.0   0.00   0.00   0.29   0.14   0.12   0.03   0.00   0.00   0.00   0.00   0.00   0.00   0.00      0      0      0       0       2
 1992 308   146   143   21.0      3   0.00     35     14      0     14     49      0    0.0  0.000      0      0  0.000  0.000  0.022  0.000   9.22   0.00   0.00      0      0      0.0   0.00   0.00   0.29   0.14   0.12   0.03   0.00   0.00   0.00   0.00   0.00   0.00   0.00      0      0      0       0       2
 1992 309   147   144   21.0      3   0.00     35     14      0     14     49      0    0.0  0.000      0      0  0.000  0.000  0.022  0.000   9.22   0.00   0.00      0      0      0.0   0.00   0.00   0.29   0.14   0.12   0.03   0.00   0.00   0.00   0.00   0.00   0.00   0.00      0      0      0       0       2
 1992 310   148   145   21.0      3   0.00     35     14      0     14     49      0    0.0  0.000      0      0  0.000  0.000  0.022  0.018   9.23   0.00   0.00      0      0      0.0   0.00   0.00   0.29   0.14   0.12   0.03   0.00   0.00   0.00   0.00   0.00   0.00   0.00      0      0      0       0       2
 1992 311   149   146   21.0      3   0.00     35     14      0     14     49      0    0.0  0.000      0      0  0.000  0.000  0.022  0.001   9.23   0.00   0.00      0      0      0.0   0.00   0.00   0.29   0.14   0.12   0.03   0.00   0.00   0.00   0.00   0.00   0.00   0.00      0      0      0       0       2
 1992 312   150   147   21.0      3   0.00     35     14      0     14     49      0    0.0  0.000      0      0  0.000  0.000  0.022  0.000   9.23   0.00   0.00      0      0      0.0   0.00   0.00   0.29   0.14   0.12   0.03   0.00   0.00   0.00   0.00   0.00   0.00   0.00      0      0      0       0       2
 1992 313   151   148   21.0      3   0.00     35     14      0     14     49      0    0.0  0.000      0      0  0.000  0.000  0.022  0.000   9.24   0.00   0.00      0      0      0.0   0.00   0.00   0.29   0.14   0.12   0.03   0.00   0.00   0.00   0.00   0.00   0.00   0.00      0      0      0       0       2
 1992 314   152   149   21.0      4   0.00     34     12      0     14     48      0    0.0  0.000      2      0  0.000  0.000  0.022  0.000   9.90   0.00   0.05      0      2      0.0   0.00   0.00   0.29   0.14   0.12   0.03   0.00   0.00   0.00   0.00   0.00   0.00   0.00      0      0      0       0       2
 1992 315   153   150   21.0      4   0.00     33     12      0     14     47      0    0.0  0.000      2      0  0.000  0.000  0.022  0.000  10.11   0.00   0.05      0      2      0.0   0.00   0.00   0.29   0.14   0.12   0.03   0.00   0.00   0.00   0.00   0.00   0.00   0.00      0      0      0       0       2
 1992 316   154   151   21.0      4   0.00     32     12      0     14     46      0    0.0  0.000      2      0  0.000  0.000  0.022  0.000  10.35   0.00   0.05      0      2      0.0   0.00   0.00   0.29   0.14   0.12   0.03   0.00   0.00   0.00   0.00   0.00   0.00   0.00      0      0      0       0       2
 1992 317   155   152   21.0      4   0.00     31     12      0     13     45      0    0.0  0.000      2      0  0.000  0.000  0.022  0.000  10.62   0.00   0.05      0      2      0.0   0.00   0.00   0.29   0.14   0.12   0.03   0.00   0.00   0.00   0.00   0.00   0.00   0.00      0      0      0       0       2
 1992 318   156   153   21.0      4   0.00     30     12      0     13     44      0    0.0  0.000      2      0  0.000  0.000  0.022  0.000  10.91   0.00   0.05      0      2      0.0   0.00   0.00   0.29   0.14   0.12   0.03   0.00   0.00   0.00   0.00   0.00   0.00   0.00      0      0      0       0       2
 1992 319   157   154   21.0      4   0.00     29     12      0     13     43      0    0.0  0.000      2      0  0.000  0.000  0.022  0.000  11.24   0.00   0.05      0      2      0.0   0.00   0.00   0.29   0.14   0.12   0.03   0.00   0.00   0.00   0.00   0.00   0.00   0.00      0      0      0       0       2
 1992 320   158   155   21.0      4   0.00     27     12      0     13     41      0    0.0  0.000      2      0  0.000  0.000  0.022  0.000  11.61   0.00   0.06      0      2      0.0   0.00   0.00   0.29   0.14   0.12   0.03   0.00   0.00   0.00   0.00   0.00   0.00   0.00      0      0      0       0       2
 1992 321   159   156   21.0      4   0.00     26     12      0     13     40      0    0.0  0.000      2      0  0.000  0.000  0.022  0.000  12.02   0.00   0.06      0      2      0.0   0.00   0.00   0.29   0.14   0.12   0.03   0.00   0.00   0.00   0.00   0.00   0.00   0.00      0      0      0       0       2
 1992 322   160   157   21.0      4   0.00     25     12      0     13     39      0    0.0  0.000      2      0  0.000  0.000  0.022  0.040  12.47   0.00   0.06      0      2      0.0   0.00   0.00   0.29   0.14   0.12   0.03   0.00   0.00   0.00   0.00   0.00   0.00   0.00      0      0      0       0       2
 1992 323   161   158   21.0      4   0.00     23     12      0     13     37      0    0.0  0.000      2      0  0.000  0.000  0.022  0.013  12.96   0.00   0.06      0      2      0.0   0.00   0.00   0.29   0.14   0.12   0.03   0.00   0.00   0.00   0.00   0.00   0.00   0.00      0      0      0       0       2
 1992 324   162   159   21.0      4   0.00     22     12      0     13     36      0    0.0  0.000      2      0  0.000  0.000  0.022  0.000  13.52   0.00   0.07      0      2      0.0   0.00   0.00   0.29   0.14   0.12   0.03   0.00   0.00   0.00   0.00   0.00   0.00   0.00      0      0      0       0       2
 1992 325   163   160   21.0      4   0.00     20     12      0     13     34      0    0.0  0.000      2      0  0.000  0.000  0.022  0.000  14.15   0.00   0.07      0      2      0.0   0.00   0.00   0.29   0.14   0.12   0.03   0.00   0.00   0.00   0.00   0.00   0.00   0.00      0      0      0       0       2
 1992 326   164   161   21.0      4   0.00     19     12      0     13     33      0    0.0  0.000      2      0  0.000  0.000  0.022  0.000  14.86   0.00   0.07      0      2      0.0   0.00   0.00   0.29   0.14   0.12   0.03   0.00   0.00   0.00   0.00   0.00   0.00   0.00      0      0      0       0       2
 1992 327   165   162   21.0      4   0.00     17     12      0     13     31      0    0.0  0.000      2      0  0.000  0.000  0.022  0.000  15.67   0.00   0.07      0      2      0.0   0.00   0.00   0.29   0.14   0.12   0.03   0.00   0.00   0.00   0.00   0.00   0.00   0.00      0      0      0       0       2
 1992 328   166   163   21.0      4   0.00     16     12      0     13     30      0    0.0  0.000      2      0  0.000  0.000  0.022  0.000  16.58   0.00   0.08      0      2      0.0   0.00   0.00   0.29   0.14   0.12   0.03   0.00   0.00   0.00   0.00   0.00   0.00   0.00      0      0      0       0       2
 1992 329   167   164   21.0      4   0.00     14     12      0     13     28      0    0.0  0.000      2      0  0.000  0.000  0.022  0.000  17.64   0.00   0.08      0      2      0.0   0.00   0.00   0.29   0.14   0.12   0.03   0.00   0.00   0.00   0.00   0.00   0.00   0.00      0      0      0       0       2
 1992 330   168   165   21.0      5   0.00     14     12      0     13     28    269    0.0  0.000      2      5  0.000  0.000  0.000  0.000  17.64   0.00   0.08      0      2      0.0   0.00   0.00   0.29   0.14   0.12   0.03   0.00   0.00   0.00   0.00   0.00   0.00   0.00      0      0      0       0       2
 1992 331   169   166   21.0      5   0.00     14     12      0     13     28    269    0.0  0.000      2      5  0.000  0.000  0.000  0.000  17.64   0.00   0.08      0      2      0.0   0.00   0.00   0.29   0.14   0.12   0.03   0.00   0.00   0.00   0.00   0.00   0.00   0.00      0      0      0       0       2
 1992 332   170   167   21.0      5   0.00     14     12      0     12     28    269    0.0  0.000      2      5  0.000  0.000  0.000  0.000  17.64   0.00   0.08      0      2      0.0   0.00   0.00   0.29   0.14   0.12   0.03   0.00   0.00   0.00   0.00   0.00   0.00   0.00      0      0      0       0       2
 1992 333   171   168   21.0      5   0.00     14     12      0     12     28    269    0.0  0.000      2      5  0.000  0.000  0.000  0.000  17.64   0.00   0.08      0      2      0.0   0.00   0.00   0.29   0.14   0.12   0.03   0.00   0.00   0.00   0.00   0.00   0.00   0.00      0      0      0       0       2
 1992 334   172   169   21.0      5   0.00     14     12      0     12     28    269    0.0  0.000      2      5  0.000  0.000  0.000  0.000  17.64   0.00   0.08      0      2      0.0   0.00   0.00   0.29   0.14   0.12   0.03   0.00   0.00   0.00   0.00   0.00   0.00   0.00      0      0      0       0       2
 1992 335   173   170   21.0      5   0.00     14     12      0     12     28    269    0.0  0.000      2      5  0.000  0.000  0.000  0.000  17.64   0.00   0.08      0      2      0.0   0.00   0.00   0.29   0.14   0.12   0.03   0.00   0.00   0.00   0.00   0.00   0.00   0.00      0      0      0       0       2
 1992 336   174   171   21.0      5   0.00     14     12      0     12     28    269    0.0  0.000      2      5  0.000  0.000  0.000  0.000  17.64   0.00   0.08      0      2      0.0   0.00   0.00   0.29   0.14   0.12   0.03   0.00   0.00   0.00   0.00   0.00   0.00   0.00      0      0      0       0       2
 1992 337   175   172   21.0      5   0.00     14     12      0     12     28    269    0.0  0.000      2      5  0.000  0.000  0.000  0.000  17.64   0.00   0.08      0      2      0.0   0.00   0.00   0.29   0.14   0.12   0.03   0.00   0.00   0.00   0.00   0.00   0.00   0.00      0      0      0       0       2
 1992 338   176   173   21.0      5   0.00     14     12      0     12     28    269    0.0  0.000      2      5  0.000  0.000  0.000  0.000  17.64   0.00   0.08      0      2      0.0   0.00   0.00   0.29   0.14   0.12   0.03   0.00   0.00   0.00   0.00   0.00   0.00   0.00      0      0      0       0       2
