*SOIL NITROGEN DAILY OUTPUT FILE

*DSSAT Cropping System Model Ver. 4.0.2.000               Aug 15, 2016; 15:31:22

*RUN   1        : UYMZ                    
 MODEL          : MZCER040 - Maize           
 EXPERIMENT     : UYMZ0199 MZ    late to create DSS                             
 TREATMENT  1   : UYMZ                    

@YEAR DOY   DAS  NAPC  NI#M    NLCC   NIAD    NOAD   NITD   NHTD  NI1D  NI2D  NI3D  NI4D  NI5D  NI6D  NI7D  NI8D  NI9D  NI10  NH1D  NH2D  NH3D  NH4D  NH5D  NH6D  NH7D  NH8D  NH9D  NH10    NMNC    NITC    NDNC    NIMC    AMLC
 1990 162     0     0     0     0.0   99.1   16646   76.0   23.1  15.6  15.2  15.1   8.6   4.6   0.0   0.1   0.1   0.0   0.0   0.9   1.4   1.5   1.5   1.5  1.50  1.47  1.46  0.00  0.00    0.37    1.21    0.00    0.00    0.00
 1990 163     1     0     0     0.0   99.5   16645   77.1   22.4  16.0  15.3  15.2   8.6   4.6   0.0   0.1   0.1   0.0   0.0   0.6   1.3   1.4   1.4   1.4  1.51  1.43  1.41  0.00  0.00    0.75    2.27    0.00    0.00    0.00
 1990 164     2     0     0     0.0   99.9   16645   78.0   21.8  16.2  15.5  15.3   8.7   4.7   0.1   0.1   0.2   0.0   0.0   0.4   1.2   1.4   1.4   1.4  1.51  1.40  1.37  0.00  0.00    1.11    3.22    0.00    0.00    0.00
 1990 165     3     0     0     0.0  100.3   16645   78.9   21.3   6.2  15.5  18.8   8.8   4.7   0.1   0.2   0.2   0.0   0.0   0.3   1.1   1.4   1.3   1.3  1.51  1.37  1.33  0.00  0.00    1.49    4.11    0.00    0.00    0.00
 1990 166     4     2     2     0.0  102.6   16644   80.6   22.0   8.1  15.0  19.2   8.9   4.8   0.1   0.2   0.2   0.0   0.0   2.0   1.1   1.4   1.3   1.3  1.51  1.34  1.29  0.00  0.00    1.88    4.80    0.00    0.00    0.05
 1990 167     5     2     2     0.0  102.9   16644   81.7   21.2   8.9  14.8  19.4   9.0   4.8   0.1   0.3   0.3   0.0   0.0   1.1   1.1   1.4   1.2   1.3  1.52  1.31  1.26  0.00  0.00    2.28    5.94    0.00    0.00    0.13
 1990 168     6     2     2     0.0  103.2   16643   82.8   20.4   9.4  14.8  19.4   9.2   4.9   0.1   0.3   0.3   0.0   0.0   0.5   1.1   1.3   1.2   1.2  1.52  1.29  1.22  0.00  0.00    2.69    6.99    0.00    0.00    0.21
 1990 169     7     2     2     0.0  103.6   16643   83.8   19.9   9.6  15.0  19.5   9.3   4.9   0.1   0.3   0.4   0.0   0.0   0.2   1.0   1.3   1.2   1.2  1.52  1.26  1.18  0.00  0.00    3.15    7.95    0.00    0.00    0.27
 1990 170     8     2     2     0.0  104.1   16642   84.7   19.4   9.8  15.1  19.5   9.5   5.0   0.2   0.4   0.4   0.0   0.0   0.0   0.9   1.3   1.1   1.2  1.52  1.23  1.15  0.00  0.00    3.64    8.85    0.00    0.00    0.35
 1990 171     9     2     2     0.0  104.5   16642   85.5   19.1   9.8  15.2  19.5   9.6   5.0   0.2   0.4   0.4   0.0   0.0   0.1   0.8   1.3   1.1   1.1  1.53  1.20  1.11  0.00  0.00    4.14    9.66    0.00    0.00    0.35
 1990 172    10     2     2     0.0  105.0   16641   86.3   18.8   9.9  15.3  19.6   9.7   5.1   0.2   0.4   0.5   0.0   0.0   0.1   0.8   1.3   1.1   1.1  1.53  1.18  1.08  0.00  0.00    4.62   10.46    0.00    0.00    0.37
 1990 173    11     2     2     0.0  105.5   16641   87.0   18.4  10.1  15.4  19.6   9.8   5.1   0.2   0.5   0.5   0.0   0.0   0.1   0.7   1.3   1.0   1.1  1.53  1.15  1.05  0.00  0.00    5.09   11.21    0.00    0.00    0.38
 1990 174    12     2     2     0.0  105.9   16641   87.7   18.2  10.2  15.4  19.7   9.9   5.2   0.2   0.5   0.5   0.0   0.0   0.1   0.7   1.3   1.0   1.0  1.53  1.13  1.02  0.00  0.00    5.52   11.91    0.00    0.00    0.40
 1990 175    13     2     2     0.0  106.3   16640   88.4   17.9  10.3  15.4  19.7  10.0   5.2   0.2   0.6   0.6   0.0   0.0   0.0   0.7   1.2   1.0   1.0  1.54  1.11  0.99  0.00  0.00    5.91   12.56    0.00    0.00    0.41
 1990 176    14     2     2     0.0  106.7   16640   89.0   17.7  10.4  15.5  19.7  10.1   5.2   0.3   0.6   0.6   0.0   0.0   0.1   0.6   1.2   1.0   1.0  1.54  1.08  0.96  0.00  0.00    6.31   13.19    0.00    0.00    0.41
 1990 177    15     2     2     0.0  107.1   16639   89.6   17.4  10.6  15.5  19.8  10.2   5.3   0.3   0.6   0.6   0.0   0.0   0.1   0.6   1.2   0.9   1.0  1.54  1.06  0.94  0.00  0.00    6.72   13.83    0.00    0.00    0.41
 1990 178    16     2     2     0.0  107.5   16639   90.3   17.2  10.7  15.5  19.8  10.3   5.3   0.3   0.6   0.7   0.0   0.0   0.1   0.6   1.2   0.9   0.9  1.54  1.04  0.91  0.00  0.00    7.17   14.49    0.00    0.00    0.41
 1990 179    17     2     2     0.0  108.0   16638   91.0   17.0  10.9  15.6  19.9  10.4   5.4   0.3   0.7   0.7   0.0   0.0   0.1   0.6   1.2   0.9   0.9  1.55  1.02  0.88  0.00  0.00    7.63   15.16    0.00    0.00    0.42
 1990 180    18     2     2     0.0  108.5   16638   91.7   16.8  11.0  15.6  20.0  10.5   5.4   0.3   0.7   0.7   0.0   0.0   0.1   0.6   1.2   0.9   0.9  1.55  1.00  0.86  0.00  0.00    8.12   15.85    0.00    0.00    0.42
 1990 181    19     2     2     0.0  109.0   16637   92.3   16.6  11.2  15.6  20.0  10.5   5.4   0.3   0.7   0.8   0.0   0.0   0.1   0.6   1.2   0.9   0.9  1.55  0.98  0.83  0.00  0.00    8.62   16.53    0.00    0.00    0.42
 1990 182    20     2     2     0.0  109.5   16637   93.0   16.4  11.4  15.7  20.1  10.6   5.5   0.4   0.8   0.8   0.0   0.0   0.1   0.5   1.2   0.8   0.9  1.55  0.96  0.81  0.00  0.00    9.13   17.22    0.00    0.00    0.42
 1990 183    21     2     2     0.0  110.0   16636   93.7   16.3  11.5  15.7  20.2  10.7   5.5   0.4   0.8   0.8   0.0   0.0   0.1   0.5   1.2   0.8   0.9  1.56  0.94  0.79  0.00  0.00    9.64   17.90    0.00    0.00    0.43
 1990 184    22     2     2     0.0  110.5   16636   94.4   16.1  11.7  15.7  20.3  10.8   5.6   0.4   0.8   0.8   0.0   0.0   0.1   0.5   1.2   0.8   0.8  1.56  0.92  0.77  0.00  0.00   10.16   18.58    0.00    0.00    0.43
 1990 185    23     2     2     0.0  111.0   16635   95.0   15.9  11.9  15.8  20.3  10.8   5.6   0.4   0.9   0.9   0.0   0.0   0.1   0.5   1.2   0.8   0.8  1.56  0.91  0.74  0.00  0.00   10.66   19.23    0.00    0.00    0.43
 1990 186    24     2     2     0.0  111.5   16635   95.7   15.8  12.0  15.8  20.4  10.9   5.6   0.4   0.9   0.9   0.0   0.0   0.1   0.5   1.2   0.8   0.8  1.56  0.89  0.72  0.00  0.00   11.16   19.88    0.00    0.00    0.43
 1990 187    25     2     2     0.0  111.8   16634   96.1   15.7  12.1  15.7  20.5  11.0   5.7   0.4   0.9   0.9   0.0   0.0   0.1   0.5   1.2   0.8   0.8  1.56  0.87  0.70  0.00  0.00   11.67   20.53    0.00    0.00    0.44
 1990 188    26     2     2     0.0  112.3   16634   96.8   15.5  12.2  15.8  20.6  11.0   5.7   0.5   0.9   0.9   0.0   0.0   0.1   0.5   1.2   0.8   0.8  1.57  0.86  0.68  0.00  0.00   12.18   21.17    0.00    0.00    0.44
 1990 189    27     2     2     0.0  112.8   16633   97.4   15.4  12.4  15.8  20.7  11.1   5.7   0.5   1.0   1.0   0.0   0.0   0.1   0.5   1.2   0.7   0.8  1.57  0.84  0.67  0.00  0.00   12.69   21.80    0.00    0.00    0.44
 1990 190    28     2     2     0.0  113.4   16633   98.1   15.3  12.6  15.8  20.8  11.1   5.8   0.5   1.0   1.0   0.0   0.0   0.1   0.5   1.2   0.7   0.8  1.57  0.83  0.65  0.00  0.00   13.22   22.45    0.00    0.00    0.44
 1990 191    29     2     2     0.0  113.9   16632   98.7   15.2  12.8  15.9  20.9  11.2   5.8   0.5   1.0   1.0   0.0   0.0   0.1   0.5   1.2   0.7   0.7  1.57  0.81  0.63  0.00  0.00   13.77   23.11    0.00    0.00    0.45
 1990 192    30     2     2     0.0  114.4   16632   99.4   15.1  12.9  15.9  21.0  11.2   5.8   0.5   1.0   1.0   0.0   0.0   0.1   0.5   1.2   0.7   0.7  1.58  0.80  0.61  0.00  0.00   14.29   23.74    0.00    0.00    0.45
 1990 193    31     2     2     0.0  114.9   16631  100.0   14.9  13.1  16.0  21.0  11.3   5.9   0.6   1.1   1.1   0.0   0.0   0.1   0.5   1.2   0.7   0.7  1.58  0.78  0.60  0.00  0.00   14.80   24.35    0.00    0.00    0.45
 1990 194    32     2     2     0.0  115.4   16631  100.6   14.8  13.2  16.0  21.1  11.3   5.9   0.6   1.1   1.1   0.0   0.0   0.1   0.5   1.2   0.7   0.7  1.58  0.77  0.58  0.00  0.00   15.28   24.96    0.00    0.00    0.45
 1990 195    33     2     2     0.0  115.8   16630  101.1   14.7  13.4  16.0  21.2  11.4   5.9   0.6   1.1   1.1   0.0   0.0   0.1   0.5   1.1   0.7   0.7  1.58  0.76  0.57  0.00  0.00   15.76   25.55    0.00    0.00    0.46
 1990 196    34     2     2     0.0  116.3   16630  101.7   14.6   6.7  16.7  23.2  11.4   6.0   0.6   1.1   1.1   0.0   0.0   0.1   0.4   1.1   0.7   0.7  1.58  0.75  0.55  0.00  0.00   16.24   26.14    0.00    0.00    0.46
 1990 197    35     2     2     0.0  116.8   16629  102.3   14.6   5.4  15.3  24.5  11.5   6.0   0.6   1.2   1.1   0.0   0.0   0.1   0.5   1.1   0.7   0.7  1.59  0.73  0.54  0.00  0.00   16.77   26.67    0.00    0.00    0.46
 1990 198    36     2     2     0.0  117.4   16629  102.6   14.7   5.4  15.2  24.2  12.0   6.0   0.6   1.2   1.1   0.0   0.0   0.2   0.6   1.2   0.7   0.7  1.59  0.72  0.52  0.00  0.00   17.31   27.05    0.00    0.00    0.46
 1990 199    37     2     2     0.0  117.9   16628  103.2   14.7   4.8  14.9  24.3  12.4   6.0   0.7   1.2   1.2   0.0   0.0   0.1   0.7   1.2   0.7   0.7  1.59  0.71  0.51  0.00  0.00   17.83   27.61    0.00    0.00    0.47
 1990 200    38     2     2     0.0  118.3   16628  103.5   14.8   4.8  14.7  24.0  12.8   6.1   0.7   1.2   1.2   0.0   0.0   0.2   0.7   1.3   0.7   0.7  1.59  0.70  0.50  0.00  0.00   18.32   27.98    0.00    0.00    0.47
 1990 201    39     2     2     0.0  118.7   16627  103.8   14.9   5.0  14.5  23.9  13.1   6.1   0.7   1.3   1.2   0.0   0.0   0.1   0.8   1.3   0.7   0.7  1.59  0.69  0.49  0.00  0.00   18.76   28.37    0.04    0.00    0.47
 1990 202    40     2     2     0.0  119.1   16627  104.4   14.7   5.3  14.5  23.9  13.2   6.2   0.7   1.3   1.2   0.0   0.0   0.1   0.7   1.3   0.6   0.7  1.60  0.68  0.47  0.00  0.00   19.15   28.90    0.04    0.00    0.48
 1990 203    41     2     2     0.0  119.4   16627  104.9   14.6   5.6  14.4  23.9  13.2   6.2   0.7   1.3   1.2   0.0   0.0   0.1   0.7   1.3   0.6   0.7  1.60  0.67  0.46  0.00  0.00   19.49   29.39    0.04    0.00    0.48
 1990 204    42     2     2     0.0  119.7   16626  105.3   14.4   5.8  14.4  23.9  13.3   6.2   0.7   1.3   1.2   0.0   0.0   0.1   0.6   1.3   0.6   0.6  1.60  0.66  0.45  0.00  0.00   19.79   29.83    0.04    0.00    0.48
 1990 205    43     2     2     0.0  120.0   16626  105.7   14.3   6.1  14.3  23.9  13.3   6.3   0.8   1.3   1.3   0.0   0.0   0.1   0.6   1.2   0.6   0.6  1.60  0.65  0.44  0.00  0.00   20.09   30.26    0.04    0.00    0.49
 1990 206    44     2     2     0.0  120.4   16626  106.2   14.2   6.4  14.3  24.0  13.4   6.3   0.8   1.3   1.3   0.0   0.0   0.1   0.6   1.2   0.6   0.6  1.60  0.64  0.43  0.00  0.00   20.42   30.70    0.04    0.00    0.49
 1990 207    45     2     2     0.0  120.7   16625  106.6   14.1   6.6  14.2  24.0  13.4   6.3   0.8   1.4   1.3   0.0   0.0   0.1   0.6   1.2   0.6   0.6  1.60  0.64  0.42  0.00  0.00   20.75   31.13    0.04    0.00    0.49
 1990 208    46     2     2     0.0  121.0   16625  107.0   14.0   6.9  14.2  24.1  13.4   6.4   0.8   1.4   1.3   0.0   0.0   0.1   0.5   1.2   0.6   0.6  1.60  0.63  0.41  0.00  0.00   21.09   31.57    0.04    0.00    0.49
 1990 209    47     2     2     0.0  121.4   16625  107.5   13.9   7.1  14.1  24.1  13.5   6.4   0.8   1.4   1.3   0.0   0.0   0.1   0.5   1.2   0.6   0.6  1.60  0.62  0.40  0.00  0.00   21.48   32.02    0.04    0.00    0.49
 1990 210    48     2     2     0.0  121.8   16624  107.9   13.8   7.3  14.1  24.2  13.5   6.5   0.8   1.4   1.3   0.0   0.0   0.1   0.5   1.2   0.6   0.6  1.61  0.61  0.40  0.00  0.00   21.85   32.47    0.04    0.00    0.49
 1990 211    49     2     2     0.0  122.1   16624  108.4   13.8   7.5  14.1  24.3  13.5   6.5   0.9   1.4   1.3   0.0   0.0   0.1   0.5   1.2   0.6   0.6  1.61  0.61  0.39  0.00  0.00   22.21   32.91    0.04    0.00    0.50
 1990 212    50     2     2     0.0  122.5   16623  108.8   13.7   7.7  14.0  24.3  13.6   6.5   0.9   1.5   1.4   0.0   0.0   0.1   0.5   1.2   0.6   0.6  1.61  0.60  0.38  0.00  0.00   22.59   33.36    0.04    0.00    0.50
 1990 213    51     2     2     0.0  122.9   16623  109.3   13.6   7.9  14.0  24.4  13.6   6.6   0.9   1.5   1.4   0.0   0.0   0.1   0.5   1.2   0.6   0.6  1.61  0.59  0.37  0.00  0.00   22.98   33.81    0.04    0.00    0.50

*DSSAT Cropping System Model Ver. 4.0.2.000               Aug 15, 2016; 15:31:22

*RUN   2        : UYMZ                    
 MODEL          : MZCER040 - Maize           
 EXPERIMENT     : UYMZ0199 MZ    late to create DSS                             
 TREATMENT  1   : UYMZ                    

@YEAR DOY   DAS  NAPC  NI#M    NLCC   NIAD    NOAD   NITD   NHTD  NI1D  NI2D  NI3D  NI4D  NI5D  NI6D  NI7D  NI8D  NI9D  NI10  NH1D  NH2D  NH3D  NH4D  NH5D  NH6D  NH7D  NH8D  NH9D  NH10    NMNC    NITC    NDNC    NIMC    AMLC
 1991 162     0     0     0     0.0   99.2   16646   76.2   23.0  15.7  15.2  15.1   8.6   4.6   0.0   0.1   0.1   0.0   0.0   0.8   1.4   1.5   1.4   1.5  1.50  1.47  1.46  0.00  0.00    0.44    1.37    0.00    0.00    0.00
 1991 163     1     0     0     0.0   99.7   16645   77.4   22.3  16.1  15.4  15.2   8.7   4.6   0.0   0.1   0.1   0.0   0.0   0.5   1.2   1.4   1.4   1.4  1.51  1.43  1.41  0.00  0.00    0.89    2.56    0.00    0.00    0.00
 1991 164     2     0     0     0.0  100.1   16645   78.4   21.7  16.4  15.6  15.3   8.7   4.7   0.1   0.1   0.2   0.0   0.0   0.3   1.1   1.4   1.4   1.4  1.51  1.40  1.37  0.00  0.00    1.36    3.63    0.00    0.00    0.00
 1991 165     3     0     0     0.0  100.6   16644   79.4   21.2   6.1  15.8  18.9   8.8   4.7   0.1   0.2   0.2   0.0   0.0   0.2   1.0   1.4   1.3   1.3  1.51  1.37  1.33  0.00  0.00    1.82    4.61    0.00    0.00    0.00
 1991 166     4     2     2     0.0  103.0   16644   81.2   21.9   7.9  15.2  19.3   9.0   4.8   0.1   0.2   0.2   0.0   0.0   2.0   1.1   1.4   1.3   1.3  1.51  1.34  1.29  0.00  0.00    2.31    5.37    0.00    0.00    0.04
 1991 167     5     2     2     0.0  103.5   16643   82.6   20.9   6.9  14.0  20.8   9.2   4.9   0.1   0.3   0.3   0.0   0.0   0.8   1.1   1.4   1.2   1.2  1.52  1.31  1.25  0.00  0.00    2.81    6.78    0.00    0.00    0.08
 1991 168     6     2     2     0.0  104.0   16643   83.2   20.7   6.9  13.9  20.5   9.7   4.9   0.1   0.3   0.3   0.0   0.0   0.7   1.2   1.4   1.2   1.2  1.52  1.28  1.21  0.00  0.00    3.32    7.43    0.00    0.00    0.11
 1991 169     7     2     2     0.0  104.5   16642   84.2   20.2   6.5  13.9  20.6  10.0   5.0   0.1   0.3   0.4   0.0   0.0   0.3   1.2   1.4   1.1   1.2  1.52  1.25  1.18  0.00  0.00    3.83    8.43    0.00    0.00    0.15
 1991 170     8     2     2     0.0  104.9   16642   84.8   20.1   6.6  13.6  20.4  10.5   5.0   0.2   0.4   0.4   0.0   0.0   0.3   1.3   1.5   1.1   1.1  1.53  1.22  1.14  0.00  0.00    4.40    9.07    0.12    0.00    0.19
 1991 171     9     2     2     0.0  105.3   16641   85.6   19.7   6.7  13.4  20.4  10.7   5.1   0.2   0.4   0.4   0.0   0.0   0.0   1.3   1.4   1.1   1.1  1.53  1.19  1.11  0.00  0.00    4.95    9.93    0.19    0.00    0.26
 1991 172    10     2     2     0.0  105.8   16641   86.5   19.3   6.8  13.6  20.4  10.9   5.1   0.2   0.5   0.5   0.0   0.0   0.0   1.2   1.4   1.0   1.1  1.53  1.17  1.07  0.00  0.00    5.48   10.87    0.19    0.00    0.29
 1991 173    11     2     2     0.0  106.3   16640   87.4   18.9   6.7  13.8  20.4  11.1   5.2   0.2   0.5   0.5   0.0   0.0   0.1   1.1   1.4   1.0   1.0  1.53  1.14  1.04  0.00  0.00    5.98   11.74    0.19    0.00    0.30
 1991 174    12     2     2     0.0  106.7   16640   88.2   18.5   6.8  13.9  20.4  11.3   5.2   0.2   0.5   0.6   0.0   0.0   0.1   1.0   1.4   1.0   1.0  1.54  1.12  1.01  0.00  0.00    6.45   12.55    0.19    0.00    0.31
 1991 175    13     2     2     0.0  107.1   16639   88.9   18.2   7.0  14.0  20.4  11.4   5.3   0.2   0.6   0.6   0.0   0.0   0.1   0.9   1.4   1.0   1.0  1.54  1.10  0.98  0.00  0.00    6.87   13.26    0.19    0.00    0.33
 1991 176    14     2     2     0.0  107.5   16639   89.6   18.0   7.2  14.0  20.4  11.5   5.3   0.3   0.6   0.6   0.0   0.0   0.1   0.9   1.3   0.9   1.0  1.54  1.07  0.95  0.00  0.00    7.27   13.94    0.19    0.00    0.33
 1991 177    15     2     2     0.0  107.9   16638   90.2   17.7   7.4  14.0  20.4  11.6   5.4   0.3   0.6   0.7   0.0   0.0   0.1   0.8   1.3   0.9   0.9  1.54  1.05  0.93  0.00  0.00    7.69   14.62    0.19    0.00    0.33
 1991 178    16     2     2     0.3  108.1   16638   90.6   17.4   2.0   7.5  15.6  12.4   9.1   2.5   0.9   0.8   0.0   0.0   0.1   0.8   1.3   0.9   0.9  1.55  1.03  0.90  0.00  0.00    8.14   15.32    0.19    0.00    0.33
 1991 179    17     2     2     0.6  108.2   16637   90.4   17.8   1.5   6.5  14.6  12.1   9.5   3.0   1.1   0.9   0.0   0.0   0.1   0.8   1.4   0.9   0.9  1.56  1.04  0.90  0.00  0.00    8.60   15.42    0.19    0.00    0.33
 1991 180    18     2     2     1.0  108.3   16637   90.1   18.2   1.5   6.4  14.2  11.8   9.4   3.2   1.3   0.9   0.0   0.0   0.2   0.9   1.4   0.9   1.0  1.58  1.04  0.90  0.00  0.00    9.07   15.53    0.19    0.00    0.34
 1991 181    19     2     2     1.3  108.5   16636   90.1   18.4   1.6   6.4  14.0  11.6   9.3   3.3   1.4   0.9   0.0   0.0   0.1   0.9   1.5   1.0   1.0  1.59  1.05  0.90  0.00  0.00    9.55   15.74    0.19    0.00    0.34
 1991 182    20     2     2     1.4  108.8   16636   90.3   18.6   1.8   6.4  14.0  11.4   9.3   3.4   1.5   1.0   0.0   0.0   0.1   0.9   1.6   1.0   1.0  1.61  1.05  0.89  0.00  0.00   10.02   16.07    0.19    0.00    0.34
 1991 183    21     2     2     1.5  109.2   16636   90.5   18.7   2.0   6.5  14.0  11.4   9.2   3.4   1.5   1.0   0.0   0.0   0.1   0.8   1.6   1.0   1.0  1.62  1.05  0.88  0.00  0.00   10.49   16.42    0.25    0.00    0.35
 1991 184    22     2     2     1.6  109.4   16635   90.7   18.7   2.2   6.4  14.1  11.3   9.2   3.4   1.6   1.0   0.0   0.0   0.1   0.8   1.6   1.0   1.0  1.64  1.05  0.88  0.00  0.00   10.98   16.91    0.28    0.00    0.35
 1991 185    23     2     2     1.6  109.8   16635   91.1   18.7   2.4   6.4  14.2  11.4   9.2   3.4   1.6   1.0   0.0   0.0   0.1   0.7   1.5   1.0   1.0  1.65  1.05  0.87  0.00  0.00   11.45   17.38    0.29    0.00    0.35
 1991 186    24     2     2     1.6  110.2   16634   91.6   18.7   2.6   6.5  14.2  11.4   9.2   3.4   1.6   1.0   0.0   0.0   0.1   0.7   1.5   1.0   1.1  1.67  1.05  0.87  0.00  0.00   11.89   17.82    0.31    0.00    0.36
 1991 187    25     2     2     1.6  110.6   16634   92.0   18.6   2.8   6.6  14.3  11.4   9.2   3.4   1.6   1.0   0.0   0.0   0.1   0.7   1.5   1.0   1.1  1.68  1.05  0.86  0.00  0.00   12.31   18.30    0.32    0.00    0.36
 1991 188    26     2     2     1.6  111.0   16633   92.5   18.5   3.0   6.6  14.4  11.5   9.3   3.4   1.6   1.0   0.0   0.0   0.1   0.6   1.5   1.0   1.1  1.69  1.05  0.85  0.00  0.00   12.72   18.76    0.33    0.00    0.36
 1991 189    27     2     2     1.6  111.4   16633   92.9   18.5   3.2   6.7  14.4  11.5   9.3   3.4   1.6   1.0   0.0   0.0   0.1   0.6   1.4   1.0   1.1  1.71  1.05  0.85  0.00  0.00   13.11   19.20    0.34    0.00    0.36
 1991 190    28     2     2     1.6  111.8   16633   93.4   18.5   3.4   6.7  14.5  11.6   9.3   3.4   1.6   1.0   0.0   0.0   0.1   0.6   1.4   1.0   1.1  1.72  1.06  0.84  0.00  0.00   13.54   19.66    0.35    0.00    0.37
 1991 191    29     2     2     1.6  112.3   16632   93.9   18.4   2.6   7.0  14.7  11.6   9.3   3.4   1.6   1.1   0.0   0.0   0.1   0.6   1.4   0.9   1.1  1.73  1.06  0.84  0.00  0.00   14.03   20.17    0.36    0.00    0.37
 1991 192    30     2     2     1.6  112.8   16632   94.3   18.5   2.6   6.9  14.9  11.7   9.3   3.4   1.6   1.1   0.0   0.0   0.2   0.6   1.4   0.9   1.1  1.75  1.06  0.83  0.00  0.00   14.52   20.57    0.37    0.00    0.37
 1991 193    31     2     2     1.6  113.3   16631   94.7   18.6   2.7   6.8  15.1  11.7   9.3   3.4   1.6   1.1   0.0   0.0   0.1   0.7   1.4   0.9   1.1  1.76  1.06  0.82  0.00  0.00   14.99   21.00    0.37    0.00    0.37
 1991 194    32     2     2     1.6  113.7   16631   95.0   18.6   2.8   6.9  15.1  11.8   9.3   3.4   1.6   1.1   0.0   0.0   0.1   0.7   1.4   0.9   1.1  1.78  1.06  0.82  0.00  0.00   15.43   21.36    0.38    0.00    0.38
 1991 195    33     2     2     1.6  114.0   16630   95.5   18.6   3.0   6.9  15.2  11.8   9.4   3.4   1.7   1.1   0.0   0.0   0.1   0.6   1.4   0.9   1.2  1.79  1.06  0.81  0.00  0.00   15.81   21.79    0.39    0.00    0.38
 1991 196    34     2     2     1.6  114.4   16630   95.8   18.5   3.2   6.9  15.2  11.9   9.4   3.4   1.7   1.1   0.0   0.0   0.1   0.6   1.4   0.8   1.2  1.80  1.06  0.81  0.00  0.00   16.14   22.16    0.39    0.00    0.38
 1991 197    35     2     2     1.6  114.7   16630   96.2   18.5   3.3   6.9  15.3  11.9   9.4   3.4   1.7   1.1   0.0   0.0   0.1   0.6   1.3   0.8   1.2  1.81  1.06  0.80  0.00  0.00   16.45   22.52    0.40    0.00    0.39
 1991 198    36     2     2     1.6  115.0   16629   96.5   18.5   3.5   6.9  15.4  11.9   9.4   3.4   1.7   1.1   0.0   0.0   0.1   0.6   1.3   0.8   1.2  1.82  1.06  0.80  0.00  0.00   16.79   22.89    0.40    0.00    0.39
 1991 199    37     2     2     2.3  114.7   16629   96.2   18.5   1.2   4.2  11.8  11.2  10.4   5.0   2.6   1.5   0.0   0.0   0.1   0.5   1.3   0.8   1.2  1.84  1.06  0.79  0.00  0.00   17.19   23.29    0.41    0.00    0.39
 1991 200    38     2     2     2.6  114.6   16628   95.8   18.8   1.0   3.9  11.2  10.9  10.4   5.2   2.8   1.6   0.0   0.0   0.1   0.6   1.4   0.8   1.2  1.85  1.07  0.79  0.00  0.00   17.63   23.39    0.58    0.00    0.39
 1991 201    39     2     2     2.9  114.6   16628   95.5   19.1   1.0   3.8  11.0  10.8  10.3   5.2   2.9   1.7   0.0   0.0   0.1   0.6   1.4   0.8   1.2  1.87  1.07  0.79  0.00  0.00   18.09   23.53    0.77    0.00    0.39
 1991 202    40     2     2     6.9  111.0   16627   91.5   19.5   0.4   1.9   7.1   8.3   9.2   6.3   4.7   3.0   0.0   0.0   0.1   0.7   1.5   0.9   1.2  1.89  1.08  0.79  0.00  0.00   18.62   23.70    0.94    0.00    0.40
 1991 203    41     2     2    12.8  105.4   16627   85.5   19.9   0.2   1.2   5.1   6.4   7.8   6.6   5.3   3.9   0.0   0.0   0.2   0.8   1.6   0.9   1.3  1.90  1.08  0.79  0.00  0.00   19.14   23.80    1.15    0.00    0.40
 1991 204    42     2     2    16.2  102.1   16626   81.9   20.2   0.1   0.8   4.1   5.5   7.1   6.6   5.6   4.3   0.0   0.0   0.2   0.8   1.6   0.9   1.3  1.92  1.09  0.79  0.00  0.00   19.60   23.92    1.49    0.00    0.40
 1991 205    43     2     2    18.1  100.3   16626   79.8   20.5   0.2   0.8   3.9   5.2   6.8   6.4   5.5   4.3   0.0   0.0   0.2   0.9   1.7   0.9   1.3  1.93  1.09  0.79  0.00  0.00   20.04   24.09    1.80    0.00    0.41
 1991 206    44     2     2    19.4   99.3   16626   78.6   20.7   0.3   0.8   3.9   5.1   6.6   6.3   5.4   4.3   0.0   0.0   0.1   0.9   1.7   1.0   1.3  1.95  1.10  0.79  0.00  0.00   20.48   24.29    1.98    0.00    0.41
 1991 207    45     2     2    20.0   98.9   16625   78.1   20.8   0.4   0.9   3.9   5.0   6.5   6.2   5.4   4.3   0.0   0.0   0.1   0.9   1.8   1.0   1.3  1.96  1.10  0.78  0.00  0.00   20.88   24.60    2.08    0.00    0.42
 1991 208    46     2     2    20.4   98.9   16625   78.0   20.9   0.5   1.0   3.9   5.0   6.5   6.2   5.4   4.3   0.0   0.0   0.1   0.8   1.8   1.0   1.3  1.97  1.10  0.78  0.00  0.00   21.33   24.94    2.13    0.00    0.42
 1991 209    47     2     2    20.6   99.2   16624   78.3   20.9   0.6   1.2   4.0   5.0   6.5   6.1   5.4   4.3   0.0   0.0   0.1   0.8   1.8   1.0   1.3  1.99  1.10  0.77  0.00  0.00   21.86   25.51    2.16    0.00    0.42
 1991 210    48     2     2    20.6   99.8   16624   79.0   20.8   0.7   1.3   4.2   5.0   6.5   6.2   5.4   4.3   0.0   0.0   0.1   0.7   1.7   1.0   1.4  2.00  1.10  0.77  0.00  0.00   22.46   26.17    2.18    0.00    0.42
 1991 211    49     2     2    20.6  100.2   16623   79.5   20.7   0.8   1.5   4.3   5.1   6.5   6.2   5.4   4.3   0.0   0.0   0.1   0.6   1.6   1.1   1.4  2.02  1.10  0.76  0.00  0.00   23.12   26.87    2.20    0.00    0.43
 1991 212    50     2     2    20.7  100.5   16622   79.9   20.5   0.5   1.4   4.1   5.3   6.7   6.2   5.4   4.3   0.0   0.0   0.1   0.6   1.6   1.0   1.4  2.03  1.10  0.76  0.00  0.00   23.79   27.68    2.21    0.00    0.43
 1991 213    51     2     2    21.6   99.9   16622   79.0   20.9   0.6   1.3   4.0   5.1   6.5   6.2   5.5   4.4   0.0   0.0   0.1   0.7   1.6   1.0   1.4  2.05  1.10  0.75  0.00  0.00   24.42   27.93    2.26    0.00    0.43
 1991 214    52     2     2    22.0   99.9   16621   78.8   21.1   0.7   1.3   3.9   5.0   6.4   6.2   5.5   4.4   0.0   0.0   0.1   0.8   1.7   1.1   1.4  2.06  1.10  0.75  0.00  0.00   24.97   28.18    2.29    0.00    0.43
 1991 215    53     2     2    22.2  100.1   16621   78.9   21.2   0.5   1.2   3.5   4.7   6.4   6.4   5.7   4.5   0.0   0.0   0.1   0.7   1.7   1.1   1.4  2.07  1.10  0.74  0.00  0.00   25.43   28.52    2.31    0.00    0.44
 1991 216    54     2     2    24.4   98.2   16620   76.7   21.5   0.3   0.9   3.0   4.1   5.7   6.3   5.9   5.0   0.0   0.0   0.1   0.8   1.8   1.1   1.4  2.09  1.10  0.74  0.00  0.00   25.81   28.67    2.43    0.00    0.44
 1991 217    55     2     2    26.7   95.9   16620   74.2   21.7   0.3   0.9   2.9   3.9   5.5   6.1   5.8   5.0   0.0   0.0   0.1   0.8   1.8   1.1   1.4  2.10  1.11  0.74  0.00  0.00   26.15   28.78    2.68    0.00    0.44
 1991 218    56     2     2    28.1   94.7   16620   72.9   21.9   0.3   0.9   2.8   3.8   5.3   6.0   5.7   4.9   0.0   0.0   0.1   0.8   1.8   1.1   1.4  2.11  1.11  0.74  0.00  0.00   26.49   28.94    2.83    0.00    0.45
 1991 219    57     2     2    28.9   94.2   16619   72.3   21.9   0.4   1.0   2.8   3.8   5.3   5.9   5.6   4.9   0.0   0.0   0.1   0.8   1.9   1.1   1.4  2.12  1.11  0.73  0.00  0.00   26.84   29.21    2.91    0.00    0.45
 1991 220    58     2     2    29.3   94.1   16619   72.1   22.0   0.5   1.1   2.8   3.7   5.2   5.9   5.6   4.9   0.0   0.0   0.1   0.7   1.9   1.1   1.5  2.14  1.11  0.73  0.00  0.00   27.20   29.49    2.96    0.00    0.45
 1991 221    59     2     2    29.6   94.2   16618   72.2   22.0   0.5   1.2   3.0   3.7   5.2   5.8   5.6   4.9   0.0   0.0   0.1   0.7   1.9   1.2   1.5  2.15  1.11  0.72  0.00  0.00   27.59   29.93    2.99    0.00    0.45
 1991 222    60     2     2    29.6   94.5   16618   72.6   21.9   0.6   1.2   3.0   3.8   5.2   5.8   5.6   4.9   0.0   0.0   0.1   0.7   1.8   1.2   1.5  2.16  1.11  0.72  0.00  0.00   28.01   30.39    3.00    0.00    0.46
 1991 223    61     2     2    29.6   94.7   16618   72.9   21.8   0.6   1.3   3.1   3.8   5.3   5.8   5.6   4.9   0.0   0.0   0.1   0.6   1.7   1.2   1.5  2.17  1.11  0.72  0.00  0.00   28.42   30.84    3.02    0.00    0.46
 1991 224    62     2     2    29.6   95.0   16617   73.3   21.8   0.7   1.3   3.2   3.8   5.3   5.8   5.6   4.9   0.0   0.0   0.1   0.6   1.7   1.2   1.5  2.18  1.11  0.71  0.00  0.00   28.84   31.29    3.03    0.00    0.46
 1991 225    63     2     2    29.6   95.4   16617   73.7   21.7   0.8   1.4   3.2   3.9   5.3   5.9   5.6   4.9   0.0   0.0   0.1   0.6   1.6   1.2   1.5  2.19  1.11  0.71  0.00  0.00   29.28   31.81    3.05    0.00    0.46
 1991 226    64     2     2    29.6   95.7   16616   74.2   21.6   0.9   1.5   3.3   3.9   5.3   5.9   5.6   4.9   0.0   0.0   0.1   0.6   1.6   1.1   1.5  2.21  1.11  0.70  0.00  0.00   29.72   32.34    3.06    0.00    0.46
 1991 227    65     2     2    29.6   96.0   16616   74.5   21.4   0.9   1.5   3.3   4.0   5.3   5.9   5.6   4.9   0.0   0.0   0.1   0.6   1.5   1.1   1.5  2.22  1.11  0.70  0.00  0.00   30.20   32.89    3.08    0.00    0.47
 1991 228    66     2     2    29.6   96.0   16615   74.8   21.3   1.0   1.6   3.3   4.1   5.4   5.9   5.7   4.9   0.0   0.0   0.1   0.5   1.4   1.1   1.5  2.23  1.11  0.69  0.00  0.00   30.74   33.50    3.09    0.00    0.47
 1991 229    67     2     2    29.6   96.3   16615   75.1   21.2   1.1   1.6   3.3   4.1   5.4   5.9   5.7   4.9   0.0   0.0   0.1   0.5   1.4   1.0   1.5  2.24  1.11  0.69  0.00  0.00   31.35   34.17    3.11    0.00    0.47
 1991 230    68     2     2    29.6   96.2   16614   75.2   21.0   1.2   1.7   3.1   4.2   5.4   5.9   5.7   4.9   0.0   0.0   0.1   0.5   1.3   1.0   1.5  2.26  1.11  0.69  0.00  0.00   32.02   34.89    3.12    0.00    0.48
 1991 231    69     2     2    29.6   95.9   16613   75.1   20.8   1.3   1.6   2.9   4.3   5.4   5.9   5.7   4.9   0.0   0.0   0.1   0.5   1.2   1.0   1.5  2.27  1.11  0.68  0.00  0.00   32.71   35.62    3.14    0.00    0.48
 1991 232    70     2     2    29.6   95.8   16613   75.2   20.7   1.3   1.7   2.7   4.3   5.5   5.9   5.7   4.9   0.0   0.0   0.1   0.5   1.1   0.9   1.5  2.29  1.11  0.68  0.00  0.00   33.40   36.33    3.15    0.00    0.48
 1991 233    71     2     2    29.6   95.2   16612   74.7   20.5   1.4   1.6   2.4   4.4   5.5   5.9   5.7   5.0   0.0   0.0   0.1   0.5   1.0   0.9   1.5  2.30  1.11  0.67  0.00  0.00   34.09   37.01    3.16    0.00    0.48
 1991 234    72     2     2    29.6   94.5   16611   74.3   20.2   1.3   1.5   2.0   4.4   5.6   5.9   5.7   5.0   0.0   0.0   0.1   0.5   0.9   0.9   1.5  2.31  1.11  0.67  0.00  0.00   34.77   37.80    3.17    0.00    0.49
 1991 235    73     2     2    29.6   93.2   16611   73.3   19.9   1.2   1.2   1.6   4.3   5.7   5.9   5.7   5.0   0.0   0.0   0.1   0.5   0.8   0.8   1.4  2.33  1.11  0.67  0.00  0.00   35.45   38.56    3.19    0.00    0.49
 1991 236    74     2     2    29.6   91.9   16610   72.3   19.7   1.1   1.0   1.2   4.1   5.8   5.9   5.7   5.0   0.0   0.0   0.1   0.5   0.8   0.8   1.4  2.34  1.11  0.66  0.00  0.00   36.13   39.29    3.20    0.00    0.49
 1991 237    75     2     2    29.6   90.9   16609   71.4   19.5   1.0   0.9   1.0   3.8   5.9   5.9   5.7   5.0   0.0   0.0   0.1   0.5   0.7   0.7   1.3  2.35  1.11  0.66  0.00  0.00   36.78   39.97    3.21    0.00    0.49
 1991 238    76     2     2    29.6   90.1   16609   70.8   19.3   1.0   0.8   0.9   3.6   5.9   5.9   5.8   5.0   0.0   0.0   0.1   0.5   0.7   0.7   1.3  2.37  1.11  0.65  0.00  0.00   37.43   40.63    3.22    0.00    0.50
 1991 239    77     2     2    29.6   90.6   16608   71.3   19.3   1.1   0.9   0.9   3.6   6.0   5.9   5.8   5.0   0.0   0.0   0.1   0.5   0.8   0.7   1.2  2.38  1.11  0.65  0.00  0.00   38.04   41.23    3.24    0.00    0.50
 1991 240    78     2     2    29.6   90.4   16607   71.1   19.3   1.0   0.9   0.9   3.5   6.1   5.9   5.8   5.0   0.0   0.0   0.1   0.5   0.8   0.7   1.2  2.39  1.11  0.65  0.00  0.00   38.60   41.79    3.25    0.00    0.50
 1991 241    79     2     2    29.6   88.4   16607   69.3   19.0   0.7   0.6   0.6   2.9   6.1   6.0   5.8   5.0   0.0   0.0   0.1   0.5   0.7   0.6   1.1  2.40  1.11  0.64  0.00  0.00   39.15   42.33    3.26    0.00    0.50
 1991 242    80     2     2    29.6   87.4   16606   68.4   18.9   0.6   0.5   0.4   2.6   6.2   6.0   5.8   5.0   0.0   0.0   0.1   0.5   0.6   0.6   1.1  2.42  1.11  0.64  0.00  0.00   39.70   42.86    3.27    0.00    0.51
 1991 243    81     2     2    29.6   86.5   16606   67.7   18.8   0.5   0.4   0.3   2.3   6.3   6.0   5.8   5.0   0.0   0.0   0.1   0.5   0.6   0.6   1.1  2.43  1.11  0.64  0.00  0.00   40.25   43.37    3.28    0.00    0.51
 1991 244    82     2     2    29.6   85.9   16605   67.1   18.8   0.3   0.4   0.3   2.0   6.2   6.0   5.8   5.0   0.0   0.0   0.1   0.5   0.6   0.6   1.0  2.44  1.11  0.63  0.00  0.00   40.80   43.88    3.29    0.00    0.51
 1991 245    83     2     2    29.6   85.1   16605   66.2   18.8   0.3   0.4   0.3   1.8   6.0   6.0   5.8   5.0   0.0   0.0   0.2   0.5   0.6   0.6   1.0  2.45  1.11  0.63  0.00  0.00   41.36   44.25    3.30    0.00    0.52
 1991 246    84     2     2    29.6   84.8   16604   66.0   18.8   0.4   0.3   0.3   1.8   5.8   6.0   5.8   5.1   0.0   0.0   0.1   0.6   0.7   0.6   0.9  2.46  1.11  0.62  0.00  0.00   41.91   44.69    3.31    0.00    0.52
 1991 247    85     2     2    29.6   83.1   16604   64.5   18.6   0.4   0.4   0.3   1.6   5.2   6.0   5.8   5.1   0.0   0.0   0.1   0.5   0.6   0.6   0.9  2.47  1.11  0.62  0.00  0.00   42.45   45.20    3.32    0.00    0.52
 1991 248    86     2     2    29.6   80.4   16603   62.1   18.4   0.3   0.4   0.3   1.2   4.3   6.0   5.9   5.1   0.0   0.0   0.1   0.5   0.6   0.5   0.8  2.49  1.11  0.62  0.00  0.00   43.01   45.69    3.33    0.00    0.53
 1991 249    87     2     2    29.6   78.0   16602   59.8   18.2   0.4   0.4   0.3   1.0   3.4   6.0   5.9   5.1   0.0   0.0   0.1   0.5   0.6   0.5   0.7  2.50  1.11  0.61  0.00  0.00   43.61   46.20    3.34    0.00    0.53
 1991 250    88     2     2    29.6   76.5   16602   58.4   18.1   0.3   0.4   0.3   0.8   2.7   6.0   5.9   5.1   0.0   0.0   0.1   0.5   0.6   0.5   0.7  2.51  1.11  0.61  0.00  0.00   44.25   46.72    3.35    0.00    0.53
 1991 251    89     2     2    29.6   75.2   16601   57.0   18.1   0.2   0.4   0.3   0.6   2.2   6.0   5.9   5.1   0.0   0.0   0.2   0.5   0.6   0.5   0.6  2.52  1.11  0.61  0.00  0.00   44.88   47.18    3.36    0.00    0.53
 1991 252    90     2     2    29.6   74.1   16601   56.1   18.0   0.4   0.4   0.3   0.5   1.7   6.0   5.9   5.1   0.0   0.0   0.1   0.5   0.6   0.5   0.6  2.53  1.11  0.61  0.00  0.00   45.49   47.71    3.37    0.00    0.54
 1991 253    91     2     2    29.6   73.2   16600   55.2   18.0   0.4   0.3   0.3   0.4   1.4   6.0   5.9   5.1   0.0   0.0   0.1   0.5   0.6   0.5   0.6  2.55  1.11  0.60  0.00  0.00   46.07   48.18    3.37    0.00    0.54
 1991 254    92     2     2    29.6   72.6   16599   54.6   18.0   0.3   0.3   0.3   0.3   1.1   6.1   5.9   5.1   0.0   0.0   0.1   0.5   0.6   0.5   0.5  2.56  1.11  0.60  0.00  0.00   46.62   48.61    3.38    0.00    0.54
 1991 255    93     2     2    29.6   72.2   16599   54.2   18.0   0.3   0.3   0.3   0.3   0.9   6.1   5.9   5.1   0.0   0.0   0.1   0.5   0.6   0.5   0.5  2.57  1.11  0.60  0.00  0.00   47.18   49.05    3.39    0.00    0.55
 1991 256    94     2     2    29.6   72.0   16598   54.0   18.0   0.4   0.4   0.3   0.3   0.7   6.1   5.9   5.1   0.0   0.0   0.1   0.5   0.6   0.5   0.5  2.56  1.11  0.59  0.00  0.00   47.77   49.61    3.39    0.00    0.55
 1991 257    95     2     2    29.6   67.3   16598   50.6   16.7   0.4   0.4   0.3   0.3   0.6   5.3   5.9   5.1   0.0   0.0   0.1   0.5   0.6   0.5   0.5  2.26  1.11  0.59  0.00  0.00   48.41   50.23    3.40    0.00    0.55
 1991 258    96     2     2    29.6   62.5   16597   47.0   15.5   0.2   0.4   0.3   0.3   0.5   4.4   6.0   5.1   0.0   0.0   0.1   0.5   0.6   0.5   0.5  1.96  1.11  0.59  0.00  0.00   49.05   50.83    3.40    0.00    0.56
 1991 259    97     2     2    29.6   58.4   16596   43.8   14.6   0.2   0.3   0.3   0.3   0.4   3.7   6.0   5.1   0.0   0.0   0.2   0.6   0.6   0.5   0.5  1.71  1.11  0.58  0.00  0.00   49.66   51.21    3.41    0.00    0.56
 1991 260    98     2     2    29.6   55.0   16596   41.2   13.9   0.2   0.3   0.3   0.3   0.3   3.1   6.0   5.1   0.0   0.0   0.3   0.6   0.6   0.5   0.5  1.50  1.11  0.58  0.00  0.00   50.26   51.59    3.41    0.00    0.56
 1991 261    99     2     2    31.2   50.6   16595   37.3   13.3   0.1   0.2   0.2   0.3   0.3   2.2   5.6   5.6   0.0   0.0   0.4   0.7   0.6   0.5   0.5  1.33  1.11  0.58  0.00  0.00   50.84   51.88    3.42    0.00    0.56
 1991 262   100     2     2    33.5   47.2   16595   34.0   13.2   0.2   0.2   0.2   0.2   0.2   1.8   5.1   5.3   0.0   0.0   0.4   0.7   0.7   0.5   0.5  1.25  1.12  0.58  0.00  0.00   51.38   51.99    3.49    0.00    0.57
 1991 263   101     2     2    34.6   44.6   16594   31.8   12.7   0.4   0.2   0.2   0.3   0.3   1.5   4.9   5.2   0.0   0.0   0.2   0.7   0.7   0.5   0.5  1.14  1.12  0.58  0.00  0.00   51.91   52.27    3.53    0.00    0.57
 1991 264   102     2     2    35.1   42.7   16594   30.5   12.2   0.4   0.3   0.2   0.3   0.3   1.2   4.8   5.1   0.0   0.0   0.1   0.5   0.7   0.6   0.6  1.04  1.12  0.58  0.00  0.00   52.49   52.61    3.55    0.00    0.57
 1991 265   103     2     2    35.3   41.4   16593   29.6   11.8   0.4   0.4   0.3   0.3   0.3   1.0   4.8   5.1   0.0   0.0   0.1   0.5   0.6   0.6   0.5  0.96  1.13  0.57  0.00  0.00   53.09   53.04    3.56    0.00    0.58
 1991 266   104     2     2    35.4   40.3   16592   29.0   11.4   0.4   0.4   0.3   0.3   0.3   0.8   4.7   5.0   0.0   0.0   0.1   0.5   0.6   0.6   0.5  0.89  1.13  0.57  0.00  0.00   53.69   53.52    3.57    0.00    0.58
 1991 267   105     2     2    35.4   39.5   16592   28.4   11.1   0.4   0.3   0.3   0.3   0.3   0.7   4.8   5.1   0.0   0.0   0.1   0.5   0.6   0.5   0.5  0.83  1.13  0.57  0.00  0.00   54.26   53.98    3.58    0.00    0.58
 1991 268   106     2     2    35.4   38.8   16591   28.0   10.8   0.4   0.4   0.3   0.3   0.3   0.6   4.8   5.1   0.0   0.0   0.1   0.5   0.6   0.5   0.5  0.78  1.13  0.57  0.00  0.00   54.85   54.43    3.58    0.00    0.59
 1991 269   107     2     2    35.4   38.3   16591   27.7   10.6   0.4   0.4   0.3   0.3   0.3   0.5   4.8   5.1   0.0   0.0   0.1   0.5   0.6   0.5   0.5  0.74  1.13  0.56  0.00  0.00   55.43   54.88    3.59    0.00    0.59
 1991 270   108     2     2    35.4   37.9   16590   27.4   10.5   0.4   0.3   0.3   0.3   0.3   0.4   4.8   5.1   0.0   0.0   0.1   0.5   0.6   0.5   0.5  0.71  1.12  0.56  0.00  0.00   56.00   55.32    3.59    0.00    0.59
 1991 271   109     2     2    35.4   37.6   16590   27.2   10.4   0.4   0.4   0.3   0.3   0.3   0.3   4.8   5.1   0.0   0.0   0.1   0.5   0.6   0.5   0.5  0.68  1.12  0.56  0.00  0.00   56.60   55.78    3.59    0.00    0.59
 1991 272   110     2     2    35.4   37.3   16589   27.0   10.3   0.4   0.4   0.3   0.3   0.3   0.3   4.8   5.1   0.0   0.0   0.1   0.5   0.6   0.5   0.5  0.66  1.12  0.56  0.00  0.00   57.20   56.24    3.60    0.00    0.60
 1991 273   111     2     2    35.4   37.1   16588   26.9   10.2   0.4   0.4   0.3   0.3   0.3   0.3   4.8   5.1   0.0   0.0   0.1   0.5   0.6   0.5   0.5  0.65  1.12  0.55  0.00  0.00   57.79   56.70    3.60    0.00    0.60
 1991 274   112     2     2    35.4   37.1   16588   27.0   10.1   0.4   0.4   0.3   0.3   0.3   0.3   4.8   5.1   0.0   0.0   0.1   0.5   0.6   0.5   0.5  0.63  1.12  0.55  0.00  0.00   58.37   57.15    3.60    0.00    0.60
 1991 275   113     2     2    35.4   37.0   16587   27.0   10.1   0.3   0.3   0.3   0.3   0.3   0.3   4.8   5.1   0.0   0.0   0.1   0.5   0.6   0.5   0.5  0.62  1.12  0.55  0.00  0.00   58.93   57.58    3.61    0.00    0.61
 1991 276   114     2     2    35.4   37.0   16587   27.0   10.0   0.3   0.3   0.3   0.3   0.3   0.3   4.8   5.1   0.0   0.0   0.1   0.5   0.6   0.5   0.5  0.61  1.12  0.55  0.00  0.00   59.42   57.98    3.61    0.00    0.61
 1991 277   115     2     2    35.4   36.9   16586   27.1    9.9   0.3   0.3   0.3   0.3   0.3   0.3   4.9   5.1   0.0   0.0   0.1   0.5   0.6   0.5   0.5  0.60  1.10  0.54  0.00  0.00   59.91   58.43    3.61    0.00    0.61
 1991 278   116     2     2    35.4   36.9   16586   27.2    9.7   0.3   0.3   0.3   0.3   0.3   0.3   4.9   5.1   0.0   0.0   0.1   0.5   0.6   0.5   0.5  0.60  1.08  0.54  0.00  0.00   60.40   58.88    3.61    0.00    0.61
 1991 279   117     2     2    35.4   36.9   16585   27.2    9.6   0.2   0.4   0.3   0.3   0.3   0.3   4.9   5.1   0.0   0.0   0.1   0.5   0.6   0.5   0.5  0.59  1.06  0.54  0.00  0.00   60.86   59.31    3.62    0.00    0.61
 1991 280   118     2     2    35.4   36.8   16585   27.2    9.7   0.1   0.2   0.3   0.3   0.3   0.3   5.0   5.1   0.0   0.0   0.2   0.5   0.6   0.5   0.5  0.58  1.04  0.54  0.00  0.00   61.33   59.61    3.62    0.00    0.62
 1991 281   119     2     2    35.4   36.8   16584   27.0    9.8   0.1   0.2   0.2   0.2   0.3   0.3   5.0   5.1   0.0   0.0   0.2   0.6   0.6   0.5   0.5  0.58  1.02  0.54  0.00  0.00   61.77   59.82    3.62    0.00    0.62
 1991 282   120     2     2    35.4   37.0   16584   27.2    9.8   0.3   0.2   0.3   0.3   0.3   0.3   5.0   5.1   0.0   0.0   0.2   0.6   0.6   0.5   0.5  0.57  1.00  0.53  0.00  0.00   62.21   60.10    3.62    0.00    0.62
 1991 283   121     2     2    35.4   37.1   16584   27.5    9.6   0.3   0.3   0.3   0.3   0.3   0.3   5.1   5.1   0.0   0.0   0.1   0.5   0.6   0.5   0.5  0.57  0.98  0.53  0.00  0.00   62.64   60.46    3.62    0.00    0.63
 1991 284   122     2     2    35.4   37.1   16583   27.7    9.4   0.3   0.3   0.3   0.3   0.3   0.3   5.1   5.1   0.0   0.0   0.1   0.5   0.6   0.5   0.5  0.57  0.96  0.53  0.00  0.00   63.11   60.89    3.63    0.00    0.63
 1991 285   123     2     2    35.4   37.1   16583   27.8    9.3   0.3   0.3   0.3   0.3   0.3   0.3   5.1   5.2   0.0   0.0   0.1   0.5   0.6   0.5   0.5  0.56  0.94  0.53  0.00  0.00   63.64   61.35    3.63    0.00    0.63
 1991 286   124     2     2    35.4   37.2   16582   27.9    9.3   0.4   0.4   0.3   0.3   0.3   0.3   5.1   5.2   0.0   0.0   0.1   0.5   0.6   0.5   0.5  0.56  0.93  0.53  0.00  0.00   64.24   61.87    3.63    0.00    0.64
 1991 287   125     2     2    35.4   37.3   16581   28.1    9.2   0.4   0.4   0.3   0.3   0.3   0.3   5.2   5.2   0.0   0.0   0.1   0.5   0.6   0.5   0.5  0.56  0.91  0.52  0.00  0.00   64.92   62.47    3.63    0.00    0.64
 1991 288   126     2     2    35.4   37.4   16580   28.1    9.2   0.1   0.3   0.4   0.3   0.3   0.3   5.2   5.2   0.0   0.0   0.2   0.5   0.6   0.5   0.5  0.56  0.89  0.52  0.00  0.00   65.64   63.04    3.63    0.00    0.64
 1991 289   127     2     2    39.7   33.2   16580   23.5    9.6   0.1   0.1   0.2   0.2   0.2   0.3   3.8   5.0   0.0   0.0   0.3   0.6   0.7   0.5   0.5  0.56  0.87  0.52  0.00  0.00   66.35   63.27    3.63    0.00    0.64
 1991 290   128     2     2    42.1   31.1   16579   21.1   10.1   0.2   0.1   0.2   0.2   0.2   0.2   3.3   4.6   0.0   0.0   0.4   0.7   0.8   0.6   0.5  0.57  0.88  0.52  0.00  0.00   66.98   63.37    3.66    0.00    0.64
 1991 291   129     2     2    43.4   30.0   16578   19.8   10.2   0.3   0.2   0.2   0.2   0.2   0.2   2.9   4.3   0.0   0.0   0.4   0.7   0.8   0.6   0.6  0.58  0.88  0.52  0.00  0.00   67.63   63.54    3.68    0.00    0.65
 1991 292   130     2     2    43.9   28.9   16578   19.0    9.9   0.7   0.2   0.2   0.2   0.2   0.2   2.6   4.2   0.0   0.0   0.1   0.7   0.7   0.6   0.6  0.58  0.85  0.52  0.00  0.00   68.22   63.90    3.69    0.00    0.65
 1991 293   131     2     2    44.0   27.7   16577   18.3    9.5   0.4   0.3   0.2   0.2   0.3   0.3   2.3   4.2   0.0   0.0   0.1   0.5   0.7   0.6   0.6  0.57  0.81  0.52  0.00  0.00   68.78   64.28    3.69    0.00    0.65
 1991 294   132     2     2    44.1   26.9   16577   17.8    9.1   0.4   0.4   0.3   0.3   0.3   0.3   2.0   4.2   0.0   0.0   0.1   0.5   0.6   0.6   0.5  0.57  0.77  0.52  0.00  0.00   69.35   64.76    3.70    0.00    0.66
 1991 295   133     2     2    44.1   26.2   16576   17.3    9.0   0.4   0.4   0.3   0.3   0.3   0.3   1.7   4.2   0.0   0.0   0.1   0.5   0.6   0.6   0.5  0.57  0.74  0.51  0.00  0.00   69.97   65.26    3.70    0.00    0.66
 1991 296   134     2     2    44.1   25.7   16575   16.9    8.8   0.4   0.4   0.3   0.3   0.3   0.3   1.5   4.2   0.0   0.0   0.1   0.5   0.6   0.5   0.5  0.57  0.70  0.51  0.00  0.00   70.66   65.85    3.70    0.00    0.66
 1991 297   135     2     2    44.1   25.1   16575   16.4    8.7   0.3   0.4   0.3   0.3   0.3   0.3   1.4   4.2   0.0   0.0   0.2   0.5   0.6   0.5   0.5  0.57  0.66  0.51  0.00  0.00   71.35   66.37    3.70    0.00    0.66
 1991 298   136     2     2    44.1   24.7   16574   16.1    8.6   0.5   0.4   0.3   0.3   0.3   0.3   1.2   4.2   0.0   0.0   0.1   0.5   0.6   0.5   0.5  0.57  0.63  0.51  0.00  0.00   71.99   66.97    3.70    0.00    0.67
 1991 299   137     2     2    44.1   24.2   16573   15.7    8.5   0.4   0.4   0.3   0.3   0.3   0.3   1.1   4.2   0.0   0.0   0.1   0.5   0.6   0.5   0.5  0.57  0.60  0.51  0.00  0.00   72.61   67.47    3.70    0.00    0.67
 1991 300   138     2     2    44.1   23.8   16573   15.4    8.4   0.4   0.4   0.3   0.3   0.3   0.3   1.0   4.2   0.0   0.0   0.1   0.5   0.6   0.5   0.5  0.57  0.58  0.50  0.00  0.00   73.21   67.95    3.71    0.00    0.67
 1991 301   139     2     2    44.1   23.5   16572   15.1    8.3   0.4   0.4   0.3   0.3   0.3   0.3   0.9   4.2   0.0   0.0   0.1   0.5   0.6   0.5   0.5  0.57  0.56  0.50  0.00  0.00   73.77   68.40    3.71    0.00    0.67
 1991 302   140     2     2    44.1   23.2   16572   14.9    8.3   0.4   0.4   0.3   0.3   0.3   0.3   0.8   4.2   0.0   0.0   0.1   0.5   0.6   0.5   0.5  0.57  0.55  0.50  0.00  0.00   74.34   68.86    3.71    0.00    0.68
 1991 303   141     2     2    44.1   23.0   16571   14.7    8.3   0.2   0.4   0.3   0.3   0.3   0.3   0.7   4.2   0.0   0.0   0.1   0.5   0.6   0.5   0.5  0.56  0.54  0.50  0.00  0.00   74.91   69.32    3.71    0.00    0.68
 1991 304   142     2     2    44.1   22.8   16571   14.4    8.4   0.2   0.3   0.3   0.3   0.3   0.3   0.6   4.2   0.0   0.0   0.2   0.6   0.6   0.5   0.5  0.56  0.52  0.50  0.00  0.00   75.46   69.55    3.71    0.00    0.68
 1991 305   143     2     2    44.1   22.8   16570   14.2    8.5   0.3   0.3   0.3   0.3   0.3   0.3   0.5   4.2   0.0   0.0   0.3   0.6   0.6   0.5   0.5  0.56  0.52  0.49  0.00  0.00   76.00   69.79    3.71    0.00    0.68
 1991 306   144     2     2    44.1   22.7   16570   14.3    8.4   0.5   0.3   0.3   0.3   0.3   0.3   0.5   4.2   0.0   0.0   0.1   0.6   0.6   0.5   0.5  0.56  0.51  0.49  0.00  0.00   76.52   70.22    3.71    0.00    0.68
 1991 307   145     2     2    44.1   22.4   16569   14.2    8.2   0.4   0.4   0.3   0.3   0.3   0.3   0.4   4.2   0.0   0.0   0.1   0.5   0.6   0.5   0.5  0.56  0.50  0.49  0.00  0.00   77.06   70.70    3.71    0.00    0.69
 1991 308   146     2     2    44.1   22.3   16568   14.1    8.1   0.4   0.4   0.3   0.3   0.3   0.3   0.4   4.2   0.0   0.0   0.1   0.5   0.6   0.5   0.5  0.56  0.49  0.49  0.00  0.00   77.62   71.16    3.71    0.00    0.69
 1991 309   147     2     2    44.1   22.2   16568   14.1    8.1   0.4   0.4   0.3   0.3   0.3   0.3   0.4   4.2   0.0   0.0   0.1   0.5   0.6   0.5   0.5  0.56  0.49  0.49  0.00  0.00   78.21   71.64    3.71    0.00    0.69
 1991 310   148     2     2    44.1   22.1   16567   14.1    8.0   0.3   0.4   0.3   0.3   0.3   0.3   0.3   4.3   0.0   0.0   0.1   0.5   0.6   0.5   0.5  0.56  0.48  0.48  0.00  0.00   78.83   72.17    3.71    0.00    0.70
 1991 311   149     2     2    44.1   21.7   16567   13.5    8.2   0.3   0.3   0.3   0.3   0.3   0.3   0.3   4.1   0.0   0.0   0.2   0.6   0.6   0.5   0.5  0.56  0.48  0.46  0.00  0.00   79.46   72.54    3.71    0.00    0.70
 1991 312   150     2     2    44.1   21.4   16566   13.4    8.0   0.5   0.4   0.3   0.3   0.3   0.3   0.3   4.0   0.0   0.0   0.1   0.5   0.6   0.5   0.5  0.56  0.47  0.45  0.00  0.00   80.08   73.17    3.71    0.00    0.70
 1991 313   151     2     2    44.1   20.6   16565   12.7    7.9   0.4   0.4   0.3   0.3   0.3   0.3   0.3   3.8   0.0   0.0   0.1   0.5   0.6   0.5   0.5  0.56  0.47  0.44  0.00  0.00   80.69   73.69    3.71    0.00    0.71
 1991 314   152     2     2    44.1   20.1   16565   12.2    7.9   0.4   0.4   0.3   0.3   0.3   0.3   0.3   3.5   0.0   0.0   0.1   0.5   0.6   0.5   0.5  0.56  0.46  0.43  0.00  0.00   81.30   74.21    3.71    0.00    0.71
 1991 315   153     2     2    44.1   19.5   16564   11.7    7.8   0.4   0.4   0.3   0.3   0.3   0.3   0.3   3.3   0.0   0.0   0.1   0.5   0.6   0.5   0.5  0.55  0.46  0.42  0.00  0.00   81.89   74.73    3.71    0.00    0.71
 1991 316   154     2     2    44.1   18.9   16564   11.2    7.7   0.4   0.4   0.3   0.3   0.3   0.3   0.3   3.1   0.0   0.0   0.1   0.5   0.6   0.5   0.5  0.55  0.45  0.41  0.00  0.00   82.46   75.22    3.71    0.00    0.72
 1991 317   155     2     2    44.1   18.4   16563   10.7    7.7   0.4   0.4   0.3   0.3   0.3   0.3   0.3   2.9   0.0   0.0   0.1   0.5   0.6   0.5   0.5  0.55  0.45  0.40  0.00  0.00   83.01   75.70    3.71    0.00    0.72
 1991 318   156     2     2    44.1   17.9   16562   10.3    7.6   0.4   0.4   0.3   0.3   0.3   0.3   0.3   2.8   0.0   0.0   0.1   0.5   0.6   0.5   0.5  0.55  0.44  0.39  0.00  0.00   83.53   76.16    3.71    0.00    0.72
 1991 319   157     2     2    44.1   17.5   16562    9.9    7.6   0.3   0.3   0.3   0.3   0.3   0.3   0.3   2.6   0.0   0.0   0.1   0.5   0.6   0.5   0.5  0.55  0.44  0.38  0.00  0.00   84.02   76.61    3.71    0.00    0.72
 1991 320   158     2     2    44.1   17.0   16562    9.5    7.5   0.3   0.3   0.3   0.3   0.3   0.3   0.3   2.4   0.0   0.0   0.1   0.5   0.6   0.5   0.5  0.55  0.43  0.38  0.00  0.00   84.49   77.03    3.71    0.00    0.73
 1991 321   159     2     2    44.1   16.6   16561    9.2    7.4   0.3   0.3   0.3   0.3   0.3   0.3   0.3   2.3   0.0   0.0   0.1   0.5   0.6   0.5   0.5  0.55  0.43  0.37  0.00  0.00   84.96   77.46    3.71    0.00    0.73
 1991 322   160     2     2    44.1   16.2   16561    8.9    7.3   0.3   0.3   0.3   0.3   0.3   0.3   0.3   2.2   0.0   0.0   0.1   0.4   0.6   0.5   0.5  0.55  0.42  0.36  0.00  0.00   85.42   77.90    3.71    0.00    0.73
 1991 323   161     2     2    44.1   15.9   16560    8.6    7.3   0.2   0.4   0.3   0.3   0.3   0.3   0.3   2.0   0.0   0.0   0.1   0.4   0.6   0.5   0.5  0.55  0.41  0.35  0.00  0.00   85.90   78.35    3.71    0.00    0.73
 1991 324   162     2     2    44.1   15.5   16560    8.1    7.4   0.2   0.3   0.3   0.3   0.3   0.3   0.3   1.9   0.0   0.0   0.2   0.5   0.6   0.5   0.5  0.54  0.41  0.34  0.00  0.00   86.46   78.67    3.71    0.00    0.74
 1991 325   163     2     2    44.1   15.4   16559    8.1    7.3   0.4   0.4   0.3   0.3   0.3   0.3   0.3   1.8   0.0   0.0   0.1   0.5   0.6   0.5   0.4  0.54  0.40  0.33  0.00  0.00   87.03   79.23    3.71    0.00    0.74
 1991 326   164     2     2    44.1   15.1   16558    7.9    7.2   0.4   0.4   0.3   0.3   0.3   0.3   0.3   1.7   0.0   0.0   0.1   0.5   0.6   0.5   0.4  0.54  0.40  0.32  0.00  0.00   87.62   79.76    3.71    0.00    0.74
 1991 327   165     2     2    44.1   14.9   16558    7.7    7.2   0.4   0.4   0.3   0.3   0.3   0.3   0.3   1.6   0.0   0.0   0.1   0.5   0.6   0.5   0.4  0.54  0.39  0.32  0.00  0.00   88.25   80.34    3.71    0.00    0.74
 1991 328   166     2     2    44.1   14.6   16557    7.5    7.1   0.4   0.4   0.3   0.3   0.3   0.3   0.3   1.5   0.0   0.0   0.1   0.5   0.6   0.5   0.4  0.54  0.39  0.31  0.00  0.00   88.88   80.96    3.71    0.00    0.75
 1991 329   167     2     2    44.1   14.3   16556    7.3    7.0   0.1   0.2   0.3   0.3   0.4   0.3   0.3   1.4   0.0   0.0   0.1   0.4   0.6   0.4   0.4  0.54  0.38  0.30  0.00  0.00   89.50   81.53    3.71    0.00    0.75
 1991 330   168     2     2    44.1   14.1   16556    6.7    7.5   0.0   0.2   0.2   0.2   0.3   0.3   0.3   1.3   0.0   0.0   0.2   0.6   0.7   0.5   0.5  0.55  0.38  0.29  0.00  0.00   90.17   81.67    3.71    0.00    0.75
 1991 331   169     2     2    44.1   14.2   16555    6.3    7.9   0.1   0.2   0.2   0.2   0.3   0.3   0.3   1.3   0.0   0.0   0.3   0.7   0.7   0.5   0.5  0.56  0.38  0.28  0.00  0.00   90.83   81.80    3.71    0.00    0.75
 1991 332   170     2     2    44.2   14.1   16555    6.1    8.0   0.4   0.2   0.2   0.2   0.2   0.2   0.2   1.2   0.0   0.0   0.1   0.7   0.8   0.5   0.5  0.56  0.39  0.27  0.00  0.00   91.44   82.08    3.71    0.00    0.76
 1991 333   171     2     2    44.2   14.0   16554    6.0    8.0   0.3   0.3   0.3   0.3   0.3   0.2   0.2   1.1   0.0   0.0   0.1   0.7   0.7   0.6   0.5  0.57  0.39  0.27  0.00  0.00   92.03   82.26    3.71    0.00    0.77
 1991 334   172     2     2    44.4   13.9   16553    5.8    8.2   0.3   0.3   0.3   0.3   0.3   0.2   0.3   1.0   0.0   0.0   0.2   0.7   0.7   0.6   0.5  0.57  0.40  0.26  0.00  0.00   92.64   82.39    3.72    0.00    0.77
 1991 335   173     2     2    44.4   14.0   16553    5.9    8.0   0.5   0.3   0.3   0.3   0.3   0.3   0.3   0.9   0.0   0.0   0.1   0.7   0.7   0.6   0.6  0.57  0.39  0.25  0.00  0.00   93.30   82.73    3.72    0.00    0.77
 1991 336   174     2     2    44.4   13.7   16552    6.1    7.6   0.4   0.5   0.3   0.3   0.3   0.3   0.3   0.9   0.0   0.0   0.1   0.5   0.6   0.6   0.5  0.57  0.39  0.24  0.00  0.00   94.01   83.42    3.72    0.00    0.78
 1991 337   175     2     2    44.4   13.4   16551    6.0    7.4   0.4   0.4   0.3   0.3   0.3   0.3   0.3   0.8   0.0   0.0   0.1   0.5   0.6   0.5   0.5  0.57  0.38  0.24  0.00  0.00   94.77   84.08    3.72    0.00    0.78
 1991 338   176     2     2    44.4   13.2   16551    5.9    7.4   0.4   0.4   0.3   0.3   0.3   0.3   0.3   0.8   0.0   0.0   0.1   0.5   0.6   0.5   0.5  0.57  0.38  0.23  0.00  0.00   95.52   84.70    3.72    0.00    0.78
 1991 339   177     2     2    44.4   13.1   16550    5.8    7.3   0.3   0.4   0.3   0.3   0.3   0.3   0.3   0.7   0.0   0.0   0.1   0.5   0.6   0.5   0.5  0.57  0.38  0.22  0.00  0.00   96.30   85.35    3.72    0.00    0.78
 1991 340   178     2     2    44.4   13.0   16549    5.5    7.5   0.3   0.3   0.3   0.3   0.3   0.3   0.3   0.7   0.0   0.0   0.2   0.6   0.6   0.5   0.5  0.57  0.38  0.22  0.00  0.00   97.08   85.76    3.72    0.00    0.79
 1991 341   179     2     2    44.4   13.0   16548    5.6    7.5   0.6   0.3   0.3   0.3   0.3   0.3   0.3   0.7   0.0   0.0   0.0   0.7   0.6   0.5   0.5  0.57  0.37  0.21  0.00  0.00   97.89   86.40    3.72    0.00    0.79
 1991 342   180     2     2    44.4   12.8   16547    5.5    7.3   0.3   0.5   0.3   0.3   0.3   0.3   0.3   0.6   0.0   0.0   0.2   0.5   0.6   0.5   0.5  0.58  0.37  0.21  0.00  0.00   98.69   87.05    3.72    0.00    0.79
 1991 343   181     2     2    44.4   12.7   16547    5.5    7.2   0.4   0.4   0.4   0.3   0.3   0.3   0.3   0.6   0.0   0.0   0.1   0.5   0.6   0.5   0.5  0.58  0.37  0.20  0.00  0.00   99.50   87.76    3.72    0.00    0.79
 1991 344   182     2     2    44.4   12.6   16546    5.1    7.6   0.2   0.3   0.3   0.3   0.3   0.3   0.3   0.6   0.0   0.0   0.2   0.6   0.7   0.5   0.5  0.58  0.37  0.20  0.00  0.00  100.28   88.04    3.72    0.00    0.80
 1991 345   183     2     2    44.4   12.8   16545    5.0    7.8   0.5   0.3   0.3   0.3   0.3   0.3   0.3   0.5   0.0   0.0   0.1   0.7   0.8   0.6   0.5  0.58  0.37  0.19  0.00  0.00  101.05   88.37    3.72    0.00    0.80
 1991 346   184     2     2    44.4   12.8   16545    4.8    7.9   0.3   0.3   0.3   0.3   0.3   0.3   0.3   0.5   0.0   0.0   0.1   0.7   0.8   0.6   0.6  0.58  0.36  0.19  0.00  0.00  101.81   88.61    3.72    0.00    0.80
 1991 347   185     2     2    44.4   12.7   16544    5.0    7.7   0.3   0.5   0.3   0.3   0.3   0.3   0.3   0.5   0.0   0.0   0.1   0.5   0.7   0.6   0.6  0.58  0.36  0.19  0.00  0.00  102.55   89.07    3.72    0.00    0.81
 1991 348   186     2     2    44.4   12.7   16543    4.8    7.9   0.3   0.3   0.3   0.3   0.3   0.3   0.3   0.5   0.0   0.0   0.1   0.6   0.7   0.6   0.6  0.58  0.36  0.18  0.00  0.00  103.28   89.32    3.72    0.00    0.81
 1991 349   187     2     2    44.4   12.7   16543    4.5    8.2   0.3   0.3   0.3   0.3   0.3   0.3   0.3   0.4   0.0   0.0   0.2   0.7   0.8   0.6   0.6  0.59  0.36  0.18  0.00  0.00  103.99   89.46    3.73    0.00    0.81
 1991 350   188     2     2    44.4   12.9   16542    4.5    8.4   0.3   0.3   0.3   0.3   0.3   0.3   0.3   0.4   0.0   0.0   0.3   0.7   0.8   0.6   0.6  0.59  0.36  0.17  0.00  0.00  104.70   89.63    3.74    0.00    0.81
 1991 351   189     2     2    44.4   13.0   16541    4.6    8.4   0.6   0.3   0.3   0.3   0.3   0.3   0.3   0.4   0.0   0.0   0.1   0.8   0.8   0.7   0.6  0.59  0.36  0.17  0.00  0.00  105.38   89.96    3.75    0.00    0.82
 1991 352   190     2     2    44.4   12.9   16541    4.4    8.5   0.3   0.3   0.3   0.2   0.2   0.2   0.3   0.4   0.0   0.0   0.1   0.8   0.8   0.7   0.6  0.60  0.36  0.17  0.00  0.00  106.11   90.15    3.76    0.00    0.83
 1991 353   191     2     2    44.4   12.9   16540    4.7    8.1   0.2   0.5   0.3   0.3   0.3   0.3   0.3   0.4   0.0   0.0   0.1   0.5   0.8   0.7   0.6  0.60  0.36  0.16  0.00  0.00  106.85   90.63    3.76    0.00    0.83
 1991 354   192     2     2    44.4   12.9   16539    4.5    8.4   0.4   0.3   0.3   0.3   0.3   0.2   0.3   0.4   0.0   0.0   0.1   0.6   0.8   0.7   0.6  0.60  0.37  0.16  0.00  0.00  107.64   90.83    3.77    0.00    0.83
 1991 355   193     2     2    44.5   12.9   16538    4.3    8.6   0.4   0.3   0.3   0.3   0.3   0.2   0.2   0.3   0.0   0.0   0.1   0.7   0.8   0.7   0.7  0.61  0.37  0.16  0.00  0.00  108.48   91.06    3.78    0.00    0.83
 1991 356   194     2     2    44.5   12.9   16538    4.6    8.2   0.4   0.5   0.3   0.3   0.3   0.2   0.3   0.3   0.0   0.0   0.1   0.5   0.8   0.7   0.7  0.61  0.38  0.16  0.00  0.00  109.36   91.61    3.78    0.00    0.84
 1991 357   195     2     2    44.6   12.6   16537    4.5    8.2   0.2   0.3   0.3   0.3   0.3   0.3   0.3   0.3   0.0   0.0   0.1   0.5   0.8   0.7   0.6  0.62  0.39  0.16  0.00  0.00  110.24   92.05    3.79    0.00    0.84
 1991 358   196     2     2    44.7   12.6   16536    4.1    8.5   0.4   0.3   0.3   0.3   0.2   0.2   0.2   0.3   0.0   0.0   0.1   0.6   0.8   0.7   0.7  0.63  0.40  0.16  0.00  0.00  111.11   92.26    3.80    0.00    0.84
 1991 359   197     2     2    44.7   12.8   16535    4.4    8.4   0.4   0.5   0.3   0.3   0.3   0.2   0.2   0.3   0.0   0.0   0.1   0.5   0.8   0.7   0.7  0.63  0.41  0.16  0.00  0.00  111.99   92.73    3.81    0.00    0.84
 1991 360   198     2     2    44.7   12.6   16535    4.5    8.2   0.4   0.4   0.4   0.3   0.3   0.2   0.2   0.3   0.0   0.0   0.1   0.5   0.7   0.7   0.7  0.63  0.42  0.16  0.00  0.00  112.85   93.28    3.81    0.00    0.85
 1991 361   199     2     2    44.7   12.5   16534    4.4    8.1   0.4   0.4   0.3   0.3   0.3   0.2   0.2   0.3   0.0   0.0   0.1   0.5   0.6   0.7   0.6  0.63  0.42  0.16  0.00  0.00  113.66   93.76    3.81    0.00    0.85
 1991 362   200     2     2    44.7   12.5   16533    4.6    7.9   0.4   0.4   0.3   0.3   0.3   0.3   0.3   0.3   0.0   0.0   0.1   0.5   0.6   0.6   0.6  0.62  0.43  0.16  0.00  0.00  114.47   94.39    3.81    0.00    0.85
 1991 363   201     2     2    44.7   13.3   16532    5.2    8.1   0.6   0.5   0.4   0.4   0.3   0.3   0.3   0.3   0.0   0.0   0.1   0.5   0.7   0.6   0.6  0.64  0.43  0.16  0.00  0.00  115.27   95.01    3.81    0.00    0.86
 1991 364   202     2     2    44.7   14.1   16532    5.8    8.2   0.7   0.7   0.5   0.4   0.4   0.3   0.3   0.3   0.0   0.0   0.1   0.5   0.7   0.6   0.6  0.66  0.43  0.16  0.00  0.00  116.06   95.64    3.81    0.00    0.86

*DSSAT Cropping System Model Ver. 4.0.2.000               Aug 15, 2016; 15:31:22

*RUN   3        : UYMZ                    
 MODEL          : MZCER040 - Maize           
 EXPERIMENT     : UYMZ0199 MZ    late to create DSS                             
 TREATMENT  1   : UYMZ                    

@YEAR DOY   DAS  NAPC  NI#M    NLCC   NIAD    NOAD   NITD   NHTD  NI1D  NI2D  NI3D  NI4D  NI5D  NI6D  NI7D  NI8D  NI9D  NI10  NH1D  NH2D  NH3D  NH4D  NH5D  NH6D  NH7D  NH8D  NH9D  NH10    NMNC    NITC    NDNC    NIMC    AMLC
 1992 162     0     0     0     0.0   99.2   16646   76.1   23.1  15.6  15.2  15.1   8.6   4.6   0.0   0.1   0.1   0.0   0.0   0.9   1.4   1.5   1.5   1.5  1.50  1.47  1.46  0.00  0.00    0.40    1.28    0.00    0.00    0.00
 1992 163     1     0     0     0.0   99.6   16645   77.2   22.4  16.1  15.3  15.2   8.7   4.6   0.0   0.1   0.1   0.0   0.0   0.5   1.3   1.4   1.4   1.4  1.51  1.43  1.41  0.00  0.00    0.82    2.41    0.00    0.00    0.00
 1992 164     2     0     0     0.0  100.0   16645   78.2   21.8  16.3  15.5  15.3   8.7   4.7   0.1   0.1   0.2   0.0   0.0   0.3   1.2   1.4   1.4   1.4  1.51  1.40  1.37  0.00  0.00    1.24    3.43    0.00    0.00    0.00
 1992 165     3     0     0     0.0  100.4   16644   79.2   21.2   5.4  16.2  18.8   8.8   4.7   0.1   0.2   0.2   0.0   0.0   0.2   1.1   1.4   1.3   1.3  1.51  1.37  1.33  0.00  0.00    1.68    4.40    0.00    0.00    0.00
 1992 166     4     2     2     0.0  102.9   16644   81.0   21.8   7.3  15.7  19.2   8.9   4.8   0.1   0.2   0.2   0.0   0.0   1.9   1.1   1.4   1.3   1.3  1.51  1.34  1.29  0.00  0.00    2.16    5.20    0.00    0.00    0.06
 1992 167     5     2     2     0.0  103.3   16643   82.5   20.8   8.5  15.5  19.3   9.1   4.9   0.1   0.3   0.3   0.0   0.0   0.6   1.2   1.4   1.2   1.2  1.52  1.31  1.25  0.00  0.00    2.69    6.65    0.00    0.00    0.16
 1992 168     6     2     2     0.0  103.8   16643   83.7   20.1   7.7  16.0  19.6   9.2   4.9   0.1   0.3   0.3   0.0   0.0   0.2   1.0   1.3   1.2   1.2  1.52  1.28  1.21  0.00  0.00    3.25    7.85    0.00    0.00    0.20
 1992 169     7     2     2     0.0  104.3   16642   84.6   19.8   7.9  15.8  19.8   9.4   5.0   0.1   0.3   0.4   0.0   0.0   0.0   1.1   1.3   1.1   1.2  1.52  1.25  1.18  0.00  0.00    3.85    8.76    0.00    0.00    0.27
 1992 170     8     2     2     0.0  105.0   16642   85.6   19.3   7.9  16.0  19.9   9.5   5.0   0.2   0.4   0.4   0.0   0.0   0.1   1.0   1.3   1.1   1.1  1.53  1.22  1.14  0.00  0.00    4.48    9.81    0.00    0.00    0.27
 1992 171     9     2     2     0.0  105.6   16641   86.7   18.9   8.0  16.1  20.0   9.7   5.1   0.2   0.4   0.5   0.0   0.0   0.1   0.9   1.3   1.1   1.1  1.53  1.19  1.10  0.00  0.00    5.14   10.89    0.00    0.00    0.30
 1992 172    10     2     2     0.0  106.2   16640   87.7   18.5   8.1  16.3  20.1   9.8   5.2   0.2   0.5   0.5   0.0   0.0   0.1   0.8   1.3   1.0   1.1  1.53  1.16  1.07  0.00  0.00    5.79   11.91    0.00    0.00    0.32
 1992 173    11     2     2     0.0  106.9   16640   88.7   18.2   8.0  16.6  20.2  10.0   5.2   0.2   0.5   0.5   0.0   0.0   0.1   0.7   1.3   1.0   1.0  1.53  1.14  1.04  0.00  0.00    6.46   12.92    0.00    0.00    0.33
 1992 174    12     2     2     0.0  107.3   16639   89.5   17.9   3.3  12.5  20.6  13.4   5.4   0.2   0.5   0.6   0.0   0.0   0.2   0.7   1.2   1.0   1.0  1.54  1.11  1.00  0.00  0.00    7.11   13.84    0.00    0.00    0.35
 1992 175    13     2     2     0.0  108.0   16638   90.0   18.0   2.8  11.3  19.8  14.1   6.4   0.3   0.6   0.6   0.0   0.0   0.1   0.8   1.3   1.0   1.0  1.54  1.09  0.97  0.00  0.00    7.76   14.37    0.00    0.00    0.39
 1992 176    14     2     2     0.0  108.6   16638   90.4   18.1   2.3  10.6  19.3  14.1   7.3   0.3   0.6   0.6   0.0   0.0   0.1   0.8   1.4   1.0   0.9  1.54  1.06  0.94  0.00  0.00    8.40   14.81    0.00    0.00    0.40
 1992 177    15     2     2     0.1  109.1   16637   90.7   18.4   2.3  10.4  18.9  13.7   7.6   0.6   0.7   0.7   0.0   0.0   0.2   0.9   1.5   1.0   1.0  1.55  1.04  0.92  0.00  0.00    9.02   15.16    0.00    0.00    0.43
 1992 178    16     2     2     0.2  109.6   16636   91.0   18.6   2.5  10.4  18.7  13.5   7.8   0.8   0.7   0.7   0.0   0.0   0.1   1.0   1.6   1.1   1.0  1.56  1.02  0.89  0.00  0.00    9.65   15.57    0.00    0.00    0.47
 1992 179    17     2     2     0.2  110.1   16636   91.3   18.7   1.9   9.3  18.2  14.1   8.3   0.9   0.7   0.7   0.0   0.0   0.1   0.9   1.7   1.1   1.0  1.58  1.02  0.88  0.00  0.00   10.28   16.04    0.15    0.00    0.48
 1992 180    18     2     2     0.3  110.1   16635   91.0   19.1   1.9   9.2  17.7  13.6   8.5   1.2   0.7   0.7   0.0   0.0   0.1   1.0   1.8   1.1   1.0  1.59  1.02  0.87  0.00  0.00   10.87   16.26    0.53    0.00    0.50
 1992 181    19     2     2     0.4  110.3   16635   91.0   19.3   2.0   9.1  17.4  13.4   8.6   1.3   0.8   0.7   0.0   0.0   0.1   1.0   1.8   1.1   1.0  1.61  1.02  0.87  0.00  0.00   11.41   16.49    0.76    0.00    0.52
 1992 182    20     2     2     0.4  110.6   16634   91.2   19.5   2.2   9.2  17.3  13.2   8.6   1.4   0.8   0.7   0.0   0.0   0.1   0.9   1.9   1.1   1.0  1.62  1.02  0.86  0.00  0.00   11.90   16.86    0.88    0.00    0.52
 1992 183    21     2     2     0.4  111.0   16634   91.4   19.5   2.4   9.3  17.3  13.2   8.6   1.4   0.8   0.8   0.0   0.0   0.1   0.9   1.9   1.2   1.1  1.64  1.02  0.85  0.00  0.00   12.30   17.18    0.93    0.00    0.53
 1992 184    22     2     2     0.4  111.3   16633   91.8   19.5   2.5   9.3  17.4  13.1   8.6   1.5   0.8   0.8   0.0   0.0   0.1   0.8   1.9   1.2   1.1  1.65  1.02  0.85  0.00  0.00   12.66   17.61    0.95    0.00    0.53
 1992 185    23     2     2     0.4  111.6   16633   92.2   19.4   2.7   9.3  17.5  13.1   8.6   1.5   0.8   0.8   0.0   0.0   0.1   0.8   1.8   1.2   1.1  1.66  1.02  0.84  0.00  0.00   13.02   18.02    0.96    0.00    0.53
 1992 186    24     2     2     0.4  112.0   16633   92.6   19.4   2.9   9.4  17.6  13.1   8.6   1.5   0.8   0.8   0.0   0.0   0.1   0.7   1.8   1.2   1.1  1.68  1.02  0.84  0.00  0.00   13.39   18.44    0.98    0.00    0.53
 1992 187    25     2     2     0.4  112.4   16632   93.0   19.3   3.1   9.4  17.6  13.2   8.7   1.5   0.8   0.8   0.0   0.0   0.1   0.7   1.7   1.2   1.1  1.69  1.02  0.83  0.00  0.00   13.78   18.86    0.99    0.00    0.53
 1992 188    26     2     2     0.4  112.8   16632   93.4   19.3   3.4   9.4  17.7  13.2   8.7   1.5   0.9   0.8   0.0   0.0   0.1   0.7   1.7   1.2   1.1  1.70  1.03  0.82  0.00  0.00   14.18   19.28    1.00    0.00    0.54
 1992 189    27     2     2     0.4  113.1   16631   93.9   19.2   3.6   9.5  17.8  13.2   8.7   1.5   0.9   0.8   0.0   0.0   0.1   0.6   1.7   1.2   1.1  1.71  1.03  0.82  0.00  0.00   14.58   19.77    1.01    0.00    0.54
 1992 190    28     2     2     0.4  113.5   16631   94.4   19.1   3.8   9.5  17.8  13.3   8.7   1.5   0.9   0.8   0.0   0.0   0.1   0.6   1.6   1.1   1.1  1.73  1.03  0.81  0.00  0.00   14.96   20.24    1.01    0.00    0.54
 1992 191    29     2     2     0.4  113.9   16631   94.8   19.0   4.0   9.6  17.9  13.3   8.7   1.5   0.9   0.8   0.0   0.0   0.1   0.6   1.6   1.1   1.1  1.74  1.03  0.81  0.00  0.00   15.34   20.70    1.02    0.00    0.54
 1992 192    30     2     2     0.4  114.3   16630   95.3   19.0   4.2   9.6  18.0  13.4   8.7   1.5   0.9   0.8   0.0   0.0   0.1   0.6   1.6   1.1   1.1  1.75  1.03  0.80  0.00  0.00   15.75   21.17    1.03    0.00    0.54
 1992 193    31     2     2     0.4  114.7   16630   95.8   18.9   4.4   9.7  18.0  13.4   8.7   1.5   0.9   0.9   0.0   0.0   0.1   0.6   1.5   1.1   1.2  1.77  1.03  0.80  0.00  0.00   16.21   21.67    1.03    0.00    0.55
 1992 194    32     2     2     0.4  115.2   16629   96.4   18.9   4.6   9.7  18.1  13.5   8.8   1.5   0.9   0.9   0.0   0.0   0.1   0.6   1.5   1.0   1.2  1.78  1.03  0.79  0.00  0.00   16.73   22.24    1.04    0.00    0.55
 1992 195    33     2     2     0.4  115.7   16629   96.8   18.8   4.8   9.7  18.2  13.6   8.8   1.5   0.9   0.9   0.0   0.0   0.1   0.5   1.5   1.0   1.2  1.80  1.03  0.78  0.00  0.00   17.33   22.88    1.05    0.00    0.55
 1992 196    34     2     2     0.5  116.0   16628   97.2   18.8   1.9   6.7  15.9  14.0  10.5   2.6   1.2   0.9   0.0   0.0   0.1   0.5   1.4   1.0   1.2  1.81  1.03  0.78  0.00  0.00   17.97   23.56    1.05    0.00    0.55
 1992 197    35     2     2     0.6  116.0   16627   96.7   19.2   1.9   6.4  15.5  13.8  10.5   2.7   1.3   1.0   0.0   0.0   0.2   0.6   1.5   1.0   1.2  1.83  1.04  0.77  0.00  0.00   18.59   23.71    1.19    0.00    0.56
 1992 198    36     2     2     1.0  115.9   16627   96.4   19.6   2.0   6.3  15.2  13.4  10.4   2.9   1.4   1.0   0.0   0.0   0.1   0.7   1.6   1.0   1.2  1.85  1.04  0.77  0.00  0.00   19.15   23.93    1.32    0.00    0.56
 1992 199    37     2     2     1.2  116.1   16626   96.3   19.8   2.1   6.3  15.1  13.2  10.3   3.0   1.4   1.0   0.0   0.0   0.1   0.7   1.6   1.0   1.3  1.86  1.05  0.77  0.00  0.00   19.62   24.14    1.39    0.00    0.56
 1992 200    38     2     2     1.2  116.4   16626   96.5   19.9   2.3   6.3  15.1  13.1  10.3   3.1   1.5   1.0   0.0   0.0   0.1   0.7   1.7   1.0   1.3  1.88  1.05  0.77  0.00  0.00   20.02   24.42    1.43    0.00    0.57
 1992 201    39     2     2     1.3  116.6   16626   96.6   20.0   2.5   6.4  15.1  13.1  10.2   3.1   1.5   1.0   0.0   0.0   0.1   0.7   1.7   1.1   1.3  1.89  1.05  0.76  0.00  0.00   20.32   24.66    1.49    0.00    0.57
 1992 202    40     2     2     1.4  116.8   16625   96.8   20.0   2.6   6.4  15.2  13.0  10.2   3.1   1.5   1.1   0.0   0.0   0.1   0.6   1.7   1.1   1.3  1.90  1.05  0.76  0.00  0.00   20.61   24.98    1.53    0.00    0.57
 1992 203    41     2     2     1.4  117.0   16625   97.1   19.9   2.8   6.4  15.2  13.0  10.2   3.1   1.5   1.1   0.0   0.0   0.1   0.6   1.6   1.1   1.3  1.91  1.05  0.75  0.00  0.00   20.92   25.32    1.55    0.00    0.58
 1992 204    42     2     2     1.4  117.2   16625   97.3   19.9   2.9   6.4  15.3  13.1  10.2   3.1   1.5   1.1   0.0   0.0   0.1   0.6   1.6   1.1   1.3  1.92  1.06  0.75  0.00  0.00   21.25   25.67    1.57    0.00    0.58
 1992 205    43     2     2     1.4  117.6   16624   97.7   19.9   3.1   6.5  15.3  13.1  10.2   3.1   1.5   1.1   0.0   0.0   0.1   0.6   1.6   1.1   1.3  1.93  1.06  0.74  0.00  0.00   21.59   26.01    1.58    0.00    0.58
 1992 206    44     2     2     1.4  117.9   16624   98.0   19.8   3.2   6.5  15.4  13.1  10.2   3.1   1.5   1.1   0.0   0.0   0.1   0.5   1.5   1.1   1.3  1.95  1.06  0.74  0.00  0.00   21.92   26.42    1.59    0.00    0.58
 1992 207    45     2     2     1.4  118.2   16624   98.4   19.8   3.4   6.5  15.4  13.2  10.2   3.1   1.6   1.1   0.0   0.0   0.1   0.5   1.5   1.0   1.3  1.96  1.06  0.74  0.00  0.00   22.26   26.82    1.60    0.00    0.58
 1992 208    46     2     2     1.4  118.5   16623   98.8   19.7   3.6   6.6  15.5  13.2  10.2   3.1   1.6   1.1   0.0   0.0   0.1   0.5   1.5   1.0   1.3  1.97  1.06  0.73  0.00  0.00   22.59   27.20    1.61    0.00    0.58
 1992 209    47     2     2     1.4  118.8   16623   99.2   19.7   3.6   6.6  15.5  13.2  10.2   3.1   1.6   1.1   0.0   0.0   0.1   0.5   1.4   1.0   1.3  1.98  1.06  0.73  0.00  0.00   22.93   27.60    1.62    0.00    0.59
 1992 210    48     2     2     1.4  119.1   16623   99.5   19.6   3.6   6.7  15.5  13.3  10.3   3.1   1.6   1.1   0.0   0.0   0.1   0.5   1.4   1.0   1.3  1.99  1.06  0.72  0.00  0.00   23.30   28.00    1.63    0.00    0.59
 1992 211    49     2     2     1.4  119.4   16622   99.8   19.6   3.7   6.8  15.6  13.3  10.3   3.2   1.6   1.1   0.0   0.0   0.1   0.5   1.4   0.9   1.3  2.00  1.06  0.72  0.00  0.00   23.68   28.41    1.63    0.00    0.59
 1992 212    50     2     2     1.4  119.8   16622  100.2   19.6   3.7   6.9  15.7  13.4  10.3   3.2   1.6   1.1   0.0   0.0   0.1   0.5   1.4   0.9   1.3  2.02  1.06  0.71  0.00  0.00   24.10   28.84    1.64    0.00    0.59
 1992 213    51     2     2     1.4  120.2   16622  100.6   19.6   3.5   7.0  15.7  13.4  10.3   3.2   1.6   1.1   0.0   0.0   0.1   0.5   1.3   0.9   1.4  2.03  1.06  0.71  0.00  0.00   24.51   29.25    1.65    0.00    0.59
 1992 214    52     2     2     1.4  120.5   16621  101.0   19.6   3.6   7.1  15.8  13.4  10.3   3.2   1.6   1.2   0.0   0.0   0.1   0.5   1.3   0.9   1.4  2.04  1.06  0.70  0.00  0.00   24.91   29.67    1.65    0.00    0.59
 1992 215    53     2     2     1.4  120.9   16621  101.4   19.5   3.7   7.2  15.9  13.5  10.3   3.2   1.6   1.2   0.0   0.0   0.1   0.5   1.3   0.9   1.4  2.05  1.06  0.70  0.00  0.00   25.28   30.07    1.66    0.00    0.60
 1992 216    54     2     2     1.4  121.3   16620  101.8   19.4   3.8   7.2  15.9  13.5  10.4   3.2   1.6   1.2   0.0   0.0   0.1   0.5   1.3   0.9   1.3  2.06  1.06  0.70  0.00  0.00   25.66   30.54    1.66    0.00    0.60
 1992 217    55     2     2     1.4  121.6   16620  102.3   19.3   3.9   7.3  16.0  13.5  10.5   3.2   1.6   1.2   0.0   0.0   0.1   0.4   1.3   0.8   1.3  2.07  1.06  0.69  0.00  0.00   26.01   31.00    1.66    0.00    0.60
 1992 218    56     2     2     1.4  121.9   16620  102.7   19.2   4.0   7.3  16.0  13.6  10.5   3.2   1.7   1.2   0.0   0.0   0.1   0.4   1.3   0.8   1.3  2.09  1.06  0.69  0.00  0.00   26.36   31.44    1.67    0.00    0.61
 1992 219    57     2     2     1.4  122.3   16619  103.1   19.2   4.1   7.4  16.1  13.6  10.6   3.2   1.7   1.2   0.0   0.0   0.1   0.4   1.2   0.8   1.2  2.10  1.06  0.68  0.00  0.00   26.74   31.88    1.67    0.00    0.61
 1992 220    58     2     2     1.4  122.7   16619  103.6   19.1   4.3   7.4  16.2  13.6  10.6   3.2   1.7   1.2   0.0   0.0   0.1   0.4   1.2   0.8   1.2  2.11  1.06  0.68  0.00  0.00   27.18   32.38    1.68    0.00    0.61
 1992 221    59     2     2     1.4  123.2   16618  104.2   19.1   4.4   7.5  16.2  13.7  10.7   3.2   1.7   1.2   0.0   0.0   0.1   0.5   1.2   0.8   1.2  2.12  1.06  0.68  0.00  0.00   27.67   32.92    1.68    0.00    0.61
 1992 222    60     2     2     1.4  123.7   16618  104.7   19.0   4.5   7.5  16.3  13.7  10.8   3.2   1.7   1.2   0.0   0.0   0.1   0.5   1.2   0.8   1.1  2.13  1.06  0.67  0.00  0.00   28.15   33.44    1.69    0.00    0.61
 1992 223    61     2     2     1.4  124.2   16617  105.2   19.0   4.7   7.6  16.4  13.7  10.8   3.2   1.7   1.2   0.0   0.0   0.1   0.5   1.2   0.8   1.1  2.15  1.06  0.67  0.00  0.00   28.62   33.96    1.69    0.00    0.62
 1992 224    62     2     2     1.4  124.6   16617  105.7   18.9   4.8   7.7  16.5  13.8  10.9   3.2   1.7   1.2   0.0   0.0   0.1   0.5   1.2   0.8   1.1  2.16  1.07  0.66  0.00  0.00   29.10   34.48    1.69    0.00    0.62
 1992 225    63     2     2     1.4  125.0   16617  106.2   18.9   5.0   7.7  16.5  13.8  10.9   3.2   1.7   1.2   0.0   0.0   0.1   0.5   1.2   0.7   1.0  2.17  1.07  0.66  0.00  0.00   29.53   34.95    1.70    0.00    0.62
 1992 226    64     2     2     1.4  125.5   16616  106.6   18.8   5.1   7.8  16.6  13.8  11.0   3.2   1.7   1.2   0.0   0.0   0.1   0.5   1.2   0.7   1.0  2.18  1.07  0.66  0.00  0.00   29.95   35.41    1.70    0.00    0.62
 1992 227    65     2     2     1.4  125.9   16616  107.1   18.8   5.2   7.9  16.7  13.8  11.0   3.2   1.7   1.3   0.0   0.0   0.1   0.5   1.2   0.7   1.0  2.19  1.07  0.65  0.00  0.00   30.39   35.88    1.71    0.00    0.63
 1992 228    66     2     2     1.4  126.4   16615  107.6   18.8   5.4   7.9  16.7  13.9  11.1   3.2   1.8   1.3   0.0   0.0   0.1   0.5   1.2   0.7   1.0  2.21  1.07  0.65  0.00  0.00   30.87   36.38    1.71    0.00    0.63
 1992 229    67     2     2     1.4  126.8   16615  108.1   18.8   5.5   8.0  16.8  13.9  11.1   3.3   1.8   1.3   0.0   0.0   0.1   0.5   1.2   0.7   1.0  2.22  1.07  0.65  0.00  0.00   31.35   36.88    1.71    0.00    0.63
 1992 230    68     2     2     1.4  127.4   16614  108.6   18.7   5.7   8.1  16.9  13.9  11.2   3.3   1.8   1.3   0.0   0.0   0.1   0.5   1.2   0.7   0.9  2.23  1.07  0.64  0.00  0.00   31.87   37.41    1.72    0.00    0.63
 1992 231    69     2     2     1.4  127.9   16614  109.2   18.7   5.9   8.2  17.0  14.0  11.2   3.3   1.8   1.3   0.0   0.0   0.1   0.5   1.2   0.7   0.9  2.24  1.07  0.64  0.00  0.00   32.42   37.97    1.72    0.00    0.64
 1992 232    70     2     2     1.4  128.5   16613  109.7   18.7   6.0   8.3  17.0  14.0  11.2   3.3   1.8   1.3   0.0   0.0   0.1   0.5   1.2   0.7   0.9  2.25  1.07  0.63  0.00  0.00   32.99   38.54    1.72    0.00    0.64
 1992 233    71     2     2     1.4  129.0   16612  110.3   18.7   6.2   8.4  17.1  14.0  11.3   3.3   1.8   1.3   0.0   0.0   0.1   0.5   1.2   0.7   0.9  2.27  1.07  0.63  0.00  0.00   33.56   39.12    1.73    0.00    0.64
 1992 234    72     2     2     1.4  129.6   16612  110.9   18.7   6.4   8.5  17.2  14.1  11.3   3.3   1.8   1.3   0.0   0.0   0.1   0.5   1.2   0.7   0.9  2.28  1.07  0.63  0.00  0.00   34.14   39.70    1.73    0.00    0.64
 1992 235    73     2     2     1.4  130.2   16611  111.5   18.7   6.6   8.6  17.3  14.1  11.4   3.3   1.8   1.3   0.0   0.0   0.1   0.5   1.2   0.7   0.8  2.29  1.07  0.62  0.00  0.00   34.73   40.29    1.73    0.00    0.65
 1992 236    74     2     2     1.4  130.7   16611  112.0   18.7   6.4   8.9  17.4  14.1  11.4   3.3   1.8   1.3   0.0   0.0   0.1   0.5   1.2   0.7   0.8  2.31  1.07  0.62  0.00  0.00   35.30   40.86    1.74    0.00    0.65
 1992 237    75     2     2     1.4  131.3   16610  112.6   18.7   6.5   9.0  17.5  14.2  11.5   3.3   1.8   1.3   0.0   0.0   0.1   0.5   1.2   0.6   0.8  2.32  1.07  0.62  0.00  0.00   35.87   41.43    1.74    0.00    0.68
 1992 238    76     2     2     1.4  131.8   16610  113.2   18.7   6.6   9.1  17.6  14.2  11.5   3.3   1.9   1.3   0.0   0.0   0.1   0.5   1.2   0.6   0.8  2.33  1.07  0.61  0.00  0.00   36.45   41.98    1.74    0.00    0.69
 1992 239    77     2     2     1.4  132.4   16609  113.7   18.7   6.7   9.2  17.6  14.2  11.5   3.3   1.9   1.4   0.0   0.0   0.1   0.5   1.2   0.6   0.8  2.34  1.07  0.61  0.00  0.00   37.04   42.54    1.75    0.00    0.71
 1992 240    78     2     2     1.4  133.0   16608  114.3   18.7   6.8   9.4  17.7  14.3  11.6   3.3   1.9   1.4   0.0   0.0   0.1   0.5   1.1   0.6   0.8  2.35  1.07  0.61  0.00  0.00   37.62   43.09    1.75    0.00    0.73
 1992 241    79     2     2     1.4  133.5   16608  114.8   18.7   6.9   9.5  17.8  14.3  11.6   3.3   1.9   1.4   0.0   0.0   0.1   0.5   1.1   0.6   0.8  2.37  1.07  0.60  0.00  0.00   38.21   43.66    1.75    0.00    0.75
 1992 242    80     2     2     1.4  134.1   16607  115.4   18.7   7.0   9.6  17.9  14.3  11.7   3.4   1.9   1.4   0.0   0.0   0.1   0.5   1.1   0.6   0.7  2.38  1.07  0.60  0.00  0.00   38.81   44.22    1.75    0.00    0.77
 1992 243    81     2     2     1.4  134.7   16607  116.0   18.7   7.2   9.7  18.0  14.4  11.7   3.4   1.9   1.4   0.0   0.0   0.1   0.5   1.1   0.6   0.7  2.39  1.07  0.60  0.00  0.00   39.41   44.80    1.75    0.00    0.79
 1992 244    82     2     2     1.4  135.3   16606  116.5   18.8   6.9  10.0  18.1  14.4  11.7   3.4   1.9   1.4   0.0   0.0   0.1   0.5   1.1   0.6   0.7  2.40  1.07  0.59  0.00  0.00   40.02   45.37    1.76    0.00    0.80
 1992 245    83     2     2     1.4  135.8   16605  117.0   18.8   6.6  10.2  18.2  14.4  11.8   3.4   1.9   1.4   0.0   0.0   0.1   0.5   1.1   0.6   0.7  2.42  1.07  0.59  0.00  0.00   40.60   45.88    1.76    0.00    0.82
 1992 246    84     2     2     1.4  134.4   16605  115.6   18.8   6.2   9.5  17.9  14.5  11.8   3.4   1.9   1.4   0.0   0.0   0.1   0.5   1.1   0.6   0.7  2.43  1.07  0.59  0.00  0.00   41.13   46.40    1.76    0.00    0.85
 1992 247    85     2     2     1.4  134.9   16604  116.1   18.8   6.2   9.6  18.0  14.5  11.8   3.4   2.0   1.4   0.0   0.0   0.1   0.5   1.1   0.6   0.7  2.44  1.07  0.59  0.00  0.00   41.63   46.87    1.76    0.00    0.85
 1992 248    86     2     2     1.4  135.3   16604  116.6   18.7   6.3   9.7  18.0  14.5  11.9   3.4   2.0   1.4   0.0   0.0   0.1   0.5   1.1   0.6   0.7  2.43  1.08  0.58  0.00  0.00   42.10   47.40    1.76    0.00    0.85
 1992 249    87     2     2     1.4  135.8   16603  117.1   18.7   6.4   9.8  18.1  14.5  11.9   3.4   2.0   1.4   0.0   0.0   0.1   0.5   1.1   0.6   0.7  2.42  1.08  0.58  0.00  0.00   42.56   47.91    1.76    0.00    0.86
 1992 250    88     2     2     1.4  136.3   16603  117.6   18.6   6.5   9.9  18.2  14.6  11.9   3.5   2.0   1.4   0.0   0.0   0.1   0.5   1.1   0.6   0.7  2.42  1.08  0.58  0.00  0.00   43.05   48.45    1.77    0.00    0.86
 1992 251    89     2     2     1.4  136.8   16602  118.2   18.6   6.6  10.0  18.3  14.6  11.9   3.5   2.0   1.4   0.0   0.0   0.1   0.5   1.1   0.6   0.7  2.41  1.08  0.57  0.00  0.00   43.56   49.01    1.77    0.00    0.86
 1992 252    90     2     2     1.4  137.3   16602  118.8   18.5   6.7  10.1  18.4  14.6  12.0   3.5   2.0   1.4   0.0   0.0   0.1   0.5   1.1   0.6   0.7  2.40  1.08  0.57  0.00  0.00   44.10   49.60    1.77    0.00    0.86
 1992 253    91     2     2     1.4  137.9   16601  119.4   18.5   6.9  10.2  18.5  14.7  12.0   3.5   2.0   1.5   0.0   0.0   0.1   0.5   1.1   0.6   0.7  2.39  1.08  0.57  0.00  0.00   44.66   50.20    1.77    0.00    0.87
 1992 254    92     2     2     1.4  138.4   16601  120.0   18.4   7.0  10.2  18.6  14.7  12.0   3.6   2.0   1.5   0.0   0.0   0.1   0.5   1.1   0.6   0.6  2.39  1.08  0.57  0.00  0.00   45.23   50.81    1.77    0.00    0.87
 1992 255    93     2     2     1.4  139.0   16600  120.6   18.4   7.1  10.4  18.6  14.7  12.1   3.6   2.0   1.5   0.0   0.0   0.1   0.5   1.1   0.6   0.6  2.38  1.08  0.56  0.00  0.00   45.80   51.42    1.77    0.00    0.87
 1992 256    94     2     2     1.4  139.6   16600  121.2   18.3   7.1  10.6  18.7  14.8  12.1   3.6   2.0   1.5   0.0   0.0   0.1   0.5   1.1   0.6   0.6  2.37  1.08  0.56  0.00  0.00   46.38   52.04    1.77    0.00    0.87
 1992 257    95     2     2     1.4  140.1   16599  121.8   18.3   7.1  10.7  18.8  14.8  12.1   3.7   2.1   1.5   0.0   0.0   0.1   0.5   1.1   0.6   0.6  2.37  1.08  0.56  0.00  0.00   46.95   52.66    1.78    0.00    0.90
 1992 258    96     2     2     1.4  140.7   16599  122.4   18.2   7.2  10.9  18.9  14.8  12.2   3.7   2.1   1.5   0.0   0.0   0.1   0.5   1.1   0.6   0.6  2.36  1.08  0.56  0.00  0.00   47.51   53.24    1.78    0.00    0.92
 1992 259    97     2     2     1.4  141.2   16598  123.0   18.2   7.2  11.0  19.0  14.9  12.2   3.7   2.1   1.5   0.0   0.0   0.1   0.5   1.1   0.6   0.6  2.35  1.08  0.55  0.00  0.00   48.07   53.82    1.78    0.00    0.94
 1992 260    98     2     2     1.4  141.7   16597  123.6   18.2   7.3  11.1  19.1  14.9  12.2   3.7   2.1   1.5   0.0   0.0   0.1   0.5   1.1   0.6   0.6  2.35  1.08  0.55  0.00  0.00   48.62   54.39    1.78    0.00    0.95
 1992 261    99     2     2     1.4  142.3   16597  124.1   18.1   7.5  11.2  19.2  14.9  12.2   3.8   2.1   1.5   0.0   0.0   0.1   0.5   1.1   0.6   0.6  2.34  1.08  0.55  0.00  0.00   49.18   54.97    1.78    0.00    0.97
 1992 262   100     2     2     1.4  142.8   16596  124.8   18.1   7.4  11.3  19.3  15.0  12.3   3.8   2.1   1.5   0.0   0.0   0.1   0.5   1.1   0.6   0.6  2.33  1.08  0.55  0.00  0.00   49.77   55.58    1.78    0.00    0.99
 1992 263   101     2     2     1.4  143.4   16596  125.4   18.0   7.5  11.5  19.4  15.0  12.3   3.8   2.1   1.5   0.0   0.0   0.1   0.5   1.1   0.6   0.6  2.33  1.08  0.54  0.00  0.00   50.36   56.20    1.78    0.00    1.01
 1992 264   102     2     2     1.4  144.0   16595  126.0   18.0   7.6  11.6  19.5  15.0  12.3   3.8   2.1   1.5   0.0   0.0   0.1   0.5   1.1   0.6   0.6  2.32  1.08  0.54  0.00  0.00   50.96   56.81    1.79    0.00    1.03
 1992 265   103     2     2     1.4  144.6   16594  126.6   18.0   7.8  11.7  19.6  15.1  12.4   3.9   2.1   1.5   0.0   0.0   0.1   0.5   1.1   0.6   0.6  2.31  1.08  0.54  0.00  0.00   51.57   57.44    1.79    0.00    1.05
 1992 266   104     2     2     1.4  145.2   16594  127.3   17.9   6.0  12.4  19.9  15.1  12.4   3.9   2.1   1.5   0.0   0.0   0.1   0.5   1.1   0.6   0.6  2.31  1.08  0.54  0.00  0.00   52.22   58.11    1.79    0.00    1.07
 1992 267   105     2     2     1.4  145.8   16593  127.7   18.0   4.6  11.3  20.8  15.5  12.4   3.9   2.2   1.5   0.0   0.0   0.1   0.6   1.1   0.6   0.6  2.30  1.08  0.53  0.00  0.00   52.80   58.59    1.79    0.00    1.09
 1992 268   106     2     2     1.4  146.3   16593  128.1   18.2   4.7  11.2  20.4  15.9  12.5   3.9   2.2   1.6   0.0   0.0   0.1   0.7   1.2   0.6   0.6  2.29  1.08  0.53  0.00  0.00   53.39   58.98    1.79    0.00    1.12
 1992 269   107     2     2     1.4  146.9   16592  128.6   18.3   3.2  10.0  19.7  16.7  13.4   4.1   2.2   1.6   0.0   0.0   0.1   0.6   1.3   0.6   0.6  2.29  1.08  0.53  0.00  0.00   53.95   59.42    1.79    0.00    1.13
 1992 270   108     2     2     1.7  147.1   16592  128.5   18.6   3.3   9.9  19.3  16.2  13.3   4.4   2.3   1.6   0.0   0.0   0.1   0.7   1.4   0.6   0.6  2.30  1.08  0.53  0.00  0.00   54.45   59.58    1.79    0.00    1.15
 1992 271   109     2     2     1.8  147.4   16591  128.6   18.8   3.5   9.9  19.2  15.9  13.3   4.5   2.4   1.6   0.0   0.0   0.1   0.7   1.4   0.7   0.6  2.31  1.08  0.53  0.00  0.00   54.88   59.83    1.80    0.00    1.15
 1992 272   110     2     2     1.9  147.7   16591  128.7   18.9   3.9   9.9  19.1  15.8  13.3   4.6   2.4   1.7   0.0   0.0   0.1   0.6   1.5   0.7   0.6  2.32  1.08  0.52  0.00  0.00   55.33   60.11    1.84    0.00    1.16
 1992 273   111     2     2     1.9  148.1   16590  129.1   19.0   4.2   9.8  19.2  15.7  13.3   4.7   2.4   1.7   0.0   0.0   0.1   0.6   1.4   0.7   0.7  2.33  1.08  0.52  0.00  0.00   55.80   60.53    1.87    0.00    1.16
 1992 274   112     2     2     1.9  148.6   16590  129.5   19.0   4.6   9.9  19.3  15.6  13.3   4.7   2.5   1.7   0.0   0.0   0.1   0.6   1.4   0.7   0.7  2.34  1.08  0.52  0.00  0.00   56.31   60.98    1.90    0.00    1.16
 1992 275   113     2     2     1.9  149.1   16589  130.0   19.1   4.9   9.9  19.3  15.6  13.3   4.7   2.5   1.7   0.0   0.0   0.1   0.6   1.4   0.7   0.7  2.36  1.08  0.52  0.00  0.00   56.89   61.50    1.92    0.00    1.16
 1992 276   114     2     2     1.9  149.7   16589  130.6   19.2   5.2  10.0  19.4  15.6  13.3   4.7   2.5   1.7   0.0   0.0   0.1   0.6   1.4   0.8   0.7  2.37  1.08  0.51  0.00  0.00   57.52   62.06    1.93    0.00    1.17
 1992 277   115     2     2     1.9  150.4   16588  131.2   19.2   5.5  10.1  19.5  15.7  13.3   4.7   2.5   1.7   0.0   0.0   0.1   0.5   1.3   0.7   0.7  2.38  1.08  0.51  0.00  0.00   58.16   62.70    1.95    0.00    1.17
 1992 278   116     2     2     1.9  151.0   16587  131.8   19.2   5.8  10.2  19.6  15.7  13.3   4.7   2.5   1.7   0.0   0.0   0.1   0.5   1.3   0.7   0.8  2.39  1.08  0.51  0.00  0.00   58.81   63.33    1.96    0.00    1.19
 1992 279   117     2     2     1.9  151.6   16587  132.4   19.2   6.1  10.4  19.7  15.8  13.3   4.7   2.5   1.7   0.0   0.0   0.1   0.5   1.3   0.7   0.8  2.41  1.08  0.51  0.00  0.00   59.46   63.94    1.98    0.00    1.21
 1992 280   118     2     2     1.9  152.2   16586  133.0   19.2   4.9  10.9  20.0  15.8  13.4   4.7   2.5   1.7   0.0   0.0   0.1   0.5   1.3   0.7   0.8  2.42  1.08  0.51  0.00  0.00   60.07   64.50    1.99    0.00    1.23
 1992 281   119     2     2     1.9  152.7   16585  133.4   19.3   4.9  10.7  20.3  15.9  13.4   4.7   2.5   1.7   0.0   0.0   0.1   0.6   1.3   0.7   0.8  2.43  1.08  0.51  0.00  0.00   60.64   64.92    2.00    0.00    1.25
 1992 282   120     2     2     1.9  153.2   16585  133.9   19.4   5.2  10.7  20.4  15.9  13.4   4.7   2.5   1.7   0.0   0.0   0.1   0.6   1.3   0.7   0.8  2.44  1.08  0.50  0.00  0.00   61.18   65.43    2.01    0.00    1.27
 1992 283   121     2     2     1.9  153.7   16584  134.3   19.4   5.4  10.7  20.5  15.9  13.4   4.7   2.6   1.7   0.0   0.0   0.1   0.6   1.3   0.7   0.8  2.45  1.08  0.50  0.00  0.00   61.71   65.92    2.02    0.00    1.29
 1992 284   122     2     2     1.9  154.2   16584  134.8   19.4   5.6  10.8  20.6  16.0  13.4   4.7   2.6   1.7   0.0   0.0   0.1   0.6   1.2   0.7   0.9  2.46  1.08  0.50  0.00  0.00   62.22   66.39    2.03    0.00    1.31
 1992 285   123     2     2     1.9  154.7   16583  135.3   19.4   5.9  10.8  20.6  16.0  13.4   4.8   2.6   1.7   0.0   0.0   0.1   0.5   1.2   0.7   0.9  2.47  1.08  0.50  0.00  0.00   62.77   66.88    2.04    0.00    1.33
 1992 286   124     2     2     1.9  155.3   16583  135.8   19.5   6.1  10.9  20.7  16.0  13.4   4.8   2.6   1.7   0.0   0.0   0.1   0.5   1.2   0.7   0.9  2.48  1.08  0.50  0.00  0.00   63.36   67.42    2.05    0.00    1.34
 1992 287   125     2     2     1.9  155.9   16582  136.4   19.5   6.4  11.0  20.8  16.1  13.4   4.8   2.6   1.7   0.0   0.0   0.1   0.5   1.2   0.7   0.9  2.50  1.08  0.49  0.00  0.00   63.99   68.00    2.05    0.00    1.36
 1992 288   126     2     2     1.9  156.5   16581  137.0   19.6   6.6  11.1  20.9  16.1  13.5   4.8   2.6   1.8   0.0   0.0   0.1   0.5   1.2   0.7   0.9  2.51  1.09  0.49  0.00  0.00   64.66   68.61    2.06    0.00    1.38
 1992 289   127     2     2     1.9  157.2   16581  137.7   19.5   6.9  11.2  21.1  16.1  13.5   4.8   2.6   1.8   0.0   0.0   0.1   0.5   1.2   0.6   0.9  2.52  1.09  0.49  0.00  0.00   65.38   69.35    2.06    0.00    1.40
 1992 290   128     2     2     2.0  157.9   16580  138.5   19.5   3.6   9.5  20.4  17.3  14.7   5.0   2.7   1.8   0.0   0.0   0.1   0.5   1.2   0.6   0.9  2.53  1.09  0.49  0.00  0.00   66.11   70.10    2.07    0.00    1.42
 1992 291   129     2     2     2.4  158.1   16579  138.2   19.9   3.7   9.3  20.0  16.8  14.5   5.3   2.9   1.9   0.0   0.0   0.1   0.6   1.3   0.7   0.9  2.55  1.09  0.49  0.00  0.00   66.80   70.32    2.09    0.00    1.44
 1992 292   130     2     2     2.7  158.5   16579  138.2   20.3   4.0   9.2  19.7  16.5  14.3   5.5   3.0   1.9   0.0   0.0   0.1   0.7   1.4   0.7   0.9  2.56  1.09  0.49  0.00  0.00   67.49   70.57    2.10    0.00    1.46
 1992 293   131     2     2     2.8  159.0   16578  138.5   20.6   4.3   9.3  19.7  16.3  14.2   5.6   3.1   2.0   0.0   0.0   0.1   0.7   1.5   0.7   0.9  2.57  1.09  0.48  0.00  0.00   68.16   71.01    2.11    0.00    1.48
 1992 294   132     2     2     2.8  159.6   16577  139.0   20.6   3.5   9.3  19.9  16.4  14.3   5.7   3.1   2.0   0.0   0.0   0.1   0.6   1.4   0.8   1.0  2.58  1.09  0.48  0.00  0.00   68.78   71.58    2.12    0.00    1.50
 1992 295   133     2     2     3.0  159.9   16577  139.0   20.9   3.5   9.1  19.7  16.2  14.3   5.8   3.2   2.0   0.0   0.0   0.1   0.7   1.5   0.8   1.0  2.59  1.09  0.48  0.00  0.00   69.35   71.80    2.20    0.00    1.52
 1992 296   134     2     2     3.1  160.4   16576  139.3   21.1   3.8   9.2  19.6  16.1  14.2   5.9   3.2   2.0   0.0   0.0   0.1   0.7   1.6   0.8   1.0  2.60  1.09  0.48  0.00  0.00   69.92   72.17    2.25    0.00    1.54
 1992 297   135     2     2     3.1  160.9   16576  139.8   21.1   4.2   9.2  19.7  16.1  14.3   5.9   3.2   2.0   0.0   0.0   0.1   0.6   1.5   0.8   1.0  2.62  1.09  0.48  0.00  0.00   70.51   72.73    2.28    0.00    1.56
 1992 298   136     2     2     3.1  161.4   16575  140.3   21.1   4.5   9.3  19.8  16.1  14.3   5.9   3.2   2.0   0.0   0.0   0.1   0.6   1.5   0.8   1.0  2.63  1.09  0.48  0.00  0.00   71.12   73.31    2.31    0.00    1.58
 1992 299   137     2     2     3.1  162.1   16574  140.9   21.1   4.8   9.4  20.0  16.1  14.3   5.9   3.3   2.0   0.0   0.0   0.1   0.6   1.5   0.9   1.0  2.64  1.09  0.47  0.00  0.00   71.80   73.94    2.33    0.00    1.60
 1992 300   138     2     2     3.1  162.7   16574  141.7   21.1   5.1   9.5  20.1  16.2  14.3   5.9   3.3   2.1   0.0   0.0   0.1   0.5   1.4   0.8   1.1  2.65  1.09  0.47  0.00  0.00   72.51   74.70    2.36    0.00    1.62
 1992 301   139     2     2     3.1  163.4   16573  142.4   21.0   5.5   9.6  20.2  16.2  14.3   5.9   3.3   2.1   0.0   0.0   0.1   0.5   1.4   0.8   1.1  2.66  1.09  0.47  0.00  0.00   73.25   75.48    2.38    0.00    1.64
 1992 302   140     2     2     3.1  164.2   16572  143.2   21.0   5.8   9.8  20.4  16.3  14.3   5.9   3.3   2.1   0.0   0.0   0.1   0.5   1.3   0.8   1.1  2.68  1.09  0.47  0.00  0.00   74.02   76.29    2.40    0.00    1.65
 1992 303   141     2     2     3.1  164.8   16571  143.9   20.9   6.0   9.9  20.5  16.3  14.3   6.0   3.3   2.1   0.0   0.0   0.1   0.5   1.3   0.8   1.1  2.69  1.09  0.47  0.00  0.00   74.74   77.00    2.42    0.00    1.67
 1992 304   142     2     2     3.1  165.5   16571  144.5   21.0   6.3  10.0  20.6  16.4  14.4   6.0   3.3   2.1   0.0   0.0   0.1   0.5   1.3   0.8   1.1  2.70  1.09  0.47  0.00  0.00   75.41   77.64    2.44    0.00    1.69
 1992 305   143     2     2     3.1  166.1   16570  145.1   21.0   6.5  10.1  20.7  16.4  14.4   6.0   3.3   2.1   0.0   0.0   0.1   0.5   1.3   0.8   1.1  2.71  1.09  0.47  0.00  0.00   76.06   78.26    2.46    0.00    1.71
 1992 306   144     2     2     3.1  166.7   16569  145.7   21.0   6.7  10.2  20.8  16.5  14.4   6.0   3.3   2.1   0.0   0.0   0.1   0.5   1.3   0.7   1.1  2.72  1.09  0.46  0.00  0.00   76.69   78.85    2.47    0.00    1.73
 1992 307   145     2     2     3.1  167.3   16569  146.2   21.0   6.9  10.4  20.9  16.5  14.4   6.0   3.3   2.1   0.0   0.0   0.1   0.5   1.2   0.7   1.1  2.73  1.09  0.46  0.00  0.00   77.30   79.42    2.49    0.00    1.75
 1992 308   146     2     2     3.1  167.9   16568  146.9   21.0   4.7  10.4  21.6  16.8  14.4   6.0   3.3   2.1   0.0   0.0   0.1   0.5   1.2   0.7   1.2  2.74  1.09  0.46  0.00  0.00   77.98   80.07    2.50    0.00    1.77
 1992 309   147     2     2     3.1  168.5   16567  147.1   21.3   4.8  10.3  21.3  16.9  14.5   6.1   3.4   2.1   0.0   0.0   0.1   0.6   1.3   0.7   1.2  2.75  1.09  0.46  0.00  0.00   78.66   80.41    2.52    0.00    1.79
 1992 310   148     2     2     3.2  169.1   16567  147.5   21.6   5.2  10.3  21.3  16.9  14.5   6.1   3.4   2.1   0.0   0.0   0.1   0.6   1.4   0.7   1.2  2.77  1.09  0.46  0.00  0.00   79.31   80.82    2.53    0.00    1.81
 1992 311   149     2     2     3.2  169.6   16566  148.0   21.6   5.6  10.3  21.4  16.9  14.5   6.1   3.4   2.1   0.0   0.0   0.1   0.6   1.4   0.8   1.2  2.78  1.09  0.46  0.00  0.00   79.92   81.36    2.54    0.00    1.83
 1992 312   150     2     2     3.2  170.2   16566  148.6   21.6   5.9  10.3  21.5  16.9  14.5   6.1   3.4   2.1   0.0   0.0   0.1   0.5   1.4   0.7   1.2  2.79  1.09  0.46  0.00  0.00   80.49   81.92    2.55    0.00    1.85
 1992 313   151     2     2     3.2  170.7   16565  149.1   21.6   6.2  10.4  21.6  17.0  14.6   6.1   3.4   2.1   0.0   0.0   0.1   0.5   1.3   0.7   1.2  2.80  1.09  0.45  0.00  0.00   81.01   82.44    2.57    0.00    1.87
 1992 314   152     2     2     3.2  171.2   16564  149.6   21.6   6.5  10.4  21.6  17.0  14.6   6.1   3.4   2.2   0.0   0.0   0.1   0.5   1.3   0.7   1.2  2.81  1.09  0.45  0.00  0.00   81.56   82.97    2.58    0.00    1.89
 1992 315   153     2     2     3.2  171.8   16564  150.3   21.5   6.8  10.5  21.7  17.1  14.6   6.1   3.5   2.2   0.0   0.0   0.1   0.5   1.3   0.7   1.2  2.82  1.09  0.45  0.00  0.00   82.19   83.66    2.59    0.00    1.91
 1992 316   154     2     2     3.2  172.4   16563  151.0   21.4   7.1  10.6  21.8  17.1  14.7   6.1   3.5   2.2   0.0   0.0   0.1   0.5   1.3   0.7   1.1  2.83  1.09  0.45  0.00  0.00   82.84   84.38    2.60    0.00    1.93
 1992 317   155     2     2     3.2  173.1   16563  151.8   21.3   7.4  10.7  21.9  17.2  14.8   6.1   3.5   2.2   0.0   0.0   0.1   0.5   1.3   0.7   1.1  2.84  1.09  0.45  0.00  0.00   83.54   85.15    2.61    0.00    1.95
 1992 318   156     2     2     3.2  173.8   16562  152.6   21.2   7.6  10.9  22.0  17.2  14.9   6.1   3.5   2.2   0.0   0.0   0.1   0.5   1.2   0.7   1.1  2.85  1.09  0.45  0.00  0.00   84.27   85.97    2.62    0.00    1.97
 1992 319   157     2     2     3.2  174.5   16561  153.4   21.1   7.9  11.0  22.2  17.2  14.9   6.1   3.5   2.2   0.0   0.0   0.1   0.5   1.2   0.7   1.0  2.86  1.09  0.45  0.00  0.00   85.03   86.79    2.64    0.00    1.99
 1992 320   158     2     2     3.2  175.2   16560  154.2   21.1   4.4  10.0  22.1  18.5  15.5   6.2   3.5   2.2   0.0   0.0   0.1   0.5   1.2   0.7   1.0  2.87  1.10  0.45  0.00  0.00   85.79   87.61    2.65    0.00    2.00
 1992 321   159     2     2     3.6  175.5   16559  154.0   21.5   4.5   9.9  21.6  18.0  15.5   6.5   3.7   2.3   0.0   0.0   0.1   0.6   1.3   0.7   1.0  2.89  1.10  0.45  0.00  0.00   86.56   87.87    2.66    0.00    2.02
 1992 322   160     2     2     3.8  176.0   16559  154.2   21.8   4.9   9.9  21.4  17.7  15.4   6.7   3.8   2.3   0.0   0.0   0.1   0.6   1.4   0.7   1.0  2.90  1.10  0.44  0.00  0.00   87.30   88.34    2.67    0.00    2.04
 1992 323   161     2     2     3.9  176.6   16558  154.6   22.1   5.3   9.9  21.4  17.6  15.4   6.7   3.8   2.4   0.0   0.0   0.1   0.5   1.5   0.8   1.1  2.91  1.10  0.44  0.00  0.00   88.00   88.77    2.69    0.00    2.06
 1992 324   162     2     2     3.9  177.2   16557  155.2   22.1   5.7   9.9  21.5  17.5  15.4   6.8   3.9   2.4   0.0   0.0   0.1   0.5   1.5   0.8   1.1  2.92  1.10  0.44  0.00  0.00   88.68   89.41    2.70    0.00    2.08
 1992 325   163     2     2     3.9  177.9   16557  155.7   22.1   6.1  10.0  21.6  17.5  15.5   6.8   3.9   2.4   0.0   0.0   0.1   0.5   1.4   0.8   1.1  2.93  1.10  0.44  0.00  0.00   89.36   90.02    2.73    0.00    2.10
 1992 326   164     2     2     3.9  178.5   16556  156.3   22.2   6.4  10.1  21.7  17.5  15.5   6.8   3.9   2.4   0.0   0.0   0.1   0.5   1.4   0.8   1.1  2.94  1.10  0.44  0.00  0.00   90.05   90.65    2.76    0.00    2.12
 1992 327   165     2     2     3.9  179.1   16555  156.9   22.2   6.8  10.2  21.8  17.6  15.5   6.8   3.9   2.4   0.0   0.0   0.1   0.5   1.4   0.9   1.1  2.95  1.10  0.44  0.00  0.00   90.74   91.26    2.79    0.00    2.14
 1992 328   166     2     2     3.9  179.8   16555  157.6   22.2   7.1  10.3  21.9  17.6  15.5   6.8   3.9   2.4   0.0   0.0   0.1   0.5   1.3   0.8   1.1  2.96  1.10  0.44  0.00  0.00   91.42   91.95    2.81    0.00    2.16
 1992 329   167     2     2     3.9  180.4   16554  158.2   22.2   7.4  10.4  22.0  17.7  15.5   6.8   3.9   2.4   0.0   0.0   0.1   0.5   1.3   0.8   1.1  2.97  1.10  0.44  0.00  0.00   92.08   92.60    2.83    0.00    2.18
 1992 330   168     2     2     3.9  181.0   16553  158.8   22.2   7.7  10.5  22.1  17.7  15.5   6.8   3.9   2.4   0.0   0.0   0.1   0.5   1.3   0.8   1.2  2.98  1.10  0.44  0.00  0.00   92.72   93.22    2.85    0.00    2.20
 1992 331   169     2     2     3.9  181.6   16553  159.4   22.2   7.9  10.6  22.2  17.8  15.5   6.8   3.9   2.4   0.0   0.0   0.1   0.5   1.3   0.8   1.2  2.99  1.10  0.43  0.00  0.00   93.34   93.82    2.86    0.00    2.22
 1992 332   170     2     2     3.9  182.2   16552  160.0   22.2   8.2  10.7  22.3  17.8  15.6   6.8   3.9   2.4   0.0   0.0   0.1   0.5   1.3   0.8   1.2  3.00  1.10  0.43  0.00  0.00   93.98   94.43    2.88    0.00    2.24
 1992 333   171     2     2     3.9  182.8   16551  160.6   22.2   8.5  10.9  22.4  17.8  15.6   6.8   4.0   2.4   0.0   0.0   0.1   0.5   1.2   0.8   1.2  3.01  1.10  0.43  0.00  0.00   94.66   95.09    2.90    0.00    2.26
 1992 334   172     2     2     3.9  183.5   16551  161.3   22.2   8.7  11.0  22.5  17.9  15.6   6.8   4.0   2.4   0.0   0.0   0.1   0.5   1.2   0.7   1.2  3.02  1.10  0.43  0.00  0.00   95.38   95.79    2.91    0.00    2.28
 1992 335   173     2     2     4.0  184.2   16550  162.0   22.2   4.2   9.5  21.6  19.0  16.9   7.1   4.1   2.5   0.0   0.0   0.1   0.5   1.2   0.7   1.2  3.03  1.10  0.43  0.00  0.00   96.12   96.50    2.93    0.00    2.29
 1992 336   174     2     2     4.7  184.0   16549  161.3   22.7   4.3   9.3  21.1  18.4  16.5   7.4   4.3   2.6   0.0   0.0   0.1   0.6   1.3   0.8   1.2  3.04  1.10  0.43  0.00  0.00   96.86   96.75    3.11    0.00    2.31
 1992 337   175     2     2     5.0  184.3   16548  161.3   22.9   4.7   9.4  20.9  18.1  16.3   7.6   4.4   2.7   0.0   0.0   0.1   0.6   1.4   0.8   1.3  3.06  1.10  0.43  0.00  0.00   97.60   97.21    3.22    0.00    2.33
 1992 338   176     2     2     5.2  184.8   16548  161.6   23.2   5.1   9.4  20.9  18.0  16.1   7.7   4.5   2.8   0.0   0.0   0.1   0.5   1.5   0.8   1.3  3.07  1.10  0.43  0.00  0.00   98.34   97.68    3.29    0.00    2.35
