*SOIL-PLANT-ATMOSPHERE MODULE OUTPUT FILE

*DSSAT Cropping System Model Ver. 4.0.2.000               Aug 12, 2016; 09:16:44

*RUN   1        : UYSB                    
 MODEL          : CRGRO040 - Soybean         
 EXPERIMENT     : UYSB0192 SB    late to create DSS                             
 TREATMENT  1   : UYSB                    

@YEAR DOY   DAS   SRAA   TMXA   TMNA   EOAA   ETAA   EPAA   ESAA   EFAD   ETAC   EPAC   ESAC   EFAC
 1990 191     0   7.60  13.90   6.30  1.495  1.495  0.000  1.495  0.000    1.5    0.0    1.5    0.0
 1990 192     1  13.70  18.20   5.20  2.840  1.647  0.000  1.647  0.000    3.1    0.0    3.1    0.0
 1990 193     2  13.80  17.60   3.90  2.800  1.192  0.000  1.192  0.000    4.3    0.0    4.3    0.0
 1990 194     3  13.40  19.70   6.00  2.858  2.858  0.000  2.858  0.000    7.2    0.0    7.2    0.0
 1990 195     4   9.40  19.20   7.80  2.024  2.024  0.000  2.024  0.000    9.2    0.0    9.2    0.0
 1990 196     5   6.90  20.00  10.10  1.534  1.367  0.000  1.367  0.000   10.6    0.0   10.6    0.0
 1990 197     6   5.50  15.70  10.10  1.152  1.152  0.000  1.152  0.000   11.7    0.0   11.7    0.0
 1990 198     7   8.40  16.00   9.40  1.756  1.756  0.000  1.756  0.000   13.5    0.0   13.5    0.0
 1990 199     8  12.00  11.20   1.60  2.153  2.153  0.000  2.153  0.000   15.6    0.0   15.6    0.0
 1990 200     9  12.30   8.90  -2.00  2.036  2.036  0.000  2.036  0.000   17.7    0.0   17.7    0.0
 1990 201    10  11.70   8.10  -1.20  1.927  1.881  0.000  1.881  0.000   19.6    0.0   19.6    0.0
 1990 202    11   9.40   8.60  -1.00  1.566  1.566  0.000  1.566  0.000   21.1    0.0   21.1    0.0
 1990 203    12  12.50   8.80  -5.60  1.976  1.976  0.000  1.976  0.000   23.1    0.0   23.1    0.0
 1990 204    13  12.50  13.90  -0.70  2.286  1.417  0.000  1.417  0.000   24.5    0.0   24.5    0.0
 1990 205    14  14.00  14.70   2.10  2.671  1.098  0.000  1.098  0.000   25.6    0.0   25.6    0.0
 1990 206    15  14.70   6.50  -1.00  2.358  0.929  0.000  0.929  0.000   26.5    0.0   26.5    0.0
 1990 207    16  11.00  12.00   4.00  2.052  0.820  0.000  0.820  0.000   27.4    0.0   27.4    0.0
 1990 208    17  13.50  16.00   1.70  2.617  0.743  0.000  0.743  0.000   28.1    0.0   28.1    0.0
 1990 209    18  14.90  10.20   1.10  2.615  0.683  0.000  0.683  0.000   28.8    0.0   28.8    0.0
 1990 210    19  14.20  12.70  -1.10  2.535  0.637  0.000  0.637  0.000   29.4    0.0   29.4    0.0
 1990 211    20  12.80  12.80  -1.00  2.292  0.598  0.000  0.598  0.000   30.0    0.0   30.0    0.0
 1990 212    21  13.00  14.90  -1.90  2.385  0.566  0.000  0.566  0.000   30.6    0.0   30.6    0.0
 1990 213    22  13.00  17.50   3.80  2.632  0.539  0.000  0.539  0.000   31.1    0.0   31.1    0.0
 1990 214    23  14.40  19.90   3.70  3.014  0.515  0.000  0.515  0.000   31.6    0.0   31.6    0.0
 1990 215    24  14.80  21.50   5.00  3.206  0.494  0.000  0.494  0.000   32.1    0.0   32.1    0.0
 1990 216    25  14.80  21.90   5.70  3.242  0.488  0.013  0.475  0.000   32.6    0.0   32.6    0.0
 1990 217    26  14.50  25.90  10.20  3.477  0.474  0.015  0.459  0.000   33.1    0.0   33.1    0.0
 1990 218    27  15.60  23.40  13.90  3.739  0.461  0.018  0.444  0.000   33.6    0.0   33.5    0.0
 1990 219    28  15.20  25.90  14.40  3.770  0.450  0.020  0.430  0.000   34.0    0.1   34.0    0.0
 1990 220    29  12.90  25.00  12.80  3.124  0.436  0.018  0.418  0.000   34.5    0.1   34.4    0.0
 1990 221    30  14.70  20.50  10.30  3.292  1.621  0.021  1.600  0.000   36.1    0.1   36.0    0.0
 1990 222    31  15.10  22.30   8.90  3.420  0.440  0.023  0.417  0.000   36.5    0.1   36.4    0.0
 1990 223    32  15.40  28.00  11.90  3.838  0.433  0.027  0.406  0.000   36.9    0.2   36.8    0.0
 1990 224    33  15.30  28.40  12.10  3.837  0.424  0.029  0.395  0.000   37.4    0.2   37.2    0.0
 1990 225    34  14.50  28.00  12.80  3.639  0.415  0.030  0.386  0.000   37.8    0.2   37.6    0.0
 1990 226    35   5.20  25.80  14.90  1.293  0.388  0.011  0.377  0.000   38.2    0.2   37.9    0.0
 1990 227    36   7.50  15.80  10.50  1.578  1.578  0.009  1.568  0.000   39.8    0.2   39.5    0.0
 1990 228    37  14.80  18.90   8.50  3.190  3.190  0.019  3.171  0.000   42.9    0.3   42.7    0.0
 1990 229    38  16.80  21.40   7.70  3.718  2.760  0.040  2.721  0.000   45.7    0.3   45.4    0.0
 1990 230    39  16.20  20.80   6.00  3.502  2.373  0.041  2.332  0.000   48.1    0.3   47.7    0.0
 1990 231    40  12.80  20.80  10.40  2.878  1.404  0.036  1.368  0.000   49.5    0.4   49.1    0.0
 1990 232    41  17.30  21.00  10.30  3.895  1.128  0.053  1.075  0.000   50.6    0.4   50.2    0.0
 1990 233    42  14.80  20.90   6.70  3.223  0.963  0.048  0.915  0.000   51.6    0.5   51.1    0.0
 1990 234    43  13.00  18.40   8.30  2.775  0.855  0.044  0.811  0.000   52.4    0.5   51.9    0.0
 1990 235    44  17.00  15.60   4.40  3.358  0.791  0.056  0.735  0.000   53.2    0.6   52.6    0.0
 1990 236    45  11.20  18.10   3.70  2.279  0.717  0.039  0.678  0.000   53.9    0.6   53.3    0.0
 1990 237    46  13.00  24.60   9.60  3.046  0.686  0.054  0.632  0.000   54.6    0.7   54.0    0.0
 1990 238    47  16.40  25.50  11.70  3.953  0.671  0.077  0.594  0.000   55.3    0.7   54.5    0.0
 1990 239    48   6.80  17.60   5.50  1.397  1.397  0.019  1.378  0.000   56.7    0.8   55.9    0.0
 1990 240    49  18.80   9.70   2.00  3.294  3.294  0.047  3.247  0.000   60.0    0.8   59.2    0.0
 1990 241    50  17.80  14.60  -1.20  3.264  3.106  0.075  3.032  0.000   63.1    0.9   62.2    0.0
 1990 242    51  16.80  21.80   2.90  3.573  3.316  0.084  3.233  0.000   66.4    1.0   65.4    0.0
 1990 243    52   5.50  11.80   5.50  1.035  1.035  0.016  1.019  0.000   67.4    1.0   66.5    0.0
 1990 244    53  10.70  10.20   0.80  1.864  1.864  0.029  1.835  0.000   69.3    1.0   68.3    0.0
 1990 245    54  17.70  11.60  -2.30  3.049  1.567  0.077  1.490  0.000   70.9    1.1   69.8    0.0
 1990 246    55  19.80  16.80   2.50  3.916  1.131  0.001  1.130  0.000   72.0    1.1   70.9    0.0
 1990 247    56   5.60  16.40   7.10  1.152  0.948  0.000  0.948  0.000   72.9    1.1   71.9    0.0
 1990 248    57   6.00  18.60  13.40  1.348  0.834  0.000  0.833  0.000   73.8    1.1   72.7    0.0
 1990 249    58   5.70  15.40  13.40  1.226  0.800  0.000  0.800  0.000   74.6    1.1   73.5    0.0
 1990 250    59   5.80  15.90  12.80  1.250  0.923  0.000  0.923  0.000   75.5    1.1   74.4    0.0
 1990 251    60   5.80  14.30  10.30  1.194  1.194  0.000  1.193  0.000   76.7    1.1   75.6    0.0
 1990 252    61  19.70  23.50   7.80  4.493  4.493  0.001  4.493  0.000   81.2    1.1   80.1    0.0
 1990 253    62  15.20  27.50  11.60  3.761  2.383  0.001  2.382  0.000   83.6    1.1   82.5    0.0
 1990 254    63   9.60  23.10  10.70  2.233  2.233  0.000  2.233  0.000   85.8    1.1   84.7    0.0
 1990 255    64  17.10  13.80   5.20  3.321  3.321  0.000  3.321  0.000   89.1    1.1   88.0    0.0
 1990 256    65  18.80  11.80   2.70  3.447  2.248  0.001  2.247  0.000   91.4    1.1   90.3    0.0
 1990 257    66  20.40  14.20   0.50  3.797  2.136  0.001  2.136  0.000   93.5    1.1   92.4    0.0
 1990 258    67  21.40  18.40   3.40  4.372  1.332  0.001  1.331  0.000   94.8    1.1   93.8    0.0
 1990 259    68  17.80  21.60   7.90  3.963  1.058  0.001  1.057  0.000   95.9    1.1   94.8    0.0
 1990 260    69  10.60  17.70  10.60  2.294  0.905  0.001  0.904  0.000   96.8    1.1   95.7    0.0
 1990 261    70   9.30  17.90  11.00  2.026  2.026  0.000  2.025  0.000   98.8    1.1   97.7    0.0
 1990 262    71  13.80  17.70  10.00  2.970  2.970  0.000  2.970  0.000  101.8    1.1  100.7    0.0
 1990 263    72   6.40  17.90  13.30  1.423  1.256  0.000  1.256  0.000  103.1    1.1  102.0    0.0
 1990 264    73   6.40  20.50  15.80  1.504  1.504  0.000  1.504  0.000  104.6    1.1  103.5    0.0
 1990 265    74  20.10  18.60   9.20  4.348  2.162  0.001  2.161  0.000  106.7    1.1  105.6    0.0
 1990 266    75  18.60  13.50   5.40  3.604  1.337  0.001  1.336  0.000  108.1    1.1  107.0    0.0
 1990 267    76  22.30  15.00   3.20  4.323  1.061  0.001  1.059  0.000  109.1    1.1  108.0    0.0
 1990 268    77  23.20  16.30   3.10  4.582  0.907  0.001  0.906  0.000  110.0    1.1  108.9    0.0
 1990 269    78  23.40  20.50   5.10  5.005  0.805  0.001  0.804  0.000  110.8    1.1  109.7    0.0
 1990 270    79  21.30  24.00   8.90  4.936  0.732  0.001  0.730  0.000  111.6    1.1  110.5    0.0
 1990 271    80   6.80  21.70  12.20  1.574  0.674  0.000  0.674  0.000  112.2    1.1  111.1    0.0
 1990 272    81  19.30  22.00  11.30  4.450  0.630  0.001  0.629  0.000  112.9    1.1  111.8    0.0
 1990 273    82  19.30  25.20   8.90  4.541  0.593  0.001  0.592  0.000  113.5    1.1  112.4    0.0
 1990 274    83  21.70  28.10  12.90  5.463  0.562  0.002  0.561  0.000  114.0    1.1  112.9    0.0
 1990 275    84  24.20  24.00  11.90  5.751  0.536  0.002  0.534  0.000  114.6    1.1  113.5    0.0
 1990 276    85  21.80  26.60  13.30  5.409  0.512  0.002  0.511  0.000  115.1    1.1  114.0    0.0
 1990 277    86  17.90  30.10  17.50  4.775  0.492  0.002  0.490  0.000  115.6    1.1  114.5    0.0
 1990 278    87   7.10  19.10  17.30  1.660  0.473  0.001  0.472  0.000  116.0    1.1  114.9    0.0
 1990 279    88   9.40  22.70  17.20  2.296  2.296  0.000  2.296  0.000  118.3    1.1  117.2    0.0
 1990 280    89   7.20  21.60  17.70  1.742  1.742  0.000  1.742  0.000  120.1    1.1  119.0    0.0
 1990 281    90  11.50  20.40  13.70  2.651  2.651  0.001  2.651  0.000  122.7    1.1  121.6    0.0
 1990 282    91  23.40  22.30   9.50  5.332  4.540  0.002  4.539  0.000  127.3    1.1  126.2    0.0
 1990 283    92  21.00  22.30  11.30  4.860  2.509  0.002  2.507  0.000  129.8    1.1  128.7    0.0
 1990 284    93   9.00  22.10  14.50  2.134  1.395  0.001  1.394  0.000  131.2    1.1  130.1    0.0
 1990 285    94  25.50  19.40  11.30  5.683  5.683  0.001  5.681  0.000  136.9    1.1  135.7    0.0
 1990 286    95  26.10  21.60   7.60  5.796  3.606  0.002  3.604  0.000  140.5    1.1  139.3    0.0
 1990 287    96  24.80  22.60  11.50  5.771  1.517  0.002  1.515  0.000  142.0    1.1  140.9    0.0
 1990 288    97  25.50  20.10   8.90  5.615  1.143  0.002  1.140  0.000  143.1    1.1  142.0    0.0
 1990 289    98  26.40  20.50   5.00  5.641  0.957  0.002  0.954  0.000  144.1    1.1  142.9    0.0
 1990 290    99  15.20  21.40   8.90  3.405  0.839  0.002  0.837  0.000  144.9    1.1  143.8    0.0
 1990 291   100  24.50  24.40  14.30  5.967  0.758  0.003  0.755  0.000  145.7    1.1  144.5    0.0
 1990 292   101  17.30  24.00  15.30  4.227  4.227  0.001  4.226  0.000  149.9    1.1  148.8    0.0
 1990 293   102  16.40  23.70  15.70  4.006  2.519  0.002  2.517  0.000  152.4    1.1  151.3    0.0
 1990 294   103  22.20  24.00  14.20  5.377  1.923  0.003  1.920  0.000  154.3    1.1  153.2    0.0
 1990 295   104  27.10  24.80  13.10  6.569  1.283  0.004  1.279  0.000  155.6    1.1  154.5    0.0
 1990 296   105  21.10  25.60  13.10  5.164  1.034  0.003  1.030  0.000  156.7    1.1  155.5    0.0
 1990 297   106  20.80  22.20  13.80  4.910  0.891  0.003  0.887  0.000  157.6    1.2  156.4    0.0
 1990 298   107  14.30  24.70  11.80  3.425  0.794  0.002  0.791  0.000  158.3    1.2  157.2    0.0
 1990 299   108  25.10  27.10  16.30  6.413  0.726  0.005  0.721  0.000  159.1    1.2  157.9    0.0
 1990 300   109  19.60  28.30  17.00  5.105  0.670  0.004  0.666  0.000  159.7    1.2  158.6    0.0
 1990 301   110   8.80  23.80  18.50  2.201  0.625  0.002  0.623  0.000  160.4    1.2  159.2    0.0
 1990 302   111  12.20  27.40  20.40  3.227  3.227  0.002  3.225  0.000  163.6    1.2  162.4    0.0
 1990 303   112  26.40  28.80  17.90  6.961  6.581  0.006  6.574  0.000  170.2    1.2  169.0    0.0
 1990 304   113  26.50  23.20  15.80  6.438  2.979  0.006  2.972  0.000  173.2    1.2  172.0    0.0
 1990 305   114  23.10  24.10  16.70  5.715  1.606  0.006  1.600  0.000  174.8    1.2  173.6    0.0
 1990 306   115  20.10  27.00  14.30  5.050  1.565  0.005  1.560  0.000  176.3    1.2  175.1    0.0
 1990 307   116  11.80  28.10  20.80  3.154  1.162  0.003  1.159  0.000  177.5    1.2  176.3    0.0
 1990 308   117  21.00  22.20  10.80  4.833  4.833  0.003  4.829  0.000  182.3    1.2  181.1    0.0
 1990 309   118  28.80  19.00   6.40  6.105  4.136  0.007  4.128  0.000  186.5    1.2  185.2    0.0
 1990 310   119  17.40  21.20   9.80  3.918  1.629  0.005  1.625  0.000  188.1    1.2  186.9    0.0
 1990 311   120  23.40  23.50  13.50  5.600  1.607  0.007  1.600  0.000  189.7    1.2  188.5    0.0
 1990 312   121   8.40  18.40  11.30  1.847  1.274  0.002  1.271  0.000  191.0    1.2  189.7    0.0
 1990 313   122  16.20  22.30  15.10  3.870  1.031  0.005  1.026  0.000  192.0    1.2  190.8    0.0
 1990 314   123  21.20  24.80  13.70  5.163  1.391  0.006  1.385  0.000  193.4    1.2  192.2    0.0
 1990 315   124  23.60  27.00  15.30  5.976  0.797  0.008  0.789  0.000  194.2    1.2  192.9    0.0
 1990 316   125  12.20  24.60  14.20  2.976  0.723  0.004  0.719  0.000  194.9    1.2  193.7    0.0
 1990 317   126  26.70  34.90  18.50  7.554  0.675  0.010  0.665  0.000  195.6    1.3  194.3    0.0
 1990 318   127  15.90  33.00  20.80  4.481  1.606  0.006  1.600  0.000  197.2    1.3  195.9    0.0
 1990 319   128   8.60  23.20  17.30  2.115  0.650  0.003  0.647  0.000  197.8    1.3  196.6    0.0
 1990 320   129  17.60  22.10  12.20  4.094  4.094  0.003  4.090  0.000  201.9    1.3  200.7    0.0
 1990 321   130  28.70  26.10   9.30  6.851  4.880  0.009  4.871  0.000  206.8    1.3  205.5    0.0
 1990 322   131  27.80  29.70  16.50  7.327  1.633  0.010  1.623  0.000  208.4    1.3  207.2    0.0
 1990 323   132  27.10  33.40  21.80  7.723  1.194  0.010  1.183  0.000  209.6    1.3  208.3    0.0
 1990 324   133  12.20  28.00  21.10  3.265  0.983  0.004  0.979  0.000  210.6    1.3  209.3    0.0
 1990 325   134  30.70  28.70  18.80  8.140  1.211  0.011  1.200  0.000  211.8    1.3  210.5    0.0
 1990 326   135  28.10  28.00  15.30  7.198  0.899  0.010  0.889  0.000  212.7    1.3  211.4    0.0
 1990 327   136  29.80  28.20  14.20  7.587  0.803  0.010  0.792  0.000  213.5    1.3  212.2    0.0
 1990 328   137  25.60  28.70  16.80  6.687  0.731  0.009  0.722  0.000  214.3    1.3  212.9    0.0
 1990 329   138  20.10  29.20  18.20  5.335  0.674  0.007  0.667  0.000  214.9    1.3  213.6    0.0
 1990 330   139  22.90  24.90  15.80  5.679  5.679  0.005  5.674  0.000  220.6    1.3  219.3    0.0
 1990 331   140  30.40  21.20  10.00  6.858  4.251  0.009  4.242  0.000  224.9    1.4  223.5    0.0
 1990 332   141  30.90  24.60   9.00  7.220  1.346  0.010  1.336  0.000  226.2    1.4  224.8    0.0
 1990 333   142  31.00  27.10  12.20  7.669  1.070  0.010  1.059  0.000  227.3    1.4  225.9    0.0
 1990 334   143  14.90  26.80  14.90  3.752  0.911  0.005  0.906  0.000  228.2    1.4  226.8    0.0
 1990 335   144  23.40  26.40  14.70  5.856  0.812  0.008  0.804  0.000  229.0    1.4  227.6    0.0
 1990 336   145   9.00  23.50  14.10  2.164  0.733  0.003  0.730  0.000  229.7    1.4  228.3    0.0
 1990 337   146  30.10  22.90  11.40  7.025  4.720  0.009  4.711  0.000  234.5    1.4  233.1    0.0
 1990 338   147  28.70  27.90  10.60  7.077  1.470  0.009  1.461  0.000  235.9    1.4  234.5    0.0
 1990 339   148  16.80  32.30  20.30  4.683  1.124  0.006  1.117  0.000  237.1    1.4  235.6    0.0
 1990 340   149  16.80  25.60  17.50  4.257  4.257  0.003  4.254  0.000  241.3    1.4  239.9    0.0
 1990 341   150  26.90  25.20  16.00  6.705  6.429  0.009  6.420  0.000  247.7    1.4  246.3    0.0
 1990 342   151  30.30  25.00  12.00  7.296  3.115  0.010  3.105  0.000  250.9    1.4  249.4    0.0
 1990 343   152   9.00  19.70  14.20  2.065  1.445  0.003  1.442  0.000  252.3    1.4  250.9    0.0
 1990 344   153   9.10  19.50  15.90  2.113  2.113  0.002  2.111  0.000  254.4    1.4  253.0    0.0
 1990 345   154  24.70  25.00  14.70  6.079  5.208  0.008  5.200  0.000  259.6    1.5  258.2    0.0
 1990 346   155  14.70  22.00  10.50  3.365  2.431  0.004  2.426  0.000  262.1    1.5  260.6    0.0
 1990 347   156  19.00  24.00  14.30  4.605  1.389  0.006  1.383  0.000  263.4    1.5  262.0    0.0
 1990 348   157  29.20  21.90  10.30  6.665  1.090  0.009  1.082  0.000  264.5    1.5  263.1    0.0
 1990 349   158  31.80  27.30  10.90  7.804  0.929  0.010  0.919  0.000  265.5    1.5  264.0    0.0
 1990 350   159  28.70  30.20  13.70  7.448  0.823  0.009  0.814  0.000  266.3    1.5  264.8    0.0
 1990 351   160  14.40  30.10  18.00  3.855  0.742  0.005  0.738  0.000  267.0    1.5  265.5    0.0
 1990 352   161  27.40  25.60  17.30  6.933  6.565  0.009  6.556  0.000  273.6    1.5  272.1    0.0
 1990 353   162  31.40  25.60  14.40  7.765  2.997  0.010  2.988  0.000  276.6    1.5  275.1    0.0
 1990 354   163  31.60  27.10  14.00  7.930  1.447  0.010  1.437  0.000  278.0    1.5  276.5    0.0
 1990 355   164  25.60  29.80  15.90  6.725  1.115  0.008  1.107  0.000  279.2    1.5  277.6    0.0
 1990 356   165  10.00  25.70  19.00  2.567  2.567  0.002  2.565  0.000  281.7    1.5  280.2    0.0
 1990 357   166  19.50  28.40  17.80  5.115  4.447  0.006  4.441  0.000  286.2    1.5  284.6    0.0
 1990 358   167  13.10  24.40  15.50  3.221  3.221  0.002  3.219  0.000  289.4    1.5  287.8    0.0
 1990 359   168  29.40  25.70  12.70  7.181  5.426  0.008  5.418  0.000  294.8    1.6  293.3    0.0
 1990 360   169  31.40  31.30  15.30  8.351  1.755  0.010  1.745  0.000  296.6    1.6  295.0    0.0
 1990 361   170  31.40  31.50  18.00  8.537  1.236  0.010  1.226  0.000  297.8    1.6  296.2    0.0
 1990 362   171  31.40  21.00  13.30  7.269  1.011  0.008  1.003  0.000  298.8    1.6  297.2    0.0
 1990 363   172  29.60  23.30   9.40  6.826  0.877  0.008  0.869  0.000  299.7    1.6  298.1    0.0
 1990 364   173  30.80  27.20  11.40  7.580  0.787  0.008  0.778  0.000  300.5    1.6  298.9    0.0
 1990 365   174  31.50  29.40  14.80  8.169  0.720  0.009  0.711  0.000  301.2    1.6  299.6    0.0
 1991 001   175  24.30  31.60  17.10  6.570  0.666  0.007  0.659  0.000  301.9    1.6  300.3    0.0
 1991 002   176  24.10  29.20  20.30  6.497  0.623  0.007  0.616  0.000  302.5    1.6  300.9    0.0
 1991 003   177  26.70  29.10  17.40  7.038  0.589  0.008  0.581  0.000  303.1    1.6  301.4    0.0
 1991 004   178  31.30  28.60  13.40  7.957  0.560  0.008  0.552  0.000  303.6    1.6  302.0    0.0
 1991 005   179  31.30  28.20  13.80  7.944  0.534  0.008  0.526  0.000  304.2    1.6  302.5    0.0
 1991 006   180  31.30  30.20  13.00  8.081  0.511  0.007  0.504  0.000  304.7    1.7  303.0    0.0
 1991 007   181  29.60  32.40  17.10  8.074  0.489  0.005  0.484  0.000  305.2    1.7  303.5    0.0
 1991 008   182  29.90  34.30  19.30  8.454  0.471  0.004  0.467  0.000  305.6    1.7  304.0    0.0
 1991 009   183   9.90  24.30  21.30  2.545  0.452  0.001  0.451  0.000  306.1    1.7  304.4    0.0
 1991 010   184  27.90  30.80  19.20  7.594  4.803  0.003  4.800  0.000  310.9    1.7  309.2    0.0
 1991 011   185  25.10  27.80  15.90  6.446  0.478  0.002  0.477  0.000  311.4    1.7  309.7    0.0
 1991 012   186  29.50  26.40  13.00  7.285  0.462  0.002  0.460  0.000  311.8    1.7  310.2    0.0
 1991 013   187  19.30  27.00  12.90  4.796  0.446  0.001  0.445  0.000  312.3    1.7  310.6    0.0
 1991 014   188  30.50  28.00  14.60  7.772  0.432  0.001  0.431  0.000  312.7    1.7  311.0    0.0
 1991 015   189  29.90  31.70  14.10  7.918  0.419  0.001  0.419  0.000  313.1    1.7  311.5    0.0
 1991 016   190  22.10  22.50  13.00  5.202  0.408  0.000  0.407  0.000  313.5    1.7  311.9    0.0

*DSSAT Cropping System Model Ver. 4.0.2.000               Aug 12, 2016; 09:16:44

*RUN   2        : UYSB                    
 MODEL          : CRGRO040 - Soybean         
 EXPERIMENT     : UYSB0192 SB    late to create DSS                             
 TREATMENT  1   : UYSB                    

@YEAR DOY   DAS   SRAA   TMXA   TMNA   EOAA   ETAA   EPAA   ESAA   EFAD   ETAC   EPAC   ESAC   EFAC
 1991 191     0   7.30  12.70   5.20  1.394  1.394  0.000  1.394  0.000    1.4    0.0    1.4    0.0
 1991 192     1   7.30   9.90   2.10  1.289  1.289  0.000  1.289  0.000    2.7    0.0    2.7    0.0
 1991 193     2   6.40   8.10   1.00  1.082  1.082  0.000  1.082  0.000    3.8    0.0    3.8    0.0
 1991 194     3  11.80   8.20  -1.10  1.950  1.950  0.000  1.950  0.000    5.7    0.0    5.7    0.0
 1991 195     4  11.40  10.00  -1.70  1.931  1.931  0.000  1.931  0.000    7.6    0.0    7.6    0.0
 1991 196     5  12.40  12.60  -2.10  2.186  2.159  0.000  2.159  0.000    9.8    0.0    9.8    0.0
 1991 197     6   8.10  16.00   5.80  1.636  1.636  0.000  1.636  0.000   11.4    0.0   11.4    0.0
 1991 198     7   8.40  22.00   9.90  1.913  1.913  0.000  1.913  0.000   13.4    0.0   13.4    0.0
 1991 199     8   3.90  16.90   8.70  0.820  0.820  0.000  0.820  0.000   14.2    0.0   14.2    0.0
 1991 200     9  10.60  15.00   5.60  2.105  2.105  0.000  2.105  0.000   16.3    0.0   16.3    0.0
 1991 201    10   9.40  24.20  12.80  2.256  2.256  0.000  2.256  0.000   18.5    0.0   18.5    0.0
 1991 202    11   4.00  12.80   8.00  0.787  0.787  0.000  0.787  0.000   19.3    0.0   19.3    0.0
 1991 203    12   4.00   8.40   6.60  0.724  0.724  0.000  0.724  0.000   20.0    0.0   20.0    0.0
 1991 204    13   8.20  10.20   4.80  1.499  1.499  0.000  1.499  0.000   21.5    0.0   21.5    0.0
 1991 205    14  14.00  15.90   2.30  2.726  2.726  0.000  2.726  0.000   24.3    0.0   24.3    0.0
 1991 206    15  14.10  16.80   2.80  2.797  2.388  0.000  2.388  0.000   26.7    0.0   26.7    0.0
 1991 207    16  14.30  24.00   9.10  3.320  2.940  0.000  2.940  0.000   29.6    0.0   29.6    0.0
 1991 208    17  14.40  27.10  10.20  3.506  1.434  0.000  1.434  0.000   31.0    0.0   31.0    0.0
 1991 209    18  13.80  26.30  14.20  3.436  1.106  0.000  1.106  0.000   32.1    0.0   32.1    0.0
 1991 210    19  11.00  25.20  16.10  2.745  0.934  0.000  0.934  0.000   33.1    0.0   33.1    0.0
 1991 211    20   4.20  20.20   8.80  0.925  0.827  0.004  0.823  0.000   33.9    0.0   33.9    0.0
 1991 212    21  11.30  15.40   5.60  2.256  2.256  0.006  2.250  0.000   36.2    0.0   36.1    0.0
 1991 213    22  15.40   6.50   0.50  2.514  2.514  0.007  2.507  0.000   38.7    0.0   38.7    0.0
 1991 214    23  13.80   9.60  -1.80  2.317  1.894  0.010  1.883  0.000   40.6    0.0   40.5    0.0
 1991 215    24  14.00  11.90  -0.90  2.470  2.470  0.007  2.464  0.000   43.0    0.0   43.0    0.0
 1991 216    25   4.40  10.90   4.00  0.806  0.806  0.002  0.804  0.000   43.8    0.0   43.8    0.0
 1991 217    26  14.60  15.00   4.30  2.860  2.860  0.008  2.852  0.000   46.7    0.0   46.7    0.0
 1991 218    27   4.50   9.70   1.90  0.790  0.790  0.002  0.787  0.000   47.5    0.0   47.4    0.0
 1991 219    28   7.50  15.40   2.30  1.448  1.448  0.004  1.444  0.000   48.9    0.1   48.9    0.0
 1991 220    29  11.00  16.70   7.50  2.279  1.420  0.011  1.409  0.000   50.4    0.1   50.3    0.0
 1991 221    30   5.10  15.70  10.40  1.071  1.071  0.003  1.068  0.000   51.4    0.1   51.4    0.0
 1991 222    31   4.80  11.90   8.10  0.932  0.932  0.003  0.929  0.000   52.4    0.1   52.3    0.0
 1991 223    32   7.80  13.10   5.60  1.504  1.504  0.005  1.499  0.000   53.9    0.1   53.8    0.0
 1991 224    33  12.50  15.80   1.50  2.409  1.155  0.013  1.142  0.000   55.0    0.1   54.9    0.0
 1991 225    34  11.60  18.50   7.30  2.461  0.969  0.014  0.955  0.000   56.0    0.1   55.9    0.0
 1991 226    35  15.20  25.70  10.80  3.653  0.860  0.021  0.838  0.000   56.8    0.1   56.7    0.0
 1991 227    36  10.70  25.30  15.40  2.656  0.773  0.017  0.756  0.000   57.6    0.1   57.5    0.0
 1991 228    37  12.60  27.30  14.40  3.177  0.716  0.022  0.694  0.000   58.3    0.2   58.2    0.0
 1991 229    38  16.10  24.70  11.80  3.852  0.674  0.029  0.645  0.000   59.0    0.2   58.8    0.0
 1991 230    39   9.30  23.80  13.60  2.233  0.623  0.018  0.605  0.000   59.6    0.2   59.4    0.0
 1991 231    40  12.70  26.00  10.90  3.065  0.598  0.026  0.572  0.000   60.2    0.2   60.0    0.0
 1991 232    41   9.30  26.00  11.80  2.261  0.564  0.020  0.543  0.000   60.8    0.3   60.5    0.0
 1991 233    42  14.70  26.00  11.60  3.567  0.556  0.037  0.519  0.000   61.4    0.3   61.1    0.0
 1991 234    43  13.80  26.40  14.60  3.445  0.539  0.041  0.498  0.000   61.9    0.3   61.6    0.0
 1991 235    44  16.70  21.60  14.50  3.928  0.533  0.054  0.479  0.000   62.4    0.4   62.0    0.0
 1991 236    45  16.20  20.70   9.90  3.620  0.517  0.055  0.462  0.000   62.9    0.4   62.5    0.0
 1991 237    46  14.10  24.70  11.10  3.350  0.502  0.055  0.446  0.000   63.4    0.5   62.9    0.0
 1991 238    47   5.40  16.90  11.90  1.167  0.453  0.021  0.433  0.000   63.9    0.5   63.4    0.0
 1991 239    48   5.30  16.20  10.20  1.116  1.116  0.013  1.103  0.000   65.0    0.5   64.5    0.0
 1991 240    49  10.80  21.40  12.10  2.481  0.497  0.050  0.447  0.000   65.5    0.6   64.9    0.0
 1991 241    50  10.70  22.80  14.40  2.550  0.490  0.056  0.433  0.000   66.0    0.6   65.4    0.0
 1991 242    51   7.30  24.20  16.00  1.792  0.465  0.044  0.420  0.000   66.5    0.7   65.8    0.0
 1991 243    52   5.50  16.80  11.00  1.175  1.175  0.020  1.155  0.000   67.6    0.7   66.9    0.0
 1991 244    53   9.40  16.10   8.10  1.935  1.622  0.056  1.566  0.000   69.3    0.8   68.5    0.0
 1991 245    54   5.50  17.90  11.20  1.195  1.195  0.022  1.172  0.000   70.5    0.8   69.7    0.0
 1991 246    55  10.50  22.80  14.00  2.490  2.465  0.079  2.386  0.000   72.9    0.9   72.1    0.0
 1991 247    56  18.10  25.80  13.20  4.422  1.531  0.155  1.377  0.000   74.5    1.0   73.4    0.0
 1991 248    57  18.40  27.20  13.90  4.593  1.260  0.181  1.079  0.000   75.7    1.2   74.5    0.0
 1991 249    58   5.70  22.50  16.00  1.367  0.978  0.060  0.918  0.000   76.7    1.3   75.4    0.0
 1991 250    59   5.80  17.20  12.80  1.263  0.982  0.061  0.921  0.000   77.7    1.3   76.4    0.0
 1991 251    60   6.40  17.10  10.50  1.362  1.362  0.044  1.318  0.000   79.0    1.4   77.7    0.0
 1991 252    61  15.60  20.00   8.40  3.388  2.332  0.181  2.150  0.000   81.4    1.5   79.8    0.0
 1991 253    62  17.50  22.00  10.20  3.964  1.556  0.222  1.334  0.000   82.9    1.8   81.2    0.0
 1991 254    63  20.20  25.00  10.80  4.775  1.345  0.286  1.058  0.000   84.3    2.0   82.2    0.0
 1991 255    64  19.90  27.80  14.10  4.992  1.229  0.324  0.905  0.000   85.5    2.4   83.1    0.0
 1991 256    65  15.40  30.70  16.10  4.051  1.093  0.289  0.804  0.000   86.6    2.7   83.9    0.0
 1991 257    66   6.10  21.00   7.80  1.331  0.835  0.105  0.730  0.000   87.4    2.8   84.7    0.0
 1991 258    67   6.20  12.30   8.20  1.199  1.199  0.063  1.136  0.000   88.6    2.8   85.8    0.0
 1991 259    68  11.50  23.50  12.40  2.694  2.694  0.144  2.550  0.000   91.3    3.0   88.3    0.0
 1991 260    69   6.30  21.10  17.10  1.488  1.488  0.089  1.399  0.000   92.8    3.1   89.7    0.0
 1991 261    70  18.90  19.70  13.10  4.232  4.232  0.279  3.954  0.000   97.0    3.3   93.7    0.0
 1991 262    71  21.70  17.30   8.80  4.521  3.833  0.496  3.337  0.000  100.9    3.8   97.0    0.0
 1991 263    72  13.10  22.60   8.30  2.917  2.773  0.334  2.439  0.000  103.6    4.2   99.5    0.0
 1991 264    73  11.00  27.50  12.60  2.694  1.717  0.332  1.385  0.000  105.4    4.5  100.9    0.0
 1991 265    74  20.40  20.30  10.30  4.468  1.702  0.619  1.083  0.000  107.1    5.1  101.9    0.0
 1991 266    75  21.60  16.90   3.20  4.216  1.543  0.623  0.920  0.000  108.6    5.7  102.9    0.0
 1991 267    76  22.30  19.00   4.90  4.558  1.507  0.693  0.814  0.000  110.1    6.4  103.7    0.0
 1991 268    77  20.30  21.10   8.70  4.418  1.438  0.700  0.738  0.000  111.5    7.1  104.4    0.0
 1991 269    78  21.70  23.40   7.80  4.822  1.494  0.814  0.680  0.000  113.0    8.0  105.1    0.0
 1991 270    79  17.70  27.80  13.80  4.354  1.425  0.792  0.634  0.000  114.5    8.7  105.7    0.0
 1991 271    80  22.20  16.10   9.00  4.492  1.518  0.923  0.596  0.000  116.0    9.7  106.3    0.0
 1991 272    81  21.80  18.00   7.50  4.463  1.511  0.947  0.564  0.000  117.5   10.6  106.9    0.0
 1991 273    82  21.10  20.20   9.70  4.536  1.537  1.000  0.537  0.000  119.0   11.6  107.4    0.0
 1991 274    83  19.70  18.40   7.00  4.024  1.452  0.939  0.513  0.000  120.5   12.6  107.9    0.0
 1991 275    84  22.00  18.40   5.70  4.433  1.567  1.075  0.492  0.000  122.1   13.6  108.4    0.0
 1991 276    85  23.00  19.80   3.80  4.637  1.640  1.166  0.474  0.000  123.7   14.8  108.9    0.0
 1991 277    86  19.10  21.70   6.30  4.039  1.514  1.056  0.457  0.000  125.2   15.9  109.4    0.0
 1991 278    87   7.10  13.60  10.60  1.393  0.827  0.384  0.443  0.000  126.0   16.2  109.8    0.0
 1991 279    88  13.30  12.50   7.00  2.475  2.475  0.501  1.974  0.000  128.5   16.7  111.8    0.0
 1991 280    89  14.80  14.20   4.00  2.739  2.739  0.565  2.175  0.000  131.2   17.3  113.9    0.0
 1991 281    90  23.60  16.90   3.90  4.541  4.541  0.956  3.586  0.000  135.8   18.3  117.5    0.0
 1991 282    91  20.30  20.90   7.30  4.262  3.367  1.269  2.098  0.000  139.2   19.5  119.6    0.0
 1991 283    92  24.30  23.10   7.20  5.237  3.742  1.638  2.104  0.000  142.9   21.2  121.7    0.0
 1991 284    93  24.30  25.00   8.70  5.421  3.122  1.798  1.324  0.000  146.0   23.0  123.1    0.0
 1991 285    94  24.40  29.20  12.20  5.872  3.140  2.086  1.054  0.000  149.2   25.0  124.1    0.0
 1991 286    95  21.90  33.00  20.00  5.797  3.142  2.240  0.902  0.000  152.3   27.3  125.0    0.0
 1991 287    96  11.80  32.00  21.10  3.097  3.097  1.050  2.047  0.000  155.4   28.3  127.1    0.0
 1991 288    97   7.50  23.50  17.60  1.734  1.734  0.651  1.083  0.000  157.1   29.0  128.1    0.0
 1991 289    98   7.60  17.80  11.60  1.547  1.547  0.625  0.922  0.000  158.7   29.6  129.1    0.0
 1991 290    99  15.50  16.00   8.40  2.984  2.984  1.234  1.750  0.000  161.7   30.8  130.8    0.0
 1991 291   100  26.30  21.50   8.40  5.456  5.456  2.302  3.155  0.000  167.1   33.1  134.0    0.0
 1991 292   101  26.30  24.60  11.00  5.793  5.129  2.960  2.169  0.000  172.3   36.1  136.1    0.0
 1991 293   102  26.30  24.90  12.50  5.871  5.142  3.109  2.033  0.000  177.4   39.2  138.2    0.0
 1991 294   103  24.40  29.60  14.20  5.819  4.503  3.195  1.308  0.000  181.9   42.4  139.5    0.0
 1991 295   104  20.20  29.90  19.80  5.023  3.918  2.873  1.045  0.000  185.8   45.3  140.5    0.0
 1991 296   105   8.30  19.10  12.60  1.705  1.705  0.783  0.923  0.000  187.5   46.1  141.5    0.0
 1991 297   106   7.90  17.40  10.20  1.551  1.551  0.720  0.831  0.000  189.1   46.8  142.3    0.0
 1991 298   107   7.90  21.30  15.40  1.707  1.707  0.797  0.910  0.000  190.8   47.6  143.2    0.0
 1991 299   108  22.70  24.90  16.30  5.157  4.119  3.179  0.940  0.000  194.9   50.8  144.1    0.0
 1991 300   109  12.20  23.30  14.70  2.678  2.516  1.688  0.828  0.000  197.4   52.5  145.0    0.0
 1991 301   110   8.00  20.10  14.90  1.688  1.688  0.940  0.748  0.000  199.1   53.4  145.7    0.0
 1991 302   111   8.00  16.80  15.20  1.620  1.620  0.932  0.688  0.000  200.7   54.3  146.4    0.0
 1991 303   112   8.10  18.00  14.60  1.657  1.657  0.826  0.831  0.000  202.4   55.2  147.2    0.0
 1991 304   113   8.10  20.70  14.60  1.715  1.715  0.858  0.857  0.000  204.1   56.0  148.1    0.0
 1991 305   114  17.90  22.30  13.70  3.837  3.837  1.926  1.911  0.000  207.9   57.9  150.0    0.0
 1991 306   115  25.50  22.30  12.20  5.398  5.398  2.705  2.693  0.000  213.3   60.6  152.7    0.0
 1991 307   116  20.80  22.80  12.80  4.454  4.443  2.891  1.551  0.000  217.8   63.5  154.2    0.0
 1991 308   117  27.90  25.00  11.90  6.095  6.095  3.464  2.631  0.000  223.9   67.0  156.9    0.0
 1991 309   118  20.90  25.90  13.20  4.667  4.425  3.017  1.409  0.000  228.3   70.0  158.3    0.0
 1991 310   119  11.60  24.30  16.20  2.604  2.604  1.292  1.311  0.000  230.9   71.3  159.6    0.0
 1991 311   120  21.40  22.80  13.70  4.621  4.621  2.295  2.326  0.000  235.5   73.6  161.9    0.0
 1991 312   121  20.00  21.40  12.40  4.197  4.094  2.699  1.396  0.000  239.6   76.3  163.3    0.0
 1991 313   122  27.20  23.90   9.20  5.737  5.737  3.157  2.580  0.000  245.3   79.5  165.9    0.0
 1991 314   123  17.60  25.70  11.30  3.865  3.865  2.462  1.403  0.000  249.2   81.9  167.3    0.0
 1991 315   124  18.50  19.00  10.10  3.689  3.446  2.355  1.091  0.000  252.7   84.3  168.4    0.0
 1991 316   125  27.30  19.00   6.40  5.264  5.264  2.582  2.682  0.000  257.9   86.9  171.1    0.0
 1991 317   126  18.50  21.00   8.40  3.734  3.734  1.828  1.906  0.000  261.7   88.7  173.0    0.0
 1991 318   127   8.50  19.90  12.10  1.747  1.747  0.854  0.893  0.000  263.4   89.5  173.9    0.0
 1991 319   128  11.90  22.20  14.00  2.561  2.561  1.565  0.996  0.000  266.0   91.1  174.9    0.0
 1991 320   129  19.50  23.20  12.10  4.184  4.184  2.031  2.153  0.000  270.1   93.1  177.0    0.0
 1991 321   130  21.50  23.00  11.30  4.572  4.572  2.824  1.748  0.000  274.7   96.0  178.8    0.0
 1991 322   131  23.70  27.00  13.30  5.382  4.602  3.375  1.227  0.000  279.3   99.3  180.0    0.0
 1991 323   132  29.90  21.30  13.80  6.359  4.979  3.976  1.003  0.000  284.3  103.3  181.0    0.0
 1991 324   133  24.60  24.40  13.00  5.404  4.238  3.368  0.870  0.000  288.5  106.7  181.9    0.0
 1991 325   134  29.40  28.60  12.50  6.767  4.983  4.204  0.779  0.000  293.5  110.9  182.6    0.0
 1991 326   135  28.60  33.30  13.80  7.015  7.015  3.341  3.674  0.000  300.5  114.2  186.3    0.0
 1991 327   136  24.90  35.20  18.50  6.506  6.506  3.525  2.981  0.000  307.0  117.7  189.3    0.0
 1991 328   137   8.80  19.10  13.80  1.822  1.822  0.861  0.961  0.000  308.9  118.6  190.3    0.0
 1991 329   138   8.80  18.80  14.20  1.822  1.822  0.858  0.965  0.000  310.7  119.5  191.2    0.0
 1991 330   139  14.10  20.20  12.60  2.933  2.933  1.375  1.558  0.000  313.6  120.8  192.8    0.0
 1991 331   140  22.40  24.20  10.70  4.827  4.827  2.254  2.573  0.000  318.4  123.1  195.4    0.0
 1991 332   141  22.30  29.00  14.90  5.266  5.266  2.451  2.815  0.000  323.7  125.5  198.2    0.0
 1991 333   142  16.00  25.60  19.00  3.751  3.751  1.738  2.012  0.000  327.5  127.3  200.2    0.0
 1991 334   143  30.00  28.20  17.50  7.166  7.166  3.305  3.861  0.000  334.6  130.6  204.0    0.0
 1991 335   144  24.30  27.80  14.60  5.653  5.259  3.373  1.886  0.000  339.9  134.0  205.9    0.0
 1991 336   145  29.40  30.10  14.90  7.042  6.339  4.181  2.158  0.000  346.2  138.1  208.1    0.0
 1991 337   146  15.40  27.50  18.00  3.668  3.503  2.167  1.336  0.000  349.7  140.3  209.4    0.0
 1991 338   147  29.90  31.50  16.10  7.347  5.377  4.318  1.059  0.000  355.1  144.6  210.5    0.0
 1991 339   148  14.60  27.30  18.30  3.481  3.481  1.565  1.915  0.000  358.6  146.2  212.4    0.0
 1991 340   149  29.40  31.80  18.90  7.403  7.403  3.315  4.089  0.000  366.0  149.5  216.5    0.0
 1991 341   150  16.80  27.80  19.00  4.053  4.053  1.803  2.250  0.000  370.0  151.3  218.7    0.0
 1991 342   151  28.30  29.80  17.70  6.918  5.888  3.978  1.909  0.000  375.9  155.3  220.6    0.0
 1991 343   152   9.00  22.80  18.90  2.049  2.049  0.902  1.147  0.000  378.0  156.2  221.8    0.0
 1991 344   153  24.70  27.00  18.80  5.905  5.905  2.585  3.320  0.000  383.9  158.8  225.1    0.0
 1991 345   154  19.50  27.60  17.30  4.643  4.643  2.021  2.621  0.000  388.5  160.8  227.7    0.0
 1991 346   155   9.40  23.80  16.60  2.130  1.946  1.197  0.748  0.000  390.5  162.0  228.5    0.0
 1991 347   156  29.90  28.40  15.10  7.071  7.071  3.046  4.026  0.000  397.5  165.0  232.5    0.0
 1991 348   157   9.40  21.90  16.70  2.085  2.085  0.893  1.192  0.000  399.6  165.9  233.7    0.0
 1991 349   158   9.10  23.50  16.70  2.059  2.059  0.877  1.182  0.000  401.7  166.8  234.9    0.0
 1991 350   159  20.20  26.90  17.10  4.775  4.775  2.023  2.752  0.000  406.5  168.8  237.6    0.0
 1991 351   160  27.60  27.80  17.90  6.636  6.636  2.794  3.842  0.000  413.1  171.6  241.5    0.0
 1991 352   161  26.20  31.10  17.80  6.534  6.534  3.391  3.143  0.000  419.6  175.0  244.6    0.0
 1991 353   162  21.60  31.20  17.50  5.384  5.384  2.239  3.144  0.000  425.0  177.3  247.8    0.0
 1991 354   163  28.80  31.00  18.00  7.192  7.192  2.974  4.219  0.000  432.2  180.2  252.0    0.0
 1991 355   164  23.90  32.40  19.90  6.146  6.146  3.261  2.885  0.000  438.4  183.5  254.9    0.0
 1991 356   165  11.20  27.10  20.30  2.727  2.727  1.114  1.613  0.000  441.1  184.6  256.5    0.0
 1991 357   166  23.80  30.00  19.50  5.953  5.953  2.417  3.536  0.000  447.0  187.0  260.0    0.0
 1991 358   167  27.30  30.80  20.60  6.946  6.946  3.475  3.471  0.000  454.0  190.5  263.5    0.0
 1991 359   168  21.00  25.60  17.40  4.924  4.924  2.289  2.635  0.000  458.9  192.8  266.1    0.0
 1991 360   169  23.90  22.70  13.40  5.242  5.134  2.700  2.434  0.000  464.0  195.5  268.6    0.0
 1991 361   170  29.90  25.20  12.40  6.711  6.024  3.438  2.586  0.000  470.1  198.9  271.1    0.0
 1991 362   171  28.80  26.60  14.90  6.709  4.822  3.418  1.404  0.000  474.9  202.3  272.5    0.0
 1991 363   172  30.80  29.30  14.60  7.390  4.834  3.742  1.092  0.000  479.7  206.1  273.6    0.0
 1991 364   173  23.60  30.40  17.40  5.857  3.873  2.948  0.925  0.000  483.6  209.0  274.6    0.0
 1991 365   174  19.50  33.00  21.10  5.114  3.375  2.558  0.818  0.000  487.0  211.6  275.4    0.0
 1992 001   175  10.80  28.00  20.30  2.699  1.884  1.143  0.741  0.000  488.9  212.7  276.1    0.0
 1992 002   176  19.00  28.60  19.10  4.786  4.786  1.288  3.498  0.000  493.6  214.0  279.6    0.0
 1992 003   177  28.00  23.20  14.20  6.429  5.925  1.893  4.032  0.000  499.6  215.9  283.6    0.0
 1992 004   178  31.30  26.80  14.90  7.607  4.134  1.844  2.290  0.000  503.7  217.8  285.9    0.0
 1992 005   179  30.40  28.90  13.10  7.515  2.852  1.491  1.361  0.000  506.5  219.3  287.3    0.0
 1992 006   180  20.50  27.20  15.70  5.097  1.895  0.823  1.071  0.000  508.4  220.1  288.4    0.0
 1992 007   181  25.30  29.60  15.90  6.506  1.765  0.852  0.913  0.000  510.2  220.9  289.3    0.0
 1992 008   182  27.90  31.00  20.10  7.543  1.607  0.798  0.809  0.000  511.8  221.7  290.1    0.0
 1992 009   183  23.60  31.00  20.00  6.395  1.280  0.546  0.734  0.000  513.1  222.3  290.8    0.0
 1992 010   184  21.00  30.00  20.90  5.679  1.068  0.391  0.677  0.000  514.2  222.7  291.5    0.0
 1992 011   185  31.30  27.00  14.90  7.838  1.067  0.435  0.631  0.000  515.2  223.1  292.1    0.0

*DSSAT Cropping System Model Ver. 4.0.2.000               Aug 12, 2016; 09:16:44

*RUN   3        : UYSB                    
 MODEL          : CRGRO040 - Soybean         
 EXPERIMENT     : UYSB0192 SB    late to create DSS                             
 TREATMENT  1   : UYSB                    

@YEAR DOY   DAS   SRAA   TMXA   TMNA   EOAA   ETAA   EPAA   ESAA   EFAD   ETAC   EPAC   ESAC   EFAC
 1992 191     0  11.40  19.50   4.90  2.400  2.400  0.000  2.400  0.000    2.4    0.0    2.4    0.0
 1992 192     1  12.30  23.00   9.50  2.829  1.695  0.000  1.695  0.000    4.1    0.0    4.1    0.0
 1992 193     2  12.30  24.20   9.60  2.875  1.209  0.000  1.209  0.000    5.3    0.0    5.3    0.0
 1992 194     3  12.30  24.60  11.90  2.945  2.945  0.000  2.945  0.000    8.2    0.0    8.2    0.0
 1992 195     4   8.30  25.80  13.80  2.048  2.048  0.000  2.048  0.000   10.3    0.0   10.3    0.0
 1992 196     5   3.90  16.50   4.30  0.782  0.782  0.000  0.782  0.000   11.1    0.0   11.1    0.0
 1992 197     6  11.40   7.10   1.00  1.894  1.894  0.000  1.894  0.000   13.0    0.0   13.0    0.0
 1992 198     7   7.10   6.60  -1.50  1.134  1.134  0.000  1.134  0.000   14.1    0.0   14.1    0.0
 1992 199     8  10.20   9.00  -1.80  1.695  1.695  0.000  1.695  0.000   15.8    0.0   15.8    0.0
 1992 200     9  13.50   6.80   3.40  2.294  1.935  0.000  1.935  0.000   17.7    0.0   17.7    0.0
 1992 201    10   4.00  11.20   2.70  0.726  0.726  0.000  0.726  0.000   18.5    0.0   18.5    0.0
 1992 202    11  12.80  16.30   0.20  2.455  2.455  0.000  2.455  0.000   20.9    0.0   20.9    0.0
 1992 203    12  14.10   9.70   2.30  2.487  1.415  0.000  1.415  0.000   22.3    0.0   22.3    0.0
 1992 204    13  10.40   8.40  -1.50  1.716  1.097  0.000  1.097  0.000   23.4    0.0   23.4    0.0
 1992 205    14  14.60   8.40  -1.30  2.415  0.928  0.000  0.928  0.000   24.4    0.0   24.4    0.0
 1992 206    15   9.40  10.50  -0.90  1.621  0.820  0.000  0.820  0.000   25.2    0.0   25.2    0.0
 1992 207    16  10.70  15.20   3.40  2.085  0.742  0.000  0.742  0.000   25.9    0.0   25.9    0.0
 1992 208    17   4.20  11.80   9.50  0.827  0.683  0.000  0.683  0.000   26.6    0.0   26.6    0.0
 1992 209    18  12.50  14.00   5.80  2.450  2.450  0.000  2.450  0.000   29.1    0.0   29.1    0.0
 1992 210    19   4.20  11.10   3.00  0.764  0.764  0.000  0.764  0.000   29.8    0.0   29.8    0.0
 1992 211    20   9.60  16.80   9.10  2.024  1.200  0.000  1.200  0.000   31.0    0.0   31.0    0.0
 1992 212    21   4.30  13.60   7.50  0.852  0.852  0.000  0.852  0.000   31.9    0.0   31.9    0.0
 1992 213    22   6.30   9.40   3.80  1.124  1.124  0.000  1.124  0.000   33.0    0.0   33.0    0.0
 1992 214    23  13.60   8.80   0.20  2.306  0.989  0.000  0.989  0.000   34.0    0.0   34.0    0.0
 1992 215    24  13.70  12.00   0.10  2.450  0.861  0.000  0.861  0.000   34.8    0.0   34.8    0.0
 1992 216    25  13.70  13.70   0.50  2.530  0.772  0.000  0.772  0.000   35.6    0.0   35.6    0.0
 1992 217    26  10.00  12.50   1.20  1.824  0.714  0.007  0.706  0.000   36.3    0.0   36.3    0.0
 1992 218    27  12.80  17.40  -1.30  2.457  0.665  0.010  0.655  0.000   37.0    0.0   37.0    0.0
 1992 219    28  15.20  25.60   6.90  3.532  0.628  0.015  0.613  0.000   37.6    0.0   37.6    0.0
 1992 220    29   4.50  21.40   8.20  1.001  0.583  0.005  0.579  0.000   38.2    0.0   38.2    0.0
 1992 221    30  14.50  10.40   1.40  2.560  1.933  0.013  1.920  0.000   40.1    0.0   40.1    0.0
 1992 222    31  10.20  13.40  -0.60  1.851  0.583  0.009  0.574  0.000   40.7    0.1   40.7    0.0
 1992 223    32   9.40  15.40   7.80  1.917  0.555  0.010  0.545  0.000   41.3    0.1   41.2    0.0
 1992 224    33  15.10  14.90   3.90  2.941  0.536  0.015  0.520  0.000   41.8    0.1   41.7    0.0
 1992 225    34  14.50  15.90   6.10  2.930  0.514  0.016  0.499  0.000   42.3    0.1   42.2    0.0
 1992 226    35  15.60  18.00   2.80  3.148  0.497  0.017  0.480  0.000   42.8    0.1   42.7    0.0
 1992 227    36  14.70  18.40   3.00  2.989  0.479  0.017  0.463  0.000   43.3    0.1   43.2    0.0
 1992 228    37   9.50  19.20   5.70  2.005  0.459  0.012  0.447  0.000   43.8    0.1   43.6    0.0
 1992 229    38  15.30  22.20   8.70  3.455  0.454  0.021  0.433  0.000   44.2    0.2   44.1    0.0
 1992 230    39  12.30  23.20   9.70  2.838  0.439  0.018  0.421  0.000   44.7    0.2   44.5    0.0
 1992 231    40  14.00  20.80   9.20  3.117  0.430  0.021  0.409  0.000   45.1    0.2   44.9    0.0
 1992 232    41  13.40  19.60   7.90  2.901  0.419  0.021  0.398  0.000   45.5    0.2   45.3    0.0
 1992 233    42  13.30  19.40   6.20  2.827  0.409  0.021  0.388  0.000   45.9    0.2   45.7    0.0
 1992 234    43  16.90  23.10   9.50  3.887  0.409  0.030  0.379  0.000   46.3    0.3   46.0    0.0
 1992 235    44   7.80  20.10  13.90  1.792  1.214  0.014  1.200  0.000   47.5    0.3   47.2    0.0
 1992 236    45  17.00  19.30   9.60  3.722  3.722  0.020  3.702  0.000   51.3    0.3   50.9    0.0
 1992 237    46  17.80  21.00   7.10  3.899  0.470  0.034  0.435  0.000   51.7    0.3   51.4    0.0
 1992 238    47  18.00  21.20   5.80  3.907  0.458  0.036  0.423  0.000   52.2    0.4   51.8    0.0
 1992 239    48  17.90  20.30   6.20  3.851  0.447  0.036  0.411  0.000   52.6    0.4   52.2    0.0
 1992 240    49  17.60  25.40   6.30  4.055  0.441  0.041  0.400  0.000   53.1    0.5   52.6    0.0
 1992 241    50  11.50  18.80  11.40  2.541  0.418  0.029  0.390  0.000   53.5    0.5   53.0    0.0
 1992 242    51  14.20  24.40  11.00  3.360  0.422  0.042  0.380  0.000   53.9    0.5   53.4    0.0
 1992 243    52   5.50  20.90  15.20  1.290  0.390  0.018  0.372  0.000   54.3    0.5   53.8    0.0
 1992 244    53   7.20  13.80   9.60  1.458  1.458  0.014  1.444  0.000   55.8    0.6   55.2    0.0
 1992 245    54   7.50  14.00   7.20  1.487  0.520  0.024  0.496  0.000   56.3    0.6   55.7    0.0
 1992 246    55   5.70  14.80   8.60  1.159  0.496  0.019  0.477  0.000   56.8    0.6   56.2    0.0
 1992 247    56  14.90  17.40   7.30  3.107  0.513  0.053  0.460  0.000   57.3    0.7   56.6    0.0
 1992 248    57  18.80  18.80   6.80  3.979  0.516  0.071  0.445  0.000   57.8    0.7   57.1    0.0
 1992 249    58  18.30  21.20   6.10  3.977  0.506  0.074  0.431  0.000   58.3    0.8   57.5    0.0
 1992 250    59  18.30  18.80   8.70  3.940  0.497  0.079  0.419  0.000   58.8    0.9   57.9    0.0
 1992 251    60  17.80  20.60   9.70  3.962  0.492  0.085  0.407  0.000   59.3    1.0   58.3    0.0
 1992 252    61   5.90  20.10  13.60  1.349  0.428  0.031  0.397  0.000   59.7    1.0   58.7    0.0
 1992 253    62  11.20  20.00  13.40  2.553  0.451  0.064  0.387  0.000   60.2    1.1   59.1    0.0
 1992 254    63  12.60  21.60  13.10  2.923  0.458  0.080  0.378  0.000   60.6    1.1   59.5    0.0
 1992 255    64   8.60  21.20  14.90  2.015  2.015  0.037  1.977  0.000   62.7    1.2   61.5    0.0
 1992 256    65  16.90  19.30  12.30  3.777  1.241  0.121  1.120  0.000   63.9    1.3   62.6    0.0
 1992 257    66  10.20  16.70   8.80  2.131  0.501  0.073  0.428  0.000   64.4    1.4   63.0    0.0
 1992 258    67  17.10  20.10   6.20  3.655  0.548  0.133  0.416  0.000   64.9    1.5   63.4    0.0
 1992 259    68  19.70  21.30   9.00  4.387  0.573  0.169  0.404  0.000   65.5    1.7   63.8    0.0
 1992 260    69  12.60  22.60  12.60  2.942  0.516  0.122  0.394  0.000   66.0    1.8   64.2    0.0
 1992 261    70  14.90  26.70  15.20  3.733  0.553  0.168  0.384  0.000   66.6    2.0   64.6    0.0
 1992 262    71  19.80  16.60   9.30  4.140  3.407  0.207  3.200  0.000   70.0    2.2   67.8    0.0
 1992 263    72  21.60  19.30   5.20  4.513  0.630  0.235  0.395  0.000   70.6    2.4   68.2    0.0
 1992 264    73  21.40  25.60   5.90  4.895  0.649  0.264  0.385  0.000   71.3    2.7   68.6    0.0
 1992 265    74  21.20  30.00  10.20  5.299  0.678  0.302  0.376  0.000   72.0    3.0   69.0    0.0
 1992 266    75   6.50  12.70   8.80  1.276  1.276  0.051  1.225  0.000   73.2    3.0   70.2    0.0
 1992 267    76  16.00  18.60   6.50  3.344  3.344  0.137  3.207  0.000   76.6    3.2   73.4    0.0
 1992 268    77   6.60  13.20  10.60  1.327  1.206  0.089  1.117  0.000   77.8    3.2   74.5    0.0
 1992 269    78  21.20  12.50   4.50  3.966  3.966  0.175  3.792  0.000   81.7    3.4   78.3    0.0
 1992 270    79  20.60  14.20   0.80  3.807  3.333  0.267  3.066  0.000   85.1    3.7   81.4    0.0
 1992 271    80  21.70  20.00   4.50  4.536  3.069  0.323  2.746  0.000   88.1    4.0   84.1    0.0
 1992 272    81  23.00  21.40   5.30  4.936  1.784  0.364  1.420  0.000   89.9    4.4   85.6    0.0
 1992 273    82  23.30  23.20   6.10  5.157  1.495  0.395  1.099  0.000   91.4    4.8   86.7    0.0
 1992 274    83  22.50  26.20  10.30  5.360  1.360  0.430  0.930  0.000   92.8    5.2   87.6    0.0
 1992 275    84  12.50  26.40  11.00  3.000  1.077  0.256  0.821  0.000   93.9    5.5   88.4    0.0
 1992 276    85  11.80  21.80  13.00  2.715  1.861  0.261  1.600  0.000   95.7    5.7   90.0    0.0
 1992 277    86  17.90  20.60  11.10  3.983  1.200  0.421  0.779  0.000   96.9    6.1   90.8    0.0
 1992 278    87  18.00  25.50  11.70  4.278  1.200  0.489  0.712  0.000   98.1    6.6   91.5    0.0
 1992 279    88   7.10  18.20  11.80  1.535  0.856  0.197  0.659  0.000   99.0    6.8   92.2    0.0
 1992 280    89  24.40  15.90   7.40  4.899  4.288  0.659  3.630  0.000  103.3    7.5   95.8    0.0
 1992 281    90  21.30  15.60   4.20  4.124  3.038  0.573  2.465  0.000  106.3    8.1   98.2    0.0
 1992 282    91  24.30  19.00   3.40  4.904  2.089  0.701  1.388  0.000  108.4    8.8   99.6    0.0
 1992 283    92  24.30  21.00   6.60  5.190  1.858  0.774  1.084  0.000  110.3    9.5  100.7    0.0
 1992 284    93  25.10  25.30   7.30  5.700  1.825  0.904  0.921  0.000  112.1   10.4  101.6    0.0
 1992 285    94  16.70  27.20   9.20  3.937  1.497  0.682  0.815  0.000  113.6   11.1  102.5    0.0
 1992 286    95  22.70  24.00  12.40  5.266  1.749  1.011  0.738  0.000  115.3   12.1  103.2    0.0
 1992 287    96  25.10  25.60   8.60  5.738  1.899  1.218  0.680  0.000  117.2   13.3  103.9    0.0
 1992 288    97  24.70  29.50  11.40  6.038  2.033  1.399  0.634  0.000  119.3   14.7  104.5    0.0
 1992 289    98   7.60  31.50  15.50  1.953  1.100  0.504  0.596  0.000  120.4   15.3  105.1    0.0
 1992 290    99   9.30  20.50  15.70  2.094  2.094  0.431  1.662  0.000  122.4   15.7  106.8    0.0
 1992 291   100  23.40  21.20  12.00  5.134  5.134  1.155  3.979  0.000  127.6   16.8  110.7    0.0
 1992 292   101  25.90  21.20   7.50  5.446  4.397  1.781  2.616  0.000  132.0   18.6  113.4    0.0
 1992 293   102   9.10  19.80  11.20  1.936  1.936  0.500  1.436  0.000  133.9   19.1  114.8    0.0
 1992 294   103  24.10  18.60  10.30  4.994  4.994  1.363  3.631  0.000  138.9   20.5  118.4    0.0
 1992 295   104  26.10  21.30   5.50  5.360  5.241  2.001  3.241  0.000  144.1   22.5  121.7    0.0
 1992 296   105  24.90  24.50   7.60  5.421  4.846  2.111  2.735  0.000  149.0   24.6  124.4    0.0
 1992 297   106  25.00  27.30  12.00  5.823  3.823  2.404  1.419  0.000  152.8   27.0  125.8    0.0
 1992 298   107  24.60  30.90  14.60  6.065  3.807  2.709  1.099  0.000  156.6   29.7  126.9    0.0
 1992 299   108   9.50  26.40  17.60  2.263  2.026  1.097  0.930  0.000  158.7   30.8  127.8    0.0
 1992 300   109  26.70  27.40  17.30  6.386  4.142  3.322  0.821  0.000  162.8   34.1  128.7    0.0
 1992 301   110  27.40  30.00  15.80  6.637  4.436  3.693  0.743  0.000  167.2   37.8  129.4    0.0
 1992 302   111  10.50  15.30   6.40  1.934  1.934  0.876  1.058  0.000  169.2   38.7  130.5    0.0
 1992 303   112  27.70  21.90   3.90  5.468  4.049  3.249  0.800  0.000  173.2   41.9  131.3    0.0
 1992 304   113  26.80  21.80   6.40  5.394  4.008  3.273  0.734  0.000  177.2   45.2  132.0    0.0
 1992 305   114  26.90  23.80   6.80  5.568  4.130  3.453  0.677  0.000  181.4   48.7  132.7    0.0
 1992 306   115  27.10  27.10   9.00  5.944  4.412  3.781  0.631  0.000  185.8   52.5  133.3    0.0
 1992 307   116  27.30  30.20  13.00  6.393  4.786  4.192  0.594  0.000  190.5   56.6  133.9    0.0
 1992 308   117  21.90  19.80   9.40  4.361  4.361  2.289  2.072  0.000  194.9   58.9  136.0    0.0
 1992 309   118  27.20  14.10   6.50  4.854  4.854  2.585  2.268  0.000  199.8   61.5  138.2    0.0
 1992 310   119  24.50  16.40   2.70  4.354  4.354  2.477  1.878  0.000  204.1   64.0  140.1    0.0
 1992 311   120  27.00  19.20   4.80  5.099  5.099  2.748  2.351  0.000  209.2   66.7  142.5    0.0
 1992 312   121  27.40  21.50   7.30  5.459  5.459  3.686  1.773  0.000  214.7   70.4  144.2    0.0
 1992 313   122  28.00  25.20   8.30  5.896  5.428  4.193  1.235  0.000  220.1   74.6  145.5    0.0
 1992 314   123  28.20  29.80  10.00  6.358  6.358  3.580  2.778  0.000  226.5   78.2  148.3    0.0
 1992 315   124   8.60  22.00  16.00  1.848  1.848  1.065  0.783  0.000  228.3   79.3  149.0    0.0
 1992 316   125  23.60  28.40  16.10  5.466  5.466  3.214  2.253  0.000  233.8   82.5  151.3    0.0
 1992 317   126  28.00  29.50  15.30  6.515  6.515  3.914  2.601  0.000  240.3   86.4  153.9    0.0
 1992 318   127  28.50  27.90  12.90  6.378  6.378  4.438  1.941  0.000  246.7   90.8  155.8    0.0
 1992 319   128  19.40  31.40  14.40  4.567  4.567  2.831  1.736  0.000  251.2   93.7  157.6    0.0
 1992 320   129  23.00  25.50  17.30  5.168  5.168  3.248  1.919  0.000  256.4   96.9  159.5    0.0
 1992 321   130  28.80  20.40  11.50  5.786  5.786  3.675  2.111  0.000  262.2  100.6  161.6    0.0
 1992 322   131  28.20  21.50   7.70  5.556  5.556  3.562  1.994  0.000  267.7  104.1  163.6    0.0
 1992 323   132  28.80  23.90   7.20  5.829  5.829  3.737  2.091  0.000  273.6  107.9  165.7    0.0
 1992 324   133  29.50  28.10  11.20  6.500  6.500  4.525  1.974  0.000  280.1  112.4  167.7    0.0
 1992 325   134  22.20  30.00  13.80  5.099  5.099  3.806  1.293  0.000  285.2  116.2  169.0    0.0
 1992 326   135   8.70  21.20  13.60  1.793  1.793  1.173  0.620  0.000  287.0  117.4  169.6    0.0
 1992 327   136  25.70  19.30  10.00  5.008  5.008  4.062  0.946  0.000  292.0  121.5  170.5    0.0
 1992 328   137  22.10  20.60   6.40  4.242  4.242  3.410  0.832  0.000  296.2  124.9  171.4    0.0
 1992 329   138  24.00  26.00  11.10  5.143  5.143  3.375  1.768  0.000  301.4  128.2  173.1    0.0
 1992 330   139  21.90  23.90  15.40  4.735  4.735  3.120  1.616  0.000  306.1  131.4  174.7    0.0
 1992 331   140  19.00  26.00  14.30  4.175  4.175  2.760  1.415  0.000  310.3  134.1  176.2    0.0
 1992 332   141  30.10  27.20  12.90  6.633  6.633  4.812  1.821  0.000  316.9  138.9  178.0    0.0
 1992 333   142  21.00  27.70  13.50  4.676  4.676  3.109  1.567  0.000  321.6  142.0  179.5    0.0
 1992 334   143  19.80  29.80  16.90  4.635  4.635  3.086  1.549  0.000  326.2  145.1  181.1    0.0
 1992 335   144  21.90  28.00  18.70  5.092  5.092  3.392  1.699  0.000  331.3  148.5  182.8    0.0
 1992 336   145  29.50  23.90  14.00  6.300  6.300  4.199  2.101  0.000  337.6  152.7  184.9    0.0
 1992 337   146  30.20  24.80   8.90  6.252  6.252  4.165  2.086  0.000  343.9  156.9  187.0    0.0
 1992 338   147  26.20  27.40   9.70  5.639  5.639  4.463  1.176  0.000  349.5  161.3  188.2    0.0
 1992 339   148  30.30  29.10  13.50  6.858  6.858  4.562  2.296  0.000  356.4  165.9  190.4    0.0
 1992 340   149  18.70  28.20  13.80  4.198  4.198  2.790  1.408  0.000  360.6  168.7  191.9    0.0
 1992 341   150  25.20  29.60  18.90  5.976  5.976  3.964  2.012  0.000  366.5  172.7  193.9    0.0
 1992 342   151  23.30  26.40  15.40  5.188  5.188  3.435  1.753  0.000  371.7  176.1  195.6    0.0
 1992 343   152  25.40  27.90  14.80  5.730  5.730  3.786  1.944  0.000  377.4  179.9  197.6    0.0
 1992 344   153  21.00  26.70  16.50  4.735  4.735  3.649  1.086  0.000  382.2  183.5  198.7    0.0
 1992 345   154  22.70  27.30  18.10  5.219  5.219  3.426  1.793  0.000  387.4  187.0  200.4    0.0
 1992 346   155  23.20  26.50  15.70  5.190  5.190  3.425  1.765  0.000  392.6  190.4  202.2    0.0
 1992 347   156  29.50  27.30  13.40  6.545  6.545  5.312  1.233  0.000  399.1  195.7  203.4    0.0
 1992 348   157  30.90  30.20  14.90  7.174  6.825  5.819  1.006  0.000  406.0  201.5  204.4    0.0
 1992 349   158  28.90  28.40  15.70  6.616  6.616  4.279  2.337  0.000  412.6  205.8  206.8    0.0
 1992 350   159  30.30  28.00  10.00  6.604  6.604  4.255  2.349  0.000  419.2  210.0  209.1    0.0
 1992 351   160  24.80  29.80  12.50  5.633  5.633  3.897  1.736  0.000  424.8  213.9  210.9    0.0
 1992 352   161  19.40  27.60  17.70  4.473  4.473  2.861  1.612  0.000  429.3  216.8  212.5    0.0
 1992 353   162  29.70  30.40  14.50  6.902  6.902  4.887  2.014  0.000  436.2  221.7  214.5    0.0
 1992 354   163  18.00  30.80  14.60  4.207  4.207  2.903  1.303  0.000  440.4  224.6  215.8    0.0
 1992 355   164  31.80  33.80  18.10  7.880  7.880  4.979  2.901  0.000  448.3  229.6  218.7    0.0
 1992 356   165  25.50  32.40  15.70  6.120  6.120  3.850  2.270  0.000  454.4  233.4  221.0    0.0
 1992 357   166  11.20  29.40  18.60  2.658  2.658  1.665  0.993  0.000  457.1  235.1  222.0    0.0
 1992 358   167  11.20  27.70  20.80  2.652  2.652  1.654  0.998  0.000  459.7  236.7  223.0    0.0
 1992 359   168  27.80  28.90  17.70  6.522  6.522  4.047  2.475  0.000  466.2  240.8  225.4    0.0
 1992 360   169  22.90  27.40  15.10  5.180  5.180  3.198  1.982  0.000  471.4  244.0  227.4    0.0
 1992 361   170  31.40  27.40  13.20  7.001  7.001  4.764  2.237  0.000  478.4  248.8  229.7    0.0
 1992 362   171  31.00  28.00  12.60  6.931  6.931  4.238  2.693  0.000  485.3  253.0  232.3    0.0
 1992 363   172  30.00  32.00  13.10  7.053  6.923  5.440  1.484  0.000  492.3  258.4  233.8    0.0
 1992 364   173   9.10  25.60  19.70  2.092  2.092  1.267  0.825  0.000  494.4  259.7  234.7    0.0
 1992 365   174   9.10  23.30  19.60  2.036  2.036  1.227  0.809  0.000  496.4  260.9  235.5    0.0
 1992 366   175   9.10  20.20  19.20  1.956  1.956  1.173  0.784  0.000  498.3  262.1  236.2    0.0
 1993 001   176   9.10  21.20  19.60  1.988  1.988  1.185  0.803  0.000  500.3  263.3  237.1    0.0
 1993 002   177   9.10  21.80  19.40  2.000  2.000  1.186  0.814  0.000  502.3  264.5  237.9    0.0
 1993 003   178   9.10  21.90  19.70  2.009  2.009  1.184  0.825  0.000  504.3  265.7  238.7    0.0
 1993 004   179  14.90  28.90  19.80  3.569  3.569  2.091  1.478  0.000  507.9  267.7  240.2    0.0
 1993 005   180  23.60  30.80  21.50  5.847  5.847  3.403  2.444  0.000  513.8  271.1  242.6    0.0
 1993 006   181  29.90  32.00  19.70  7.412  7.412  4.705  2.707  0.000  521.2  275.9  245.3    0.0
 1993 007   182  12.50  27.20  20.30  2.955  2.955  1.697  1.258  0.000  524.1  277.5  246.6    0.0
 1993 008   183  20.20  26.60  20.10  4.738  4.738  2.705  2.034  0.000  528.9  280.3  248.6    0.0
 1993 009   184  30.70  26.90  16.00  7.007  7.007  3.975  3.032  0.000  535.9  284.2  251.6    0.0
 1993 010   185  30.90  31.10  16.00  7.401  7.401  5.091  2.310  0.000  543.3  289.3  254.0    0.0
 1993 011   186  31.30  32.20  17.60  7.682  7.682  5.296  2.385  0.000  551.0  294.6  256.3    0.0
 1993 012   187  30.90  32.70  19.60  7.738  6.920  5.543  1.377  0.000  557.9  300.2  257.7    0.0
 1993 013   188  22.70  33.00  20.70  5.750  5.177  4.098  1.079  0.000  563.1  304.3  258.8    0.0
 1993 014   189  17.40  30.10  22.30  4.325  3.985  3.067  0.918  0.000  567.0  307.3  259.7    0.0
 1993 015   190  26.90  30.80  22.50  6.750  6.750  3.699  3.050  0.000  573.8  311.0  262.8    0.0
 1993 016   191  17.50  28.50  22.00  4.270  4.270  2.328  1.942  0.000  578.1  313.4  264.7    0.0
 1993 017   192  25.50  23.30  16.60  5.627  5.627  3.679  1.948  0.000  583.7  317.0  266.7    0.0
 1993 018   193  25.10  24.80  11.70  5.422  5.422  2.928  2.494  0.000  589.1  320.0  269.1    0.0
 1993 019   194  26.40  26.50  15.60  6.008  5.638  4.169  1.469  0.000  594.7  324.1  270.6    0.0
 1993 020   195  29.90  30.10  16.60  7.148  6.062  4.941  1.121  0.000  600.8  329.1  271.7    0.0
 1993 021   196  30.10  31.80  16.50  7.420  5.449  4.506  0.943  0.000  606.3  333.6  272.7    0.0
 1993 022   197  30.00  33.20  19.80  7.783  4.914  4.084  0.830  0.000  611.2  337.7  273.5    0.0
 1993 023   198  25.50  34.40  21.60  6.863  3.817  3.067  0.749  0.000  615.0  340.7  274.3    0.0
 1993 024   199  28.20  34.80  22.50  7.750  3.603  2.914  0.689  0.000  618.6  343.6  274.9    0.0
 1993 025   200  15.70  27.60  21.00  3.991  3.991  0.921  3.070  0.000  622.6  344.6  278.0    0.0
 1993 026   201  23.80  31.60  19.00  6.281  5.873  1.626  4.247  0.000  628.5  346.2  282.3    0.0
 1993 027   202   9.00  24.50  19.80  2.222  2.222  0.326  1.896  0.000  630.7  346.5  284.2    0.0
 1993 028   203  27.20  29.50  20.20  7.167  3.648  1.248  2.400  0.000  634.3  347.8  286.6    0.0
 1993 029   204  22.80  28.10  18.70  5.878  2.589  0.834  1.755  0.000  636.9  348.6  288.3    0.0
 1993 030   205  29.70  29.40  18.20  7.770  7.060  0.895  6.165  0.000  644.0  349.5  294.5    0.0
 1993 031   206  12.80  25.20  20.60  3.262  2.593  0.304  2.289  0.000  646.6  349.8  296.8    0.0

*DSSAT Cropping System Model Ver. 4.0.2.000               Aug 12, 2016; 09:16:44

*RUN   4        : UYSB                    
 MODEL          : CRGRO040 - Soybean         
 EXPERIMENT     : UYSB0192 SB    late to create DSS                             
 TREATMENT  1   : UYSB                    

@YEAR DOY   DAS   SRAA   TMXA   TMNA   EOAA   ETAA   EPAA   ESAA   EFAD   ETAC   EPAC   ESAC   EFAC
 1993 191     0   3.80  10.60   2.40  0.681  0.413  0.000  0.413  0.000    0.4    0.0    0.4    0.0
 1993 192     1  13.30  14.50   1.90  2.524  2.524  0.000  2.524  0.000    2.9    0.0    2.9    0.0
 1993 193     2  11.70  13.60   0.70  2.162  1.636  0.000  1.636  0.000    4.6    0.0    4.6    0.0
 1993 194     3   7.80   9.00   2.30  1.360  1.360  0.000  1.360  0.000    5.9    0.0    5.9    0.0
 1993 195     4  12.90  10.60   1.10  2.279  2.279  0.000  2.279  0.000    8.2    0.0    8.2    0.0
 1993 196     5  12.00  12.10  -1.70  2.107  2.107  0.000  2.107  0.000   10.3    0.0   10.3    0.0
 1993 197     6  11.50  15.40   0.10  2.172  1.405  0.000  1.405  0.000   11.7    0.0   11.7    0.0
 1993 198     7  10.80  16.90   0.10  2.088  2.088  0.000  2.088  0.000   13.8    0.0   13.8    0.0
 1993 199     8   3.90  15.20   8.90  0.802  0.802  0.000  0.802  0.000   14.6    0.0   14.6    0.0
 1993 200     9  10.90  25.10  12.30  2.635  1.305  0.000  1.305  0.000   15.9    0.0   15.9    0.0
 1993 201    10  13.20  28.30  14.90  3.383  1.044  0.000  1.044  0.000   17.0    0.0   17.0    0.0
 1993 202    11   4.00  17.00  11.40  0.864  0.864  0.000  0.864  0.000   17.8    0.0   17.8    0.0
 1993 203    12   4.40  19.80  12.50  0.996  0.800  0.000  0.800  0.000   18.6    0.0   18.6    0.0
 1993 204    13   4.10  20.10  11.60  0.925  0.728  0.000  0.728  0.000   19.4    0.0   19.4    0.0
 1993 205    14  14.00  12.40   1.70  2.565  0.672  0.000  0.672  0.000   20.0    0.0   20.0    0.0
 1993 206    15  13.00  11.90  -1.00  2.293  0.627  0.000  0.627  0.000   20.7    0.0   20.7    0.0
 1993 207    16   4.10  11.00   3.40  0.748  0.748  0.000  0.748  0.000   21.4    0.0   21.4    0.0
 1993 208    17   7.40  19.80  11.10  1.655  1.655  0.000  1.655  0.000   23.1    0.0   23.1    0.0
 1993 209    18   4.20  15.50   8.40  0.863  0.863  0.000  0.863  0.000   23.9    0.0   23.9    0.0
 1993 210    19   4.20   8.70   5.80  0.757  0.757  0.002  0.755  0.000   24.7    0.0   24.7    0.0
 1993 211    20   4.20   8.40   4.70  0.744  0.744  0.002  0.742  0.000   25.4    0.0   25.4    0.0
 1993 212    21   4.70  10.30   6.10  0.872  0.872  0.002  0.870  0.000   26.3    0.0   26.3    0.0
 1993 213    22  14.50  11.30   2.30  2.625  2.625  0.007  2.618  0.000   28.9    0.0   28.9    0.0
 1993 214    23  14.10  15.00  -0.10  2.640  2.596  0.011  2.585  0.000   31.5    0.0   31.5    0.0
 1993 215    24  14.80  15.20   0.60  2.800  2.800  0.007  2.793  0.000   34.3    0.0   34.3    0.0
 1993 216    25  11.00  18.80   3.80  2.268  1.668  0.010  1.658  0.000   36.0    0.0   35.9    0.0
 1993 217    26   9.70  26.50  11.80  2.374  1.207  0.011  1.196  0.000   37.2    0.1   37.1    0.0
 1993 218    27  12.20  28.60  15.10  3.140  1.002  0.016  0.986  0.000   38.2    0.1   38.1    0.0
 1993 219    28  11.20  28.00  13.10  2.819  0.875  0.016  0.859  0.000   39.1    0.1   39.0    0.0
 1993 220    29   4.50  13.00   6.10  0.871  0.776  0.005  0.771  0.000   39.8    0.1   39.8    0.0
 1993 221    30  14.40  11.40   0.40  2.556  2.556  0.010  2.546  0.000   42.4    0.1   42.3    0.0
 1993 222    31  15.00  14.20   0.50  2.790  1.504  0.018  1.486  0.000   43.9    0.1   43.8    0.0
 1993 223    32  13.60  17.80   2.40  2.725  1.146  0.018  1.128  0.000   45.0    0.1   44.9    0.0
 1993 224    33   9.10  19.80   4.40  1.913  0.960  0.013  0.947  0.000   46.0    0.1   45.9    0.0
 1993 225    34  13.40  21.40   5.20  2.901  0.853  0.020  0.833  0.000   46.9    0.2   46.7    0.0
 1993 226    35   9.50  22.60   4.30  2.074  0.766  0.015  0.752  0.000   47.6    0.2   47.4    0.0
 1993 227    36  16.00  24.00   7.40  3.657  0.718  0.027  0.691  0.000   48.3    0.2   48.1    0.0
 1993 228    37  12.00  20.80   7.40  2.629  0.663  0.020  0.642  0.000   49.0    0.2   48.8    0.0
 1993 229    38  14.40  11.40   4.70  2.677  2.677  0.013  2.664  0.000   51.7    0.2   51.4    0.0
 1993 230    39  16.10  15.50  -0.20  3.033  0.799  0.025  0.774  0.000   52.5    0.3   52.2    0.0
 1993 231    40  16.70  18.70   1.60  3.363  0.736  0.028  0.708  0.000   53.2    0.3   52.9    0.0
 1993 232    41  16.40  19.00   2.00  3.330  0.684  0.028  0.656  0.000   53.9    0.3   53.6    0.0
 1993 233    42  15.00  18.60   2.30  3.037  0.641  0.026  0.614  0.000   54.5    0.4   54.2    0.0
 1993 234    43  11.80  20.00   6.40  2.533  0.602  0.022  0.580  0.000   55.1    0.4   54.8    0.0
 1993 235    44  11.00  20.00   5.50  2.342  0.572  0.021  0.550  0.000   55.7    0.4   55.3    0.0
 1993 236    45  17.00  22.60   6.10  3.770  0.560  0.035  0.525  0.000   56.3    0.4   55.8    0.0
 1993 237    46  16.20  24.20   8.80  3.755  0.541  0.038  0.503  0.000   56.8    0.5   56.4    0.0
 1993 238    47  15.20  26.40  10.40  3.669  0.525  0.042  0.483  0.000   57.3    0.5   56.8    0.0
 1993 239    48  14.70  29.20  12.50  3.730  0.514  0.048  0.466  0.000   57.9    0.6   57.3    0.0
 1993 240    49  13.50  31.30  18.70  3.674  0.505  0.054  0.450  0.000   58.4    0.6   57.7    0.0
 1993 241    50   5.40  19.00  15.40  1.238  0.457  0.021  0.436  0.000   58.8    0.6   58.2    0.0
 1993 242    51   5.40  16.30  13.10  1.170  1.170  0.014  1.156  0.000   60.0    0.6   59.3    0.0
 1993 243    52   5.50  12.20   9.20  1.083  1.083  0.013  1.069  0.000   61.1    0.7   60.4    0.0
 1993 244    53   6.30  13.60  10.20  1.278  1.278  0.016  1.262  0.000   62.3    0.7   61.7    0.0
 1993 245    54  14.50  13.00   8.40  2.865  2.865  0.038  2.827  0.000   65.2    0.7   64.5    0.0
 1993 246    55  19.30  17.00   4.50  3.892  3.659  0.086  3.573  0.000   68.9    0.8   68.1    0.0
 1993 247    56  19.40  24.10   5.80  4.368  3.224  0.100  3.123  0.000   72.1    0.9   71.2    0.0
 1993 248    57  19.60  22.00   7.00  4.337  1.550  0.107  1.443  0.000   73.6    1.0   72.6    0.0
 1993 249    58  17.90  23.50   6.30  4.014  1.215  0.106  1.109  0.000   74.9    1.1   73.7    0.0
 1993 250    59  18.40  15.80   7.90  3.766  1.042  0.105  0.936  0.000   75.9    1.2   74.7    0.0
 1993 251    60  19.70  16.90   4.60  3.967  0.940  0.115  0.825  0.000   76.8    1.3   75.5    0.0
 1993 252    61  20.00  19.90   3.90  4.176  0.871  0.125  0.746  0.000   77.7    1.5   76.3    0.0
 1993 253    62  20.10  21.50   4.90  4.331  0.821  0.134  0.686  0.000   78.5    1.6   76.9    0.0
 1993 254    63  17.10  15.00   5.20  3.366  0.748  0.109  0.639  0.000   79.3    1.7   77.6    0.0
 1993 255    64  19.80  19.10   4.00  4.090  0.736  0.136  0.600  0.000   80.0    1.8   78.2    0.0
 1993 256    65   7.30  18.00   5.60  1.507  0.620  0.053  0.568  0.000   80.6    1.9   78.7    0.0
 1993 257    66  13.10  18.20   9.90  2.822  0.643  0.103  0.540  0.000   81.3    2.0   79.3    0.0
 1993 258    67  15.70  22.40   9.20  3.553  0.654  0.139  0.516  0.000   81.9    2.1   79.8    0.0
 1993 259    68  20.70  25.60   7.80  4.820  0.698  0.203  0.495  0.000   82.6    2.3   80.3    0.0
 1993 260    69  21.10  23.00  10.90  4.878  0.698  0.222  0.476  0.000   83.3    2.6   80.8    0.0
 1993 261    70  11.60  24.00  12.20  2.744  0.594  0.134  0.459  0.000   83.9    2.7   81.2    0.0
 1993 262    71  15.70  23.00  10.90  3.626  0.636  0.192  0.444  0.000   84.6    2.9   81.7    0.0
 1993 263    72  16.50  19.10   8.80  3.552  3.552  0.127  3.425  0.000   88.1    3.0   85.1    0.0
 1993 264    73   8.70  11.40   4.10  1.595  0.578  0.095  0.483  0.000   88.7    3.1   85.6    0.0
 1993 265    74   6.50  12.20   4.50  1.212  0.539  0.073  0.466  0.000   89.2    3.2   86.1    0.0
 1993 266    75   6.50  14.90  10.00  1.333  0.532  0.081  0.450  0.000   89.8    3.3   86.5    0.0
 1993 267    76   7.00  17.00  12.00  1.506  0.532  0.096  0.436  0.000   90.3    3.4   86.9    0.0
 1993 268    77   7.80  19.00  12.10  1.724  0.538  0.115  0.423  0.000   90.8    3.5   87.4    0.0
 1993 269    78   9.00  14.90  10.60  1.854  1.854  0.084  1.770  0.000   92.7    3.6   89.1    0.0
 1993 270    79  18.40  21.50  10.30  4.134  4.134  0.194  3.940  0.000   96.8    3.7   93.1    0.0
 1993 271    80  21.60  22.10   8.50  4.812  3.941  0.373  3.568  0.000  100.8    4.1   96.6    0.0
 1993 272    81  15.50  19.80   7.80  3.326  2.573  0.270  2.303  0.000  103.3    4.4   98.9    0.0
 1993 273    82   7.70  20.60  14.30  1.767  1.512  0.149  1.363  0.000  104.8    4.5  100.3    0.0
 1993 274    83   9.30  23.30  15.60  2.229  1.278  0.205  1.073  0.000  106.1    4.7  101.4    0.0
 1993 275    84   6.90  18.60  16.00  1.561  1.561  0.105  1.456  0.000  107.7    4.8  102.8    0.0
 1993 276    85  11.30  19.80  13.40  2.537  2.537  0.185  2.352  0.000  110.2    5.0  105.2    0.0
 1993 277    86   7.30  19.40  12.80  1.619  1.619  0.128  1.491  0.000  111.8    5.2  106.7    0.0
 1993 278    87  22.90  17.40   9.50  4.795  4.113  0.616  3.497  0.000  116.0    5.8  110.2    0.0
 1993 279    88  24.10  20.10   5.30  5.035  3.085  0.677  2.408  0.000  119.0    6.5  112.6    0.0
 1993 280    89  24.80  23.70   7.20  5.526  2.163  0.783  1.380  0.000  121.2    7.2  114.0    0.0
 1993 281    90  19.60  27.50  12.30  4.768  1.812  0.731  1.081  0.000  123.0    8.0  115.0    0.0
 1993 282    91  18.00  29.20  13.10  4.482  1.694  0.776  0.919  0.000  124.7    8.7  116.0    0.0
 1993 283    92  24.70  31.80  17.30  6.513  2.088  1.275  0.813  0.000  126.8   10.0  116.8    0.0
 1993 284    93  23.70  33.30  17.60  6.339  2.159  1.422  0.737  0.000  129.0   11.4  117.5    0.0
 1993 285    94   7.40  23.60  17.20  1.760  1.129  0.450  0.679  0.000  130.1   11.9  118.2    0.0
 1993 286    95   7.40  18.30  16.80  1.636  1.636  0.331  1.305  0.000  131.7   12.2  119.5    0.0
 1993 287    96   9.00  22.10  16.40  2.075  2.075  0.450  1.625  0.000  133.8   12.7  121.1    0.0
 1993 288    97  18.60  24.90  13.90  4.332  4.332  1.037  3.295  0.000  138.1   13.7  124.4    0.0
 1993 289    98  25.30  31.60  14.90  6.390  5.494  2.252  3.243  0.000  143.6   16.0  127.7    0.0
 1993 290    99   9.20  25.70  13.30  2.132  2.132  0.643  1.489  0.000  145.8   16.6  129.1    0.0
 1993 291   100  18.70  21.10   8.70  3.917  3.917  1.292  2.624  0.000  149.7   17.9  131.8    0.0
 1993 292   101  18.30  22.60  12.30  4.022  4.022  1.394  2.628  0.000  153.7   19.3  134.4    0.0
 1993 293   102  16.80  24.50  16.60  3.902  3.902  1.448  2.454  0.000  157.6   20.7  136.9    0.0
 1993 294   103  18.20  26.80  17.30  4.346  4.346  1.772  2.574  0.000  161.9   22.5  139.4    0.0
 1993 295   104   7.80  18.50  12.60  1.609  1.609  0.644  0.966  0.000  163.5   23.2  140.4    0.0
 1993 296   105   7.80  16.40  12.10  1.555  1.555  0.633  0.921  0.000  165.1   23.8  141.3    0.0
 1993 297   106   8.20  17.30  11.60  1.645  1.645  0.679  0.966  0.000  166.7   24.5  142.3    0.0
 1993 298   107  12.90  17.90  10.80  2.588  2.588  1.083  1.505  0.000  169.3   25.5  143.8    0.0
 1993 299   108  27.40  20.00   6.30  5.421  5.421  2.507  2.914  0.000  174.8   28.1  146.7    0.0
 1993 300   109  24.90  22.00   9.00  5.178  5.178  2.236  2.942  0.000  179.9   30.3  149.6    0.0
 1993 301   110  28.20  28.00  11.50  6.440  5.220  3.693  1.527  0.000  185.2   34.0  151.2    0.0
 1993 302   111  15.30  28.40  17.40  3.663  3.319  2.174  1.145  0.000  188.5   36.2  152.3    0.0
 1993 303   112   8.10  22.30  17.50  1.801  1.801  0.852  0.949  0.000  190.3   37.0  153.3    0.0
 1993 304   113   8.10  20.70  15.10  1.727  1.727  0.837  0.890  0.000  192.0   37.8  154.2    0.0
 1993 305   114  25.40  19.10   9.80  5.058  5.058  2.488  2.570  0.000  197.1   40.3  156.7    0.0
 1993 306   115  28.60  24.90   9.40  6.116  6.116  3.039  3.077  0.000  203.2   43.4  159.8    0.0
 1993 307   116  28.20  28.70  12.90  6.485  6.316  4.250  2.066  0.000  209.5   47.6  161.9    0.0
 1993 308   117  28.70  29.00  14.90  6.713  6.674  4.490  2.184  0.000  216.2   52.1  164.1    0.0
 1993 309   118   8.90  21.20  13.80  1.875  1.875  0.988  0.886  0.000  218.0   53.1  164.9    0.0
 1993 310   119  12.90  16.60  10.70  2.486  2.486  1.318  1.167  0.000  220.5   54.4  166.1    0.0
 1993 311   120  28.50  22.70   8.50  5.843  5.056  4.013  1.043  0.000  225.6   58.4  167.1    0.0
 1993 312   121  29.10  27.70   8.60  6.355  5.295  4.400  0.895  0.000  230.9   62.8  168.0    0.0
 1993 313   122  28.70  30.00  12.90  6.659  5.441  4.644  0.797  0.000  236.3   67.5  168.8    0.0
 1993 314   123  22.60  32.30  16.20  5.508  4.610  3.885  0.725  0.000  240.9   71.4  169.6    0.0
 1993 315   124   9.80  28.20  20.20  2.349  2.343  1.673  0.670  0.000  243.3   73.0  170.2    0.0
 1993 316   125  18.70  26.00  17.50  4.280  4.280  2.680  1.600  0.000  247.6   75.7  171.8    0.0
 1993 317   126   8.50  23.70  15.30  1.859  1.859  1.208  0.651  0.000  249.4   76.9  172.5    0.0
 1993 318   127   8.50  19.10  14.90  1.750  1.750  0.979  0.771  0.000  251.2   77.9  173.3    0.0
 1993 319   128   8.60  21.10  15.90  1.832  1.832  1.022  0.810  0.000  253.0   78.9  174.1    0.0
 1993 320   129  10.60  21.80  17.60  2.310  2.310  1.284  1.027  0.000  255.3   80.2  175.1    0.0
 1993 321   130  10.60  20.40  13.50  2.194  2.194  1.214  0.980  0.000  257.5   81.4  176.1    0.0
 1993 322   131  18.70  20.80  12.20  3.849  3.849  2.123  1.727  0.000  261.3   83.5  177.8    0.0
 1993 323   132  29.60  25.10  11.00  6.371  6.371  3.502  2.869  0.000  267.7   87.0  180.7    0.0
 1993 324   133  30.00  27.20  11.70  6.665  6.665  4.685  1.980  0.000  274.4   91.7  182.6    0.0
 1993 325   134  29.90  30.00  13.50  6.964  6.964  4.690  2.275  0.000  281.3   96.4  184.9    0.0
 1993 326   135  28.60  27.40  15.70  6.577  5.959  4.601  1.358  0.000  287.3  101.0  186.3    0.0
 1993 327   136  20.70  28.20  13.80  4.737  4.372  3.302  1.070  0.000  291.7  104.3  187.4    0.0
 1993 328   137  16.20  27.20  19.00  3.815  3.563  2.650  0.912  0.000  295.2  107.0  188.3    0.0
 1993 329   138   9.20  25.20  18.30  2.107  2.107  1.298  0.809  0.000  297.3  108.3  189.1    0.0
 1993 330   139  16.40  21.20  16.40  3.526  3.526  1.883  1.643  0.000  300.9  110.2  190.7    0.0
 1993 331   140  12.80  20.50  14.80  2.693  2.693  1.433  1.260  0.000  303.6  111.6  192.0    0.0
 1993 332   141  23.50  22.20  13.00  4.977  4.977  2.637  2.340  0.000  308.5  114.2  194.3    0.0
 1993 333   142  27.20  26.10  10.30  5.915  5.915  3.121  2.794  0.000  314.5  117.3  197.1    0.0
 1993 334   143   9.80  18.00  14.60  1.995  1.995  1.241  0.754  0.000  316.5  118.6  197.9    0.0
 1993 335   144  29.40  21.90   9.30  6.016  6.016  3.148  2.867  0.000  322.5  121.7  200.7    0.0
 1993 336   145  31.10  28.30  10.40  6.960  6.960  3.708  3.252  0.000  329.4  125.4  204.0    0.0
 1993 337   146  16.80  28.50  19.10  4.031  4.031  2.092  1.939  0.000  333.5  127.5  205.9    0.0
 1993 338   147   9.00  24.80  16.90  2.036  2.036  1.052  0.984  0.000  335.5  128.6  206.9    0.0
 1993 339   148  27.20  21.00  13.50  5.713  5.713  2.938  2.774  0.000  341.2  131.5  209.7    0.0
 1993 340   149  10.90  24.40  13.50  2.390  2.390  1.224  1.166  0.000  343.6  132.8  210.8    0.0
 1993 341   150  20.10  28.00  19.00  4.800  4.800  2.565  2.235  0.000  348.4  135.3  213.1    0.0
 1993 342   151  21.40  28.50  17.80  5.096  5.096  2.586  2.510  0.000  353.5  137.9  215.6    0.0
 1993 343   152  30.00  29.90  16.00  7.163  6.416  4.690  1.726  0.000  359.9  142.6  217.3    0.0
 1993 344   153  26.90  28.00  18.10  6.390  5.384  4.164  1.220  0.000  365.3  146.8  218.5    0.0
 1993 345   154  30.40  30.30  15.50  7.271  5.715  4.716  0.999  0.000  371.0  151.5  219.5    0.0
 1993 346   155  28.20  32.20  19.90  7.114  5.460  4.592  0.867  0.000  376.5  156.1  220.4    0.0
 1993 347   156   9.40  25.40  20.00  2.202  2.202  1.090  1.113  0.000  378.7  157.2  221.5    0.0
 1993 348   157  22.00  27.20  20.30  5.275  5.275  2.596  2.679  0.000  383.9  159.8  224.2    0.0
 1993 349   158   9.10  21.50  15.80  1.970  1.970  0.964  1.006  0.000  385.9  160.7  225.2    0.0
 1993 350   159  28.10  23.10  14.90  6.161  6.161  3.001  3.160  0.000  392.1  163.7  228.4    0.0
 1993 351   160  31.30  28.30  12.90  7.193  7.193  3.832  3.361  0.000  399.3  167.5  231.7    0.0
 1993 352   161  26.60  29.10  16.40  6.340  6.340  3.323  3.018  0.000  405.6  170.9  234.7    0.0
 1993 353   162  29.30  29.90  16.50  7.056  5.832  4.393  1.439  0.000  411.4  175.3  236.2    0.0
 1993 354   163  27.60  21.40  13.60  5.873  4.743  3.636  1.107  0.000  416.2  178.9  237.3    0.0
 1993 355   164  31.80  23.30   8.40  6.635  5.023  4.088  0.935  0.000  421.2  183.0  238.2    0.0
 1993 356   165  29.40  29.30  12.90  6.852  5.026  4.202  0.824  0.000  426.2  187.2  239.0    0.0
 1993 357   166  29.30  32.50  16.50  7.276  5.183  4.438  0.745  0.000  431.4  191.6  239.8    0.0
 1993 358   167  30.60  31.80  18.50  7.655  5.328  4.642  0.686  0.000  436.7  196.3  240.5    0.0
 1993 359   168  20.10  32.40  21.00  5.154  3.746  3.108  0.638  0.000  440.5  199.4  241.1    0.0
 1993 360   169  23.00  29.20  20.60  5.685  5.685  3.285  2.400  0.000  446.2  202.7  243.5    0.0
 1993 361   170   9.10  23.20  19.30  2.081  2.040  1.240  0.800  0.000  448.2  203.9  244.3    0.0
 1993 362   171  23.00  26.50  15.70  5.319  5.319  2.423  2.896  0.000  453.5  206.3  247.2    0.0
 1993 363   172  22.50  21.30  14.60  4.844  4.844  2.193  2.651  0.000  458.4  208.5  249.9    0.0
 1993 364   173  31.30  25.40  11.00  6.886  6.484  4.031  2.452  0.000  464.9  212.5  252.3    0.0
 1993 365   174  31.30  27.90  13.10  7.221  6.235  4.204  2.031  0.000  471.1  216.8  254.3    0.0
 1994 001   175  31.50  28.20  15.80  7.451  5.619  4.312  1.307  0.000  476.7  221.1  255.6    0.0
 1994 002   176  30.40  24.20  12.90  6.704  4.901  3.856  1.045  0.000  481.6  224.9  256.7    0.0
 1994 003   177  31.50  24.90  10.40  6.867  4.825  3.928  0.897  0.000  486.4  228.8  257.6    0.0
 1994 004   178  30.10  27.50  12.70  6.903  4.726  3.928  0.798  0.000  491.2  232.8  258.4    0.0
 1994 005   179  29.60  30.00  15.20  7.128  7.128  3.105  4.023  0.000  498.3  235.9  262.4    0.0
 1994 006   180  12.50  31.30  18.80  3.137  3.137  1.359  1.779  0.000  501.4  237.2  264.2    0.0
 1994 007   181  18.50  30.30  18.80  4.596  4.596  1.978  2.618  0.000  506.0  239.2  266.8    0.0
 1994 008   182  19.30  25.50  18.50  4.534  4.534  1.940  2.594  0.000  510.6  241.2  269.4    0.0
 1994 009   183  30.40  23.60  16.40  6.871  6.871  2.923  3.948  0.000  517.4  244.1  273.4    0.0
 1994 010   184  31.30  24.20  11.20  6.912  6.603  3.262  3.342  0.000  524.0  247.3  276.7    0.0
 1994 011   185  31.30  28.20  11.50  7.356  5.369  2.929  2.440  0.000  529.4  250.3  279.1    0.0
 1994 012   186  28.90  29.20  14.40  7.098  3.744  2.359  1.385  0.000  533.1  252.6  280.5    0.0
 1994 013   187  26.50  28.10  17.00  6.612  2.901  1.818  1.083  0.000  536.0  254.4  281.6    0.0
 1994 014   188  28.10  29.80  15.20  7.103  2.524  1.604  0.920  0.000  538.6  256.1  282.5    0.0
 1994 015   189  30.60  30.60  14.10  7.789  2.250  1.436  0.814  0.000  540.8  257.5  283.3    0.0
 1994 016   190  26.20  26.50  14.30  6.402  1.697  0.959  0.738  0.000  542.5  258.4  284.1    0.0
 1994 017   191  29.50  28.00  13.80  7.339  1.571  0.891  0.680  0.000  544.1  259.3  284.8    0.0
 1994 018   192  30.70  30.00  18.20  8.106  1.428  0.794  0.634  0.000  545.5  260.1  285.4    0.0
 1994 019   193  29.80  31.60  18.40  8.041  1.232  0.636  0.596  0.000  546.8  260.8  286.0    0.0
 1994 020   194  27.90  35.00  18.80  7.846  1.064  0.501  0.564  0.000  547.8  261.3  286.5    0.0
