*PLANT N OUTPUT FILE

*DSSAT Cropping System Model Ver. 4.0.2.000               Aug 12, 2016; 09:16:44

*RUN   1        : UYSB                    
 MODEL          : CRGRO040 - Soybean         
 EXPERIMENT     : UYSB0192 SB    late to create DSS                             
 TREATMENT  1   : UYSB                    

@YEAR DOY   DAS   DAP    CNAD    GNAD    VNAD    GN%D    VN%D     NFXC    NUPC    LNAD    SNAD    LN%D    SN%D    SHND   RN%D   NFXD   SNN0C   SNN1C
 1990 194     3     0     0.0     0.0     0.0    0.00    0.00      0.0     0.0     0.0     0.0    0.00    0.00     0.0    0.0    0.0    0.00    0.00
 1990 195     4     1     0.0     0.0     0.0    0.00    0.00      0.0     0.0     0.0     0.0    0.00    0.00     0.0    0.0    0.0    0.00    0.00
 1990 196     5     2     0.0     0.0     0.0    0.00    0.00      0.0     0.0     0.0     0.0    0.00    0.00     0.0    0.0    0.0    0.00    0.00
 1990 197     6     3     0.0     0.0     0.0    0.00    0.00      0.0     0.0     0.0     0.0    0.00    0.00     0.0    0.0    0.0    0.00    0.00
 1990 198     7     4     0.0     0.0     0.0    0.00    0.00      0.0     0.0     0.0     0.0    0.00    0.00     0.0    0.0    0.0    0.00    0.00
 1990 199     8     5     0.0     0.0     0.0    0.00    0.00      0.0     0.0     0.0     0.0    0.00    0.00     0.0    0.0    0.0    0.00    0.00
 1990 200     9     6     0.0     0.0     0.0    0.00    0.00      0.0     0.0     0.0     0.0    0.00    0.00     0.0    0.0    0.0    0.00    0.00
 1990 201    10     7     0.0     0.0     0.0    0.00    0.00      0.0     0.0     0.0     0.0    0.00    0.00     0.0    0.0    0.0    0.00    0.00
 1990 202    11     8     0.0     0.0     0.0    0.00    0.00      0.0     0.0     0.0     0.0    0.00    0.00     0.0    0.0    0.0    0.00    0.00
 1990 203    12     9     0.0     0.0     0.0    0.00    0.00      0.0     0.0     0.0     0.0    0.00    0.00     0.0    0.0    0.0    0.00    0.00
 1990 204    13    10     0.0     0.0     0.0    0.00    0.00      0.0     0.0     0.0     0.0    0.00    0.00     0.0    0.0    0.0    0.00    0.00
 1990 205    14    11     0.0     0.0     0.0    0.00    0.00      0.0     0.0     0.0     0.0    0.00    0.00     0.0    0.0    0.0    0.00    0.00
 1990 206    15    12     0.0     0.0     0.0    0.00    0.00      0.0     0.0     0.0     0.0    0.00    0.00     0.0    0.0    0.0    0.00    0.00
 1990 207    16    13     0.0     0.0     0.0    0.00    0.00      0.0     0.0     0.0     0.0    0.00    0.00     0.0    0.0    0.0    0.00    0.00
 1990 208    17    14     0.0     0.0     0.0    0.00    0.00      0.0     0.0     0.0     0.0    0.00    0.00     0.0    0.0    0.0    0.00    0.00
 1990 209    18    15     0.0     0.0     0.0    0.00    0.00      0.0     0.0     0.0     0.0    0.00    0.00     0.0    0.0    0.0    0.00    0.00
 1990 210    19    16     0.0     0.0     0.0    0.00    0.00      0.0     0.0     0.0     0.0    0.00    0.00     0.0    0.0    0.0    0.00    0.00
 1990 211    20    17     0.0     0.0     0.0    0.00    0.00      0.0     0.0     0.0     0.0    0.00    0.00     0.0    0.0    0.0    0.00    0.00
 1990 212    21    18     0.0     0.0     0.0    0.00    0.00      0.0     0.0     0.0     0.0    0.00    0.00     0.0    0.0    0.0    0.00    0.00
 1990 213    22    19     0.0     0.0     0.0    0.00    0.00      0.0     0.0     0.0     0.0    0.00    0.00     0.0    0.0    0.0    0.00    0.00
 1990 214    23    20     0.0     0.0     0.0    0.00    0.00      0.0     0.0     0.0     0.0    0.00    0.00     0.0    0.0    0.0    0.00    0.00
 1990 215    24    21     0.2     0.0     0.2    0.00    5.15      0.0     0.0     0.2     0.0    5.70    2.64     0.0    1.5    0.0    0.00    0.00
 1990 216    25    22     0.2     0.0     0.2    0.00    5.14      0.0     0.0     0.2     0.0    5.70    2.64     0.0    1.5    0.0    0.00    0.01
 1990 217    26    23     0.2     0.0     0.2    0.00    5.13      0.0     0.0     0.2     0.0    5.70    2.64     0.0    1.5    0.0    0.00    0.01
 1990 218    27    24     0.2     0.0     0.2    0.00    5.11      0.0     0.1     0.2     0.0    5.70    2.65     0.0    1.5    0.0    0.00    0.01
 1990 219    28    25     0.2     0.0     0.2    0.00    5.08      0.1     0.1     0.2     0.0    5.71    2.65     0.0    1.5    0.0    0.00    0.01
 1990 220    29    26     0.3     0.0     0.3    0.00    5.06      0.1     0.1     0.2     0.0    5.71    2.65     0.0    1.5    0.0    0.00    0.01
 1990 221    30    27     0.3     0.0     0.3    0.00    5.04      0.1     0.1     0.2     0.0    5.71    2.65     0.0    1.5    0.0    0.00    0.01
 1990 222    31    28     0.3     0.0     0.3    0.00    5.02      0.1     0.2     0.3     0.0    5.71    2.65     0.0    1.5    0.0    0.00    0.01
 1990 223    32    29     0.3     0.0     0.3    0.00    4.98      0.1     0.2     0.3     0.0    5.71    2.65     0.0    1.5    0.0    0.00    0.01
 1990 224    33    30     0.3     0.0     0.3    0.00    4.94      0.1     0.2     0.3     0.0    5.72    2.65     0.0    1.5    0.0    0.00    0.02
 1990 225    34    31     0.4     0.0     0.4    0.00    4.89      0.1     0.3     0.3     0.1    5.72    2.66     0.0    1.5    0.0    0.00    0.02
 1990 226    35    32     0.4     0.0     0.4    0.00    4.88      0.1     0.3     0.3     0.1    5.72    2.66     0.0    1.5    0.0    0.00    0.02
 1990 227    36    33     0.4     0.0     0.4    0.00    4.91      0.1     0.3     0.3     0.1    5.72    2.66     0.0    1.5    0.0    0.00    0.02
 1990 228    37    34     0.4     0.0     0.4    0.00    4.95      0.1     0.3     0.4     0.1    5.72    2.66     0.0    1.5    0.0    0.00    0.03
 1990 229    38    35     0.5     0.0     0.5    0.00    4.97      0.1     0.4     0.4     0.1    5.72    2.66     0.0    1.5    0.0    0.00    0.03
 1990 230    39    36     0.5     0.0     0.5    0.00    4.98      0.1     0.5     0.4     0.1    5.72    2.66     0.0    1.5    0.0    0.00    0.03
 1990 231    40    37     0.6     0.0     0.6    0.00    4.99      0.1     0.5     0.5     0.1    5.72    2.66     0.0    1.5    0.0    0.00    0.03
 1990 232    41    38     0.6     0.0     0.6    0.00    4.99      0.1     0.6     0.5     0.1    5.72    2.66     0.0    1.5    0.0    0.00    0.03
 1990 233    42    39     0.7     0.0     0.7    0.00    4.97      0.1     0.6     0.6     0.1    5.72    2.66     0.0    1.5    0.0    0.00    0.03
 1990 234    43    40     0.7     0.0     0.7    0.00    4.97      0.1     0.7     0.6     0.1    5.72    2.66     0.0    1.5    0.0    0.00    0.03
 1990 235    44    41     0.7     0.0     0.7    0.00    4.96      0.1     0.7     0.6     0.1    5.72    2.66     0.0    1.5    0.0    0.00    0.03
 1990 236    45    42     0.8     0.0     0.8    0.00    4.95      0.1     0.8     0.7     0.1    5.72    2.66     0.0    1.5    0.0    0.00    0.04
 1990 237    46    43     0.8     0.0     0.8    0.00    4.92      0.1     0.9     0.7     0.1    5.72    2.66     0.0    1.5    0.0    0.00    0.04
 1990 238    47    44     0.9     0.0     0.9    0.00    4.91      0.1     1.0     0.8     0.1    5.72    2.66     0.0    1.5    0.0    0.00    0.04
 1990 239    48    45     0.9     0.0     0.9    0.00    4.92      0.1     1.0     0.8     0.1    5.72    2.66     0.0    1.5    0.0    0.00    0.04
 1990 240    49    46     1.0     0.0     1.0    0.00    4.90      0.1     1.0     0.8     0.1    5.72    2.66     0.0    1.5    0.0    0.00    0.04
 1990 241    50    47     1.0     0.0     1.0    0.00    4.89      0.1     1.1     0.9     0.1    5.72    2.66     0.0    1.5    0.0    0.00    0.04
 1990 242    51    48     1.1     0.0     1.1    0.00    4.87      0.1     1.2     0.9     0.2    5.72    2.66     0.0    1.5    0.0    0.00    0.04
 1990 243    52    49     1.1     0.0     1.1    0.00    4.87      0.1     1.2     0.9     0.2    5.72    2.66     0.0    1.5    0.0    0.00    0.05
 1990 244    53    50     1.1     0.0     1.1    0.00    4.86      0.1     1.2     0.9     0.2    5.72    2.66     0.0    1.5    0.0    0.00    0.05
 1990 245    54    51     0.2     0.0     0.2    0.00    2.80      0.1     1.3     0.0     0.2    5.71    2.66     0.0    1.5    0.0    0.94    0.05
 1990 246    55    52     0.2     0.0     0.2    0.00    2.80      0.1     1.3     0.0     0.2    5.71    2.66     0.0    1.5    0.0    0.94    0.06
 1990 247    56    53     0.2     0.0     0.2    0.00    2.81      0.1     1.3     0.0     0.2    5.71    2.66     0.0    1.5    0.0    0.94    0.06
 1990 248    57    54     0.2     0.0     0.2    0.00    2.81      0.1     1.3     0.0     0.2    5.71    2.66     0.0    1.5    0.0    0.94    0.06
 1990 249    58    55     0.2     0.0     0.2    0.00    2.81      0.1     1.3     0.0     0.2    5.71    2.66     0.0    1.5    0.0    0.94    0.07
 1990 250    59    56     0.2     0.0     0.2    0.00    2.81      0.1     1.3     0.0     0.2    5.72    2.66     0.0    1.5    0.0    0.94    0.07
 1990 251    60    57     0.2     0.0     0.2    0.00    2.81      0.1     1.3     0.0     0.2    5.72    2.67     0.0    1.5    0.0    0.94    0.08
 1990 252    61    58     0.2     0.0     0.2    0.00    2.81      0.1     1.3     0.0     0.2    5.72    2.67     0.0    1.5    0.0    0.94    0.08
 1990 253    62    59     0.2     0.0     0.2    0.00    2.82      0.1     1.3     0.0     0.2    5.72    2.67     0.0    1.5    0.0    0.94    0.08
 1990 254    63    60     0.2     0.0     0.2    0.00    2.82      0.1     1.3     0.0     0.2    5.72    2.67     0.0    1.5    0.0    0.94    0.09
 1990 255    64    61     0.2     0.0     0.2    0.00    2.82      0.1     1.3     0.0     0.2    5.73    2.67     0.0    1.5    0.0    0.94    0.09
 1990 256    65    62     0.2     0.0     0.2    0.00    2.82      0.1     1.3     0.0     0.2    5.73    2.67     0.0    1.5    0.0    0.94    0.09
 1990 257    66    63     0.2     0.0     0.2    0.00    2.82      0.1     1.3     0.0     0.2    5.73    2.67     0.0    1.5    0.0    0.94    0.09
 1990 258    67    64     0.2     0.0     0.2    0.00    2.83      0.1     1.3     0.0     0.2    5.73    2.67     0.0    1.5    0.0    0.94    0.10
 1990 259    68    65     0.2     0.0     0.2    0.00    2.83      0.1     1.3     0.0     0.2    5.73    2.68     0.0    1.5    0.0    0.94    0.10
 1990 260    69    66     0.2     0.0     0.2    0.00    2.83      0.1     1.3     0.0     0.2    5.73    2.68     0.0    1.5    0.0    0.94    0.10
 1990 261    70    67     0.2     0.0     0.2    0.00    2.83      0.1     1.3     0.0     0.2    5.73    2.68     0.0    1.5    0.0    0.94    0.10
 1990 262    71    68     0.2     0.0     0.2    0.00    2.83      0.1     1.3     0.0     0.2    5.73    2.68     0.0    1.5    0.0    0.94    0.10
 1990 263    72    69     0.2     0.0     0.2    0.00    2.84      0.1     1.3     0.0     0.2    5.73    2.68     0.0    1.5    0.0    0.94    0.11
 1990 264    73    70     0.2     0.0     0.2    0.00    2.84      0.1     1.3     0.0     0.2    5.74    2.68     0.0    1.5    0.0    0.94    0.11
 1990 265    74    71     0.2     0.0     0.2    0.00    2.84      0.1     1.3     0.0     0.2    5.74    2.69     0.0    1.5    0.0    0.94    0.11
 1990 266    75    72     0.2     0.0     0.2    0.00    2.84      0.1     1.3     0.0     0.2    5.74    2.69     0.0    1.5    0.0    0.94    0.11
 1990 267    76    73     0.2     0.0     0.2    0.00    2.84      0.1     1.3     0.0     0.2    5.74    2.69     0.0    1.5    0.0    0.94    0.11
 1990 268    77    74     0.2     0.0     0.2    0.00    2.85      0.1     1.3     0.0     0.2    5.74    2.69     0.0    1.5    0.0    0.94    0.11
 1990 269    78    75     0.2     0.0     0.2    0.00    2.85      0.1     1.3     0.0     0.2    5.74    2.69     0.0    1.5    0.0    0.94    0.12
 1990 270    79    76     0.2     0.0     0.2    0.00    2.86      0.1     1.3     0.0     0.2    5.74    2.69     0.0    1.5    0.0    0.94    0.12
 1990 271    80    77     0.2     0.0     0.2    0.00    2.86      0.1     1.3     0.0     0.2    5.74    2.69     0.0    1.5    0.0    0.94    0.12
 1990 272    81    78     0.2     0.0     0.2    0.00    2.86      0.1     1.3     0.0     0.2    5.74    2.69     0.0    1.5    0.0    0.94    0.12
 1990 273    82    79     0.2     0.0     0.2    0.00    2.87      0.1     1.3     0.0     0.2    5.75    2.70     0.0    1.5    0.0    0.94    0.12
 1990 274    83    80     0.2     0.0     0.2    0.00    2.87      0.1     1.3     0.0     0.2    5.75    2.70     0.0    1.5    0.0    0.94    0.13
 1990 275    84    81     0.2     0.0     0.2    0.00    2.88      0.1     1.3     0.0     0.2    5.75    2.70     0.0    1.5    0.0    0.94    0.13
 1990 276    85    82     0.2     0.0     0.2    0.00    2.88      0.1     1.3     0.0     0.2    5.75    2.70     0.0    1.5    0.0    0.94    0.13
 1990 277    86    83     0.2     0.0     0.2    0.00    2.88      0.1     1.3     0.0     0.2    5.75    2.71     0.0    1.5    0.0    0.94    0.13
 1990 278    87    84     0.2     0.0     0.2    0.00    2.89      0.1     1.3     0.0     0.2    5.76    2.71     0.0    1.5    0.0    0.94    0.13
 1990 279    88    85     0.2     0.0     0.2    0.00    2.89      0.1     1.3     0.0     0.2    5.76    2.71     0.0    1.5    0.0    0.94    0.14
 1990 280    89    86     0.2     0.0     0.2    0.00    2.89      0.1     1.3     0.0     0.2    5.76    2.71     0.0    1.5    0.0    0.94    0.14
 1990 281    90    87     0.2     0.0     0.2    0.00    2.89      0.1     1.3     0.0     0.2    5.76    2.71     0.0    1.5    0.0    0.94    0.14
 1990 282    91    88     0.2     0.0     0.2    0.00    2.90      0.1     1.3     0.0     0.2    5.76    2.71     0.0    1.5    0.0    0.94    0.14
 1990 283    92    89     0.2     0.0     0.2    0.00    2.90      0.1     1.3     0.0     0.2    5.76    2.72     0.0    1.5    0.0    0.94    0.14
 1990 284    93    90     0.2     0.0     0.2    0.00    2.90      0.1     1.3     0.0     0.2    5.77    2.72     0.0    1.5    0.0    0.94    0.15
 1990 285    94    91     0.2     0.0     0.2    0.00    2.91      0.1     1.3     0.0     0.2    5.77    2.72     0.0    1.5    0.0    0.94    0.15
 1990 286    95    92     0.2     0.0     0.2    0.00    2.92      0.1     1.3     0.0     0.2    5.77    2.72     0.0    1.5    0.0    0.94    0.15
 1990 287    96    93     0.2     0.0     0.2    0.00    2.92      0.1     1.3     0.0     0.2    5.76    2.72     0.0    1.5    0.0    0.94    0.15
 1990 288    97    94     0.2     0.0     0.2    0.00    2.93      0.1     1.3     0.0     0.2    5.76    2.72     0.0    1.5    0.0    0.94    0.15
 1990 289    98    95     0.2     0.0     0.2    0.00    2.94      0.1     1.3     0.0     0.2    5.76    2.72     0.0    1.5    0.0    0.94    0.15
 1990 290    99    96     0.2     0.0     0.2    0.00    2.94      0.1     1.3     0.0     0.2    5.76    2.72     0.0    1.5    0.0    0.94    0.15
 1990 291   100    97     0.2     0.0     0.2    0.00    2.95      0.1     1.3     0.0     0.2    5.76    2.73     0.0    1.5    0.0    0.94    0.16
 1990 292   101    98     0.2     0.0     0.2    0.00    2.96      0.1     1.3     0.0     0.2    5.76    2.73     0.0    1.5    0.0    0.94    0.16
 1990 293   102    99     0.2     0.0     0.2    0.00    2.96      0.1     1.3     0.0     0.2    5.76    2.73     0.0    1.5    0.0    0.94    0.16
 1990 294   103   100     0.2     0.0     0.2    0.00    2.97      0.1     1.3     0.0     0.2    5.76    2.73     0.0    1.5    0.0    0.94    0.16
 1990 295   104   101     0.2     0.0     0.2    0.00    2.98      0.1     1.3     0.0     0.2    5.76    2.73     0.0    1.5    0.0    0.94    0.16
 1990 296   105   102     0.2     0.0     0.2    0.00    2.99      0.1     1.3     0.0     0.2    5.76    2.73     0.0    1.5    0.0    0.94    0.16
 1990 297   106   103     0.2     0.0     0.2    0.00    3.00      0.1     1.3     0.0     0.2    5.76    2.73     0.0    1.5    0.0    0.94    0.16
 1990 298   107   104     0.2     0.0     0.2    0.00    3.00      0.1     1.3     0.0     0.2    5.76    2.73     0.0    1.5    0.0    0.94    0.17
 1990 299   108   105     0.2     0.0     0.2    0.00    3.01      0.1     1.3     0.0     0.2    5.75    2.73     0.0    1.5    0.0    0.94    0.17
 1990 300   109   106     0.2     0.0     0.2    0.00    3.02      0.1     1.3     0.0     0.2    5.75    2.72     0.0    1.5    0.0    0.94    0.17
 1990 301   110   107     0.2     0.0     0.2    0.00    3.03      0.1     1.3     0.0     0.2    5.75    2.73     4.0    1.5    0.0    0.94    0.17
 1990 302   111   108     0.2     0.0     0.2    0.00    3.03      0.1     1.3     0.0     0.2    5.75    2.73     4.0    1.5    0.0    0.94    0.17
 1990 303   112   109     0.2     0.0     0.2    0.00    3.04      0.1     1.3     0.0     0.2    5.75    2.72     4.0    1.5    0.0    0.94    0.18
 1990 304   113   110     0.2     0.0     0.2    0.00    3.05      0.1     1.3     0.1     0.2    5.75    2.72     4.0    1.5    0.0    0.94    0.18
 1990 305   114   111     0.2     0.0     0.2    0.00    3.06      0.1     1.3     0.1     0.2    5.74    2.71     4.0    1.5    0.0    0.94    0.18
 1990 306   115   112     0.3     0.0     0.3    0.00    3.06      0.1     1.3     0.1     0.2    5.74    2.71     4.0    1.5    0.0    0.94    0.18
 1990 307   116   113     0.3     0.0     0.3    0.00    3.07      0.1     1.3     0.1     0.2    5.74    2.71     4.0    1.5    0.0    0.94    0.18
 1990 308   117   114     0.3     0.0     0.3    0.00    3.07      0.1     1.3     0.1     0.2    5.74    2.70     4.0    1.5    0.0    0.94    0.18
 1990 309   118   115     0.3     0.0     0.3    0.00    3.07      0.1     1.3     0.1     0.2    5.73    2.70     4.0    1.5    0.0    0.94    0.19
 1990 310   119   116     0.3     0.0     0.3    0.00    3.07      0.1     1.3     0.1     0.2    5.73    2.69     4.0    1.5    0.0    0.94    0.19
 1990 311   120   117     0.3     0.0     0.3    0.00    3.08      0.1     1.4     0.1     0.2    5.73    2.69     4.0    1.5    0.0    0.94    0.19
 1990 312   121   118     0.3     0.0     0.3    0.00    3.08      0.1     1.4     0.1     0.2    5.73    2.69     4.0    1.5    0.0    0.94    0.19
 1990 313   122   119     0.3     0.0     0.3    0.00    3.08      0.1     1.4     0.1     0.2    5.73    2.68     4.0    1.5    0.0    0.94    0.19
 1990 314   123   120     0.3     0.0     0.3    0.00    3.08      0.1     1.4     0.1     0.2    5.72    2.68     4.0    1.5    0.0    0.94    0.19
 1990 315   124   121     0.3     0.0     0.3    0.00    3.08      0.1     1.4     0.1     0.2    5.72    2.67     4.0    1.5    0.0    0.94    0.19
 1990 316   125   122     0.3     0.0     0.3    0.00    3.09      0.1     1.4     0.1     0.2    5.72    2.67     4.0    1.5    0.0    0.94    0.19
 1990 317   126   123     0.3     0.0     0.3    0.00    3.09      0.1     1.4     0.1     0.2    5.71    2.66     4.0    1.5    0.0    0.94    0.20
 1990 318   127   124     0.3     0.0     0.3    0.00    3.09      0.1     1.4     0.1     0.2    5.72    2.66     4.0    1.5    0.0    0.94    0.20
 1990 319   128   125     0.3     0.0     0.3    0.00    3.09      0.1     1.4     0.1     0.2    5.72    2.67     4.0    1.5    0.0    0.95    0.20
 1990 320   129   126     0.3     0.0     0.3    0.00    3.09      0.1     1.4     0.1     0.2    5.72    2.66     4.0    1.5    0.0    0.95    0.20
 1990 321   130   127     0.3     0.0     0.3    0.00    3.09      0.1     1.4     0.1     0.2    5.71    2.65     4.0    1.5    0.0    0.95    0.20
 1990 322   131   128     0.3     0.0     0.3    0.00    3.09      0.1     1.4     0.1     0.2    5.70    2.64     4.0    1.5    0.0    0.95    0.20
 1990 323   132   129     0.3     0.0     0.3    0.00    3.09      0.1     1.4     0.1     0.2    5.70    2.64     4.0    1.5    0.0    0.95    0.21
 1990 324   133   130     0.3     0.0     0.3    0.00    3.09      0.1     1.4     0.1     0.2    5.70    2.64     4.0    1.5    0.0    0.95    0.21
 1990 325   134   131     0.3     0.0     0.3    0.00    3.08      0.1     1.4     0.1     0.2    5.69    2.63     4.0    1.5    0.0    0.95    0.21
 1990 326   135   132     0.4     0.0     0.3    0.00    3.08      0.1     1.5     0.1     0.2    5.69    2.62     4.0    1.5    0.0    0.95    0.21
 1990 327   136   133     0.4     0.0     0.3    0.00    3.07      0.1     1.5     0.1     0.2    5.68    2.60     4.0    1.5    0.0    0.96    0.21
 1990 328   137   134     0.4     0.0     0.3    0.00    3.06      0.1     1.5     0.1     0.2    5.67    2.59     4.0    1.5    0.0    0.96    0.22
 1990 329   138   135     0.4     0.0     0.3    6.31    3.06      0.1     1.5     0.1     0.2    5.66    2.59     4.0    1.5    0.0    0.96    0.22
 1990 330   139   136     0.4     0.0     0.3    6.28    3.05      0.1     1.5     0.1     0.2    5.66    2.58     4.0    1.5    0.0    0.96    0.22
 1990 331   140   137     0.4     0.0     0.3    6.30    3.04      0.1     1.5     0.1     0.2    5.65    2.57     4.0    1.5    0.0    0.96    0.22
 1990 332   141   138     0.4     0.0     0.3    6.30    3.03      0.1     1.5     0.1     0.2    5.64    2.56     4.0    1.5    0.0    0.96    0.22
 1990 333   142   139     0.4     0.0     0.3    6.28    3.02      0.1     1.5     0.1     0.2    5.63    2.54     4.0    1.5    0.0    0.96    0.22
 1990 334   143   140     0.4     0.0     0.3    6.27    3.02      0.1     1.5     0.1     0.2    5.62    2.54     4.0    1.5    0.0    0.96    0.22
 1990 335   144   141     0.4     0.0     0.3    6.26    3.01      0.1     1.5     0.1     0.2    5.62    2.53     4.0    1.5    0.0    0.96    0.22
 1990 336   145   142     0.4     0.0     0.3    6.25    3.01      0.1     1.5     0.1     0.2    5.61    2.52     4.0    1.5    0.0    0.96    0.23
 1990 337   146   143     0.4     0.0     0.3    6.25    3.00      0.1     1.6     0.1     0.2    5.60    2.51     4.0    1.5    0.0    0.97    0.23
 1990 338   147   144     0.4     0.0     0.3    6.25    2.99      0.1     1.6     0.1     0.2    5.59    2.50     3.9    1.5    0.0    0.97    0.23
 1990 339   148   145     0.4     0.0     0.3    6.28    2.98      0.1     1.6     0.1     0.2    5.58    2.49     3.9    1.5    0.0    0.97    0.23
 1990 340   149   146     0.4     0.0     0.3    6.27    2.97      0.1     1.6     0.1     0.2    5.57    2.49     3.9    1.5    0.0    0.97    0.23
 1990 341   150   147     0.4     0.0     0.3    6.26    2.96      0.1     1.6     0.1     0.2    5.56    2.47     3.9    1.4    0.0    0.97    0.23
 1990 342   151   148     0.4     0.0     0.3    6.26    2.94      0.1     1.6     0.1     0.2    5.54    2.46     3.9    1.4    0.0    0.97    0.23
 1990 343   152   149     0.4     0.0     0.3    6.26    2.93      0.1     1.6     0.1     0.2    5.53    2.45     3.9    1.4    0.0    0.98    0.23
 1990 344   153   150     0.4     0.0     0.3    6.26    2.92      0.1     1.6     0.1     0.2    5.52    2.43     3.9    1.4    0.0    0.98    0.24
 1990 345   154   151     0.4     0.1     0.3    6.25    2.90      0.1     1.6     0.1     0.2    5.50    2.42     3.8    1.4    0.0    0.98    0.24
 1990 346   155   152     0.5     0.1     0.3    6.26    2.89      0.1     1.6     0.1     0.2    5.48    2.41     3.8    1.4    0.0    0.98    0.24
 1990 347   156   153     0.5     0.1     0.3    6.25    2.87      0.1     1.6     0.1     0.2    5.47    2.39     3.8    1.4    0.0    0.98    0.24
 1990 348   157   154     0.5     0.1     0.3    6.26    2.86      0.1     1.6     0.1     0.2    5.45    2.37     3.8    1.4    0.0    0.98    0.24
 1990 349   158   155     0.5     0.1     0.3    6.25    2.84      0.1     1.6     0.1     0.2    5.43    2.36     3.8    1.4    0.0    0.99    0.24
 1990 350   159   156     0.5     0.1     0.3    6.25    2.82      0.1     1.6     0.1     0.2    5.41    2.34     3.8    1.4    0.0    0.99    0.24
 1990 351   160   157     0.5     0.1     0.3    6.26    2.80      0.1     1.6     0.1     0.2    5.39    2.32     3.7    1.4    0.0    1.00    0.24
 1990 352   161   158     0.5     0.1     0.3    6.26    2.77      0.1     1.7     0.1     0.2    5.36    2.29     3.7    1.4    0.0    1.00    0.24
 1990 353   162   159     0.5     0.1     0.3    6.25    2.75      0.1     1.7     0.1     0.2    5.33    2.27     3.7    1.4    0.0    1.00    0.25
 1990 354   163   160     0.5     0.1     0.3    6.25    2.72      0.1     1.7     0.1     0.2    5.31    2.24     3.7    1.4    0.0    1.00    0.25
 1990 355   164   161     0.5     0.1     0.3    6.25    2.69      0.1     1.7     0.1     0.2    5.28    2.22     3.6    1.4    0.0    1.00    0.25
 1990 356   165   162     0.5     0.1     0.3    6.25    2.66      0.1     1.7     0.1     0.2    5.24    2.19     3.6    1.3    0.0    1.01    0.25
 1990 357   166   163     0.5     0.1     0.3    6.25    2.63      0.1     1.7     0.1     0.2    5.21    2.16     3.6    1.3    0.0    1.01    0.25
 1990 358   167   164     0.5     0.1     0.3    6.25    2.60      0.1     1.7     0.1     0.2    5.17    2.14     3.5    1.3    0.0    1.01    0.25
 1990 359   168   165     0.5     0.1     0.3    6.24    2.57      0.1     1.7     0.1     0.2    5.13    2.11     3.5    1.3    0.0    1.01    0.25
 1990 360   169   166     0.5     0.1     0.3    6.25    2.53      0.1     1.7     0.1     0.2    5.09    2.07     3.4    1.3    0.0    1.01    0.25
 1990 361   170   167     0.5     0.2     0.2    6.26    2.50      0.1     1.7     0.1     0.2    5.05    2.04     3.4    1.3    0.0    1.01    0.26
 1990 362   171   168     0.5     0.2     0.2    6.26    2.46      0.1     1.7     0.1     0.2    5.01    2.01     3.4    1.3    0.0    1.02    0.26
 1990 363   172   169     0.5     0.2     0.2    6.26    2.43      0.1     1.7     0.1     0.2    4.97    1.98     3.3    1.3    0.0    1.02    0.26
 1990 364   173   170     0.5     0.2     0.2    6.26    2.39      0.1     1.7     0.1     0.2    4.93    1.94     3.3    1.3    0.0    1.02    0.26
 1990 365   174   171     0.5     0.2     0.2    6.26    2.35      0.1     1.7     0.1     0.2    4.88    1.91     3.2    1.3    0.0    1.02    0.26
 1991 001   175   172     0.5     0.2     0.2    6.26    2.31      0.1     1.7     0.1     0.2    4.82    1.87     3.2    1.2    0.0    1.02    0.26
 1991 002   176   173     0.5     0.2     0.2    6.27    2.26      0.1     1.7     0.1     0.2    4.76    1.83     3.1    1.2    0.0    1.02    0.26
 1991 003   177   174     0.5     0.2     0.2    6.27    2.21      0.1     1.7     0.1     0.1    4.70    1.79     3.1    1.2    0.0    1.03    0.26
 1991 004   178   175     0.5     0.2     0.2    6.27    2.17      0.1     1.7     0.1     0.1    4.64    1.75     3.0    1.2    0.0    1.03    0.26
 1991 005   179   176     0.5     0.2     0.2    6.27    2.05      0.1     1.7     0.1     0.1    4.55    1.71     3.0    1.2    0.0    1.04    0.26
 1991 006   180   177     0.5     0.2     0.2    6.27    1.95      0.1     1.7     0.0     0.1    4.45    1.67     2.9    1.2    0.0    1.06    0.27
 1991 007   181   178     0.5     0.3     0.2    6.27    1.86      0.1     1.7     0.0     0.1    4.37    1.63     2.9    1.2    0.0    1.07    0.27
 1991 008   182   179     0.5     0.3     0.1    6.28    1.80      0.1     1.7     0.0     0.1    4.33    1.62     2.8    1.2    0.0    1.08    0.27
 1991 009   183   180     0.5     0.3     0.1    6.28    1.77      0.1     1.7     0.0     0.1    4.34    1.62     2.8    1.2    0.0    1.08    0.27
 1991 010   184   181     0.5     0.3     0.1    6.28    1.74      0.1     1.7     0.0     0.1    4.34    1.62     2.8    1.2    0.0    1.09    0.27
 1991 011   185   182     0.5     0.3     0.1    6.28    1.72      0.1     1.7     0.0     0.1    4.34    1.62     2.8    1.2    0.0    1.09    0.27
 1991 012   186   183     0.5     0.3     0.1    6.28    1.70      0.1     1.7     0.0     0.1    4.35    1.62     2.8    1.2    0.0    1.10    0.27
 1991 013   187   184     0.5     0.3     0.1    6.28    1.69      0.1     1.7     0.0     0.1    4.35    1.62     2.8    1.2    0.0    1.10    0.27
 1991 014   188   185     0.5     0.3     0.1    6.28    1.68      0.1     1.7     0.0     0.1    4.35    1.63     2.8    1.2    0.0    1.10    0.27
 1991 015   189   186     0.5     0.3     0.1    6.28    1.67      0.1     1.7     0.0     0.1    4.36    1.63     2.8    1.2    0.0    1.10    0.27
 1991 016   190   187     0.5     0.3     0.1    6.28    1.66      0.1     1.7     0.0     0.1    4.36    1.63     2.8    1.2    0.0    1.10    0.27

*DSSAT Cropping System Model Ver. 4.0.2.000               Aug 12, 2016; 09:16:44

*RUN   2        : UYSB                    
 MODEL          : CRGRO040 - Soybean         
 EXPERIMENT     : UYSB0192 SB    late to create DSS                             
 TREATMENT  1   : UYSB                    

@YEAR DOY   DAS   DAP    CNAD    GNAD    VNAD    GN%D    VN%D     NFXC    NUPC    LNAD    SNAD    LN%D    SN%D    SHND   RN%D   NFXD   SNN0C   SNN1C
 1991 194     3     0     0.0     0.0     0.0    0.00    0.00      0.0     0.0     0.0     0.0    0.00    0.00     0.0    0.0    0.0    0.00    0.00
 1991 195     4     1     0.0     0.0     0.0    0.00    0.00      0.0     0.0     0.0     0.0    0.00    0.00     0.0    0.0    0.0    0.00    0.00
 1991 196     5     2     0.0     0.0     0.0    0.00    0.00      0.0     0.0     0.0     0.0    0.00    0.00     0.0    0.0    0.0    0.00    0.00
 1991 197     6     3     0.0     0.0     0.0    0.00    0.00      0.0     0.0     0.0     0.0    0.00    0.00     0.0    0.0    0.0    0.00    0.00
 1991 198     7     4     0.0     0.0     0.0    0.00    0.00      0.0     0.0     0.0     0.0    0.00    0.00     0.0    0.0    0.0    0.00    0.00
 1991 199     8     5     0.0     0.0     0.0    0.00    0.00      0.0     0.0     0.0     0.0    0.00    0.00     0.0    0.0    0.0    0.00    0.00
 1991 200     9     6     0.0     0.0     0.0    0.00    0.00      0.0     0.0     0.0     0.0    0.00    0.00     0.0    0.0    0.0    0.00    0.00
 1991 201    10     7     0.0     0.0     0.0    0.00    0.00      0.0     0.0     0.0     0.0    0.00    0.00     0.0    0.0    0.0    0.00    0.00
 1991 202    11     8     0.0     0.0     0.0    0.00    0.00      0.0     0.0     0.0     0.0    0.00    0.00     0.0    0.0    0.0    0.00    0.00
 1991 203    12     9     0.0     0.0     0.0    0.00    0.00      0.0     0.0     0.0     0.0    0.00    0.00     0.0    0.0    0.0    0.00    0.00
 1991 204    13    10     0.0     0.0     0.0    0.00    0.00      0.0     0.0     0.0     0.0    0.00    0.00     0.0    0.0    0.0    0.00    0.00
 1991 205    14    11     0.0     0.0     0.0    0.00    0.00      0.0     0.0     0.0     0.0    0.00    0.00     0.0    0.0    0.0    0.00    0.00
 1991 206    15    12     0.0     0.0     0.0    0.00    0.00      0.0     0.0     0.0     0.0    0.00    0.00     0.0    0.0    0.0    0.00    0.00
 1991 207    16    13     0.0     0.0     0.0    0.00    0.00      0.0     0.0     0.0     0.0    0.00    0.00     0.0    0.0    0.0    0.00    0.00
 1991 208    17    14     0.0     0.0     0.0    0.00    0.00      0.0     0.0     0.0     0.0    0.00    0.00     0.0    0.0    0.0    0.00    0.00
 1991 209    18    15     0.0     0.0     0.0    0.00    0.00      0.0     0.0     0.0     0.0    0.00    0.00     0.0    0.0    0.0    0.00    0.00
 1991 210    19    16     0.2     0.0     0.2    0.00    5.15      0.0     0.0     0.2     0.0    5.70    2.64     0.0    1.5    0.0    0.00    0.00
 1991 211    20    17     0.2     0.0     0.2    0.00    5.16      0.0     0.0     0.2     0.0    5.70    2.64     0.0    1.5    0.0    0.00    0.01
 1991 212    21    18     0.2     0.0     0.2    0.00    5.16      0.0     0.0     0.2     0.0    5.70    2.65     0.0    1.5    0.0    0.00    0.01
 1991 213    22    19     0.2     0.0     0.2    0.00    5.15      0.0     0.0     0.2     0.0    5.70    2.65     0.0    1.5    0.0    0.00    0.01
 1991 214    23    20     0.2     0.0     0.2    0.00    5.15      0.0     0.0     0.2     0.0    5.70    2.65     0.0    1.5    0.0    0.00    0.01
 1991 215    24    21     0.2     0.0     0.2    0.00    5.15      0.0     0.0     0.2     0.0    5.70    2.65     0.0    1.5    0.0    0.00    0.02
 1991 216    25    22     0.2     0.0     0.2    0.00    5.15      0.0     0.0     0.2     0.0    5.70    2.65     0.0    1.5    0.0    0.00    0.02
 1991 217    26    23     0.2     0.0     0.2    0.00    5.14      0.0     0.0     0.2     0.0    5.70    2.65     0.0    1.5    0.0    0.00    0.02
 1991 218    27    24     0.2     0.0     0.2    0.00    5.14      0.0     0.0     0.2     0.0    5.70    2.65     0.0    1.5    0.0    0.00    0.02
 1991 219    28    25     0.2     0.0     0.2    0.00    5.14      0.0     0.1     0.2     0.0    5.70    2.65     0.0    1.5    0.0    0.00    0.02
 1991 220    29    26     0.2     0.0     0.2    0.00    5.14      0.0     0.1     0.2     0.0    5.70    2.65     0.0    1.5    0.0    0.00    0.02
 1991 221    30    27     0.2     0.0     0.2    0.00    5.15      0.0     0.1     0.2     0.0    5.71    2.65     0.0    1.5    0.0    0.00    0.03
 1991 222    31    28     0.3     0.0     0.3    0.00    5.16      0.0     0.1     0.2     0.0    5.71    2.65     0.0    1.5    0.0    0.00    0.03
 1991 223    32    29     0.3     0.0     0.3    0.00    5.16      0.0     0.1     0.2     0.0    5.71    2.65     0.0    1.5    0.0    0.00    0.03
 1991 224    33    30     0.3     0.0     0.3    0.00    5.15      0.0     0.1     0.2     0.0    5.71    2.65     0.0    1.5    0.0    0.00    0.03
 1991 225    34    31     0.3     0.0     0.3    0.00    5.14      0.0     0.1     0.2     0.0    5.71    2.65     0.0    1.5    0.0    0.00    0.03
 1991 226    35    32     0.3     0.0     0.3    0.00    5.11      0.1     0.1     0.3     0.0    5.71    2.65     0.0    1.5    0.0    0.00    0.03
 1991 227    36    33     0.3     0.0     0.3    0.00    5.08      0.1     0.2     0.3     0.0    5.71    2.65     0.0    1.5    0.0    0.00    0.03
 1991 228    37    34     0.3     0.0     0.3    0.00    5.04      0.1     0.2     0.3     0.0    5.71    2.65     0.0    1.5    0.0    0.00    0.03
 1991 229    38    35     0.3     0.0     0.3    0.00    5.00      0.1     0.2     0.3     0.0    5.72    2.65     0.0    1.5    0.0    0.00    0.03
 1991 230    39    36     0.4     0.0     0.4    0.00    4.97      0.1     0.2     0.3     0.0    5.72    2.66     0.0    1.5    0.0    0.00    0.03
 1991 231    40    37     0.4     0.0     0.4    0.00    4.93      0.1     0.3     0.3     0.1    5.72    2.66     0.0    1.5    0.0    0.00    0.03
 1991 232    41    38     0.4     0.0     0.4    0.00    4.95      0.1     0.3     0.4     0.1    5.72    2.66     0.0    1.5    0.0    0.00    0.04
 1991 233    42    39     0.5     0.0     0.5    0.00    4.97      0.1     0.4     0.4     0.1    5.72    2.66     0.0    1.5    0.0    0.00    0.04
 1991 234    43    40     0.5     0.0     0.5    0.00    4.97      0.1     0.4     0.4     0.1    5.72    2.66     0.0    1.5    0.0    0.00    0.04
 1991 235    44    41     0.6     0.0     0.6    0.00    4.96      0.1     0.5     0.5     0.1    5.72    2.66     0.0    1.5    0.0    0.00    0.04
 1991 236    45    42     0.6     0.0     0.6    0.00    4.95      0.1     0.6     0.5     0.1    5.72    2.66     0.0    1.5    0.0    0.00    0.04
 1991 237    46    43     0.7     0.0     0.7    0.00    4.92      0.1     0.7     0.6     0.1    5.72    2.66     0.0    1.5    0.0    0.00    0.04
 1991 238    47    44     0.7     0.0     0.7    0.00    4.94      0.1     0.7     0.6     0.1    5.72    2.66     0.0    1.5    0.0    0.00    0.04
 1991 239    48    45     0.7     0.0     0.7    0.00    4.96      0.1     0.7     0.6     0.1    5.72    2.66     0.0    1.5    0.0    0.00    0.05
 1991 240    49    46     0.8     0.0     0.8    0.00    4.96      0.1     0.8     0.7     0.1    5.72    2.66     0.0    1.5    0.0    0.00    0.05
 1991 241    50    47     0.9     0.0     0.9    0.00    4.94      0.1     0.9     0.7     0.1    5.72    2.66     0.0    1.5    0.0    0.00    0.05
 1991 242    51    48     0.9     0.0     0.9    0.00    4.92      0.1     1.0     0.8     0.1    5.72    2.66     0.0    1.5    0.0    0.00    0.05
 1991 243    52    49     1.0     0.0     1.0    0.00    4.93      0.1     1.0     0.8     0.1    5.72    2.66     0.0    1.5    0.0    0.00    0.05
 1991 244    53    50     1.0     0.0     1.0    0.00    4.92      0.1     1.1     0.9     0.1    5.72    2.66     0.0    1.5    0.0    0.00    0.05
 1991 245    54    51     1.1     0.0     1.1    0.00    4.93      0.1     1.1     0.9     0.2    5.72    2.66     0.0    1.5    0.0    0.00    0.05
 1991 246    55    52     1.2     0.0     1.2    0.00    4.89      0.1     1.3     1.0     0.2    5.72    2.66     0.0    1.5    0.0    0.00    0.06
 1991 247    56    53     1.3     0.0     1.3    0.00    4.84      0.1     1.5     1.1     0.2    5.72    2.66     0.0    1.5    0.0    0.00    0.06
 1991 248    57    54     1.5     0.0     1.5    0.00    4.77      0.1     1.7     1.3     0.3    5.72    2.66     0.0    1.5    0.0    0.00    0.06
 1991 249    58    55     1.6     0.0     1.6    0.00    4.76      0.1     1.8     1.3     0.3    5.72    2.66     0.0    1.5    0.0    0.00    0.06
 1991 250    59    56     1.7     0.0     1.7    0.00    4.76      0.1     1.9     1.4     0.3    5.73    2.66     0.0    1.5    0.0    0.00    0.07
 1991 251    60    57     1.8     0.0     1.8    0.00    4.77      0.1     2.0     1.5     0.3    5.73    2.66     0.0    1.5    0.0    0.00    0.07
 1991 252    61    58     1.9     0.0     1.9    0.00    4.71      0.1     2.2     1.6     0.4    5.72    2.66     0.0    1.5    0.0    0.00    0.07
 1991 253    62    59     2.2     0.0     2.2    0.00    4.66      0.1     2.5     1.7     0.4    5.72    2.66     0.0    1.5    0.0    0.00    0.07
 1991 254    63    60     2.4     0.0     2.4    0.00    4.60      0.1     2.8     1.9     0.5    5.72    2.66     0.0    1.5    0.0    0.00    0.07
 1991 255    64    61     2.7     0.0     2.7    0.00    4.52      0.1     3.2     2.1     0.6    5.72    2.66     0.0    1.5    0.0    0.00    0.08
 1991 256    65    62     3.0     0.0     3.0    0.00    4.45      0.1     3.6     2.3     0.7    5.73    2.66     0.0    1.5    0.0    0.00    0.08
 1991 257    66    63     3.1     0.0     3.1    0.00    4.44      0.1     3.7     2.4     0.8    5.73    2.66     0.0    1.5    0.0    0.00    0.09
 1991 258    67    64     3.2     0.0     3.2    0.00    4.45      0.1     3.8     2.4     0.8    5.73    2.66     0.0    1.5    0.0    0.00    0.09
 1991 259    68    65     3.6     0.0     3.6    0.00    4.45      0.2     4.2     2.7     0.9    5.73    2.66     0.0    1.5    0.0    0.00    0.10
 1991 260    69    66     3.8     0.0     3.8    0.00    4.45      0.2     4.4     2.8     0.9    5.73    2.66     0.0    1.5    0.0    0.00    0.10
 1991 261    70    67     4.2     0.0     4.2    0.00    4.41      0.2     4.9     3.1     1.0    5.69    2.64     0.0    1.5    0.0    0.00    0.11
 1991 262    71    68     4.6     0.0     4.6    0.00    4.42      0.2     5.4     3.5     1.2    5.70    2.64     0.0    1.5    0.0    0.00    0.11
 1991 263    72    69     5.1     0.0     5.1    0.00    4.41      0.2     5.9     3.8     1.3    5.70    2.64     0.0    1.5    0.0    0.00    0.12
 1991 264    73    70     5.6     0.0     5.6    0.00    4.41      0.2     6.5     4.2     1.4    5.70    2.64     0.0    1.5    0.0    0.00    0.12
 1991 265    74    71     6.2     0.0     6.2    0.00    4.41      0.2     7.2     4.6     1.6    5.70    2.65     0.0    1.5    0.0    0.00    0.13
 1991 266    75    72     6.7     0.0     6.7    0.00    4.40      0.2     7.8     5.0     1.7    5.70    2.65     0.0    1.5    0.0    0.00    0.13
 1991 267    76    73     7.3     0.0     7.3    0.00    4.40      0.3     8.5     5.4     1.9    5.70    2.65     0.0    1.5    0.0    0.00    0.13
 1991 268    77    74     8.0     0.0     8.0    0.00    4.39      0.3     9.3     5.9     2.1    5.70    2.65     0.0    1.5    0.0    0.00    0.14
 1991 269    78    75     8.9     0.0     8.9    0.00    4.38      0.3    10.3     6.6     2.3    5.71    2.65     0.0    1.5    0.0    0.00    0.14
 1991 270    79    76     9.9     0.0     9.9    0.00    4.37      0.3    11.5     7.3     2.6    5.71    2.65     0.0    1.5    0.0    0.00    0.15
 1991 271    80    77    10.7     0.0    10.7    0.00    4.37      0.3    12.5     7.9     2.9    5.71    2.65     0.0    1.5    0.0    0.00    0.16
 1991 272    81    78    11.6     0.0    11.6    0.00    4.36      0.3    13.4     8.5     3.1    5.71    2.65     0.0    1.5    0.0    0.00    0.16
 1991 273    82    79    12.7     0.0    12.7    0.00    4.35      0.4    14.7     9.2     3.4    5.71    2.65     0.0    1.5    0.0    0.00    0.17
 1991 274    83    80    13.6     0.0    13.6    0.00    4.35      0.4    15.7     9.9     3.7    5.71    2.65     0.0    1.5    0.0    0.00    0.17
 1991 275    84    81    14.5     0.0    14.5    0.00    4.34      0.4    16.8    10.6     4.0    5.71    2.65     0.0    1.5    0.0    0.00    0.18
 1991 276    85    82    15.6     0.0    15.6    0.00    4.33      0.4    18.1    11.3     4.3    5.71    2.65     0.0    1.5    0.0    0.00    0.18
 1991 277    86    83    16.8     0.0    16.8    0.00    4.33      0.4    19.4    12.1     4.7    5.71    2.65     0.0    1.5    0.0    0.00    0.19
 1991 278    87    84    17.2     0.0    17.2    0.00    4.33      0.4    19.9    12.4     4.8    5.71    2.65     0.0    1.5    0.0    0.00    0.21
 1991 279    88    85    17.8     0.0    17.8    0.00    4.32      0.4    20.6    12.8     5.0    5.71    2.65     0.0    1.5    0.0    0.00    0.22
 1991 280    89    86    18.5     0.0    18.5    0.00    4.32      0.4    21.3    13.3     5.2    5.71    2.65     0.0    1.5    0.0    0.00    0.23
 1991 281    90    87    19.5     0.0    19.5    0.00    4.31      0.4    22.5    14.0     5.5    5.71    2.65     0.0    1.5    0.0    0.00    0.23
 1991 282    91    88    20.9     0.0    20.9    0.00    4.31      0.5    24.1    15.0     5.9    5.71    2.65     0.0    1.5    0.0    0.00    0.24
 1991 283    92    89    22.7     0.0    22.7    0.00    4.29      0.5    26.2    16.2     6.5    5.71    2.65     0.0    1.5    0.0    0.00    0.25
 1991 284    93    90    24.8     0.0    24.8    0.00    4.28      0.5    28.6    17.7     7.2    5.71    2.65     0.0    1.5    0.0    0.00    0.27
 1991 285    94    91    27.4     0.0    27.4    0.00    4.26      0.6    31.6    19.4     8.0    5.71    2.64     0.0    1.5    0.0    0.00    0.29
 1991 286    95    92    29.8     0.0    29.8    0.00    4.24      0.6    34.5    21.0     8.8    5.71    2.64     0.0    1.5    0.0    0.01    0.32
 1991 287    96    93    31.6     0.0    31.6    0.00    4.24      0.7    36.5    22.1     9.4    5.72    2.64     0.0    1.5    0.0    0.04    0.36
 1991 288    97    94    32.9     0.0    32.9    0.00    4.23      0.7    38.1    23.0     9.9    5.73    2.64     0.0    1.5    0.0    0.07    0.45
 1991 289    98    95    33.6     0.0    33.6    0.00    4.20      0.7    39.1    23.5    10.2    5.71    2.61     0.0    1.5    0.0    0.10    0.64
 1991 290    99    96    35.1     0.0    35.1    0.00    4.19      0.7    41.0    24.4    10.7    5.71    2.61     0.0    1.5    0.0    0.10    0.65
 1991 291   100    97    37.8     0.0    37.8    0.00    4.17      0.8    44.2    26.2    11.7    5.70    2.60     0.0    1.5    0.0    0.10    0.66
 1991 292   101    98    41.1     0.0    41.1    0.00    4.15      0.8    48.3    28.3    12.9    5.71    2.60     0.0    1.5    0.0    0.14    0.69
 1991 293   102    99    44.6     0.0    44.6    0.00    4.13      0.9    52.4    30.5    14.2    5.71    2.58     0.0    1.5    0.0    0.20    0.72
 1991 294   103   100    48.3     0.0    48.3    0.00    4.10      0.9    56.7    32.8    15.5    5.71    2.57     0.0    1.5    0.0    0.25    0.81
 1991 295   104   101    51.9     0.0    51.9    0.00    4.09      0.9    60.8    35.0    16.9    5.72    2.57     0.0    1.5    0.0    0.30    0.92
 1991 296   105   102    53.5     0.0    53.4    0.00    4.11      0.9    62.8    35.9    17.5    5.76    2.58     4.0    1.5    0.0    0.36    0.99
 1991 297   106   103    54.9     0.0    54.5    0.00    4.12      0.9    64.5    36.6    18.0    5.79    2.60     4.0    1.5    0.0    0.41    1.06
 1991 298   107   104    56.6     0.0    56.0    0.00    4.13      0.9    66.5    37.5    18.5    5.81    2.60     4.0    1.5    0.0    0.47    1.14
 1991 299   108   105    60.1     0.0    59.1    0.00    4.06      0.9    70.5    39.3    19.8    5.77    2.56     4.0    1.5    0.0    0.59    1.22
 1991 300   109   106    62.3     0.0    60.7    0.00    4.02      0.9    73.0    40.2    20.5    5.74    2.53     4.0    1.5    0.0    0.63    1.30
 1991 301   110   107    64.3     0.0    61.8    0.00    4.02      0.9    75.1    40.8    21.0    5.75    2.54     4.0    1.5    0.0    0.64    1.37
 1991 302   111   108    65.5     0.0    62.2    0.00    4.00      0.9    76.5    41.0    21.1    5.73    2.52     4.0    1.5    0.0    0.66    1.43
 1991 303   112   109    66.9     0.0    62.6    0.00    3.98      0.9    78.0    41.2    21.3    5.72    2.51     4.0    1.5    0.0    0.69    1.50
 1991 304   113   110    68.0     0.0    62.7    0.00    3.93      0.9    79.2    41.2    21.4    5.67    2.47     3.9    1.5    0.0    0.75    1.56
 1991 305   114   111    68.7     0.0    62.2    0.00    3.70      1.2    79.8    41.0    21.3    5.50    2.27     3.9    1.5    0.3    0.80    1.60
 1991 306   115   112    69.6     0.0    61.9    0.00    3.50      1.6    80.6    40.8    21.2    5.34    2.11     3.9    1.4    0.3    0.85    1.64
 1991 307   116   113    70.8     0.0    61.8    0.00    3.36      2.0    81.6    40.7    21.2    5.23    1.99     3.8    1.4    0.4    0.90    1.68
 1991 308   117   114    71.5     0.0    61.1    0.00    3.09      2.5    82.0    40.2    20.9    5.01    1.78     3.8    1.4    0.4    0.95    1.72
 1991 309   118   115    72.4     0.0    60.4    0.00    2.94      3.1    82.4    39.7    20.6    4.89    1.67     3.7    1.4    0.5    1.01    1.77
 1991 310   119   116    74.0     0.0    60.2    0.00    2.92      3.4    84.0    39.6    20.7    4.85    1.65     3.7    1.4    0.2    1.06    1.82
 1991 311   120   117    75.4     0.0    59.7    0.00    2.78      4.1    84.7    39.2    20.5    4.74    1.55     3.6    1.4    0.6    1.11    1.86
 1991 312   121   118    76.7     0.0    59.2    0.00    2.70      4.9    85.4    38.9    20.3    4.66    1.49     3.6    1.4    0.7    1.16    1.90
 1991 313   122   119    77.7     0.0    58.6    0.00    2.55      5.8    85.7    38.5    20.1    4.54    1.39     3.6    1.3    0.8    1.20    1.94
 1991 314   123   120    79.3     0.0    58.3    0.00    2.50      6.9    86.4    38.3    20.0    4.48    1.35     3.5    1.3    0.9    1.24    1.98
 1991 315   124   121    81.0     0.0    58.4    0.00    2.48      8.0    87.3    38.3    20.2    4.46    1.35     3.5    1.3    1.0    1.30    2.02
 1991 316   125   122    82.6     0.0    58.8    0.00    2.44      9.3    87.9    38.4    20.4    4.41    1.33     3.5    1.3    1.1    1.35    2.04
 1991 317   126   123    83.3     0.0    59.2    0.00    2.43     10.6    88.7    38.5    20.6    4.39    1.32     3.4    1.3    1.2    2.60    2.07
 1991 318   127   124    84.0     0.1    58.3    6.37    2.41     10.7    89.8    38.0    20.3    4.36    1.31     3.4    1.3    0.1    3.10    2.10
 1991 319   128   125    85.4     0.3    57.8    6.28    2.40     12.2    90.3    37.6    20.2    4.34    1.30     3.4    1.3    1.2    3.39    2.15
 1991 320   129   126    86.5     0.6    57.5    6.26    2.34     13.8    90.6    37.4    20.1    4.28    1.27     3.4    1.3    1.4    4.02    2.19
 1991 321   130   127    88.7     0.8    57.7    6.27    2.30     15.7    91.2    37.4    20.3    4.24    1.25     3.4    1.3    1.7    4.08    2.22
 1991 322   131   128    88.2     1.1    57.6    6.24    2.24     18.0    91.4    37.3    20.3    4.17    1.21     3.4    1.3    2.0    6.56    2.27
 1991 323   132   129    89.8     1.6    58.4    6.24    2.24     20.6    92.6    37.6    20.8    4.16    1.22     3.3    1.2    2.3    8.34    2.32
 1991 324   133   130    91.8     2.3    58.6    6.23    2.21     23.5    93.1    37.6    21.0    4.13    1.21     3.3    1.2    2.6    9.32    2.36
 1991 325   134   131    94.4     3.1    58.9    6.22    2.18     26.9    93.4    37.7    21.2    4.09    1.19     3.3    1.2    3.0    9.88    2.41
 1991 326   135   132    98.2     3.8    60.2    6.24    2.20     30.1    94.6    38.2    22.0    4.10    1.22     3.3    1.2    3.2   10.33    2.48
 1991 327   136   133   100.2     4.7    60.6    6.31    2.20     34.0    94.9    38.2    22.3    4.10    1.22     3.3    1.2    3.4   11.50    2.55
 1991 328   137   134   100.1     5.6    59.6    6.31    2.18     34.6    95.7    37.6    22.0    4.07    1.22     3.3    1.2    0.6   13.02    2.58
 1991 329   138   135    99.7     6.7    58.7    6.31    2.17     35.5    96.5    37.0    21.6    4.05    1.21     3.3    1.2    0.9   14.75    2.64
 1991 330   139   136   100.4     7.8    57.7    6.31    2.16     37.6    97.2    36.5    21.2    4.03    1.20     3.3    1.2    2.1   16.31    2.69
 1991 331   140   137   104.0     9.1    58.2    6.31    2.17     40.9    97.7    36.6    21.6    4.04    1.22     3.3    1.2    3.2   16.37    2.73
 1991 332   141   138   106.7    10.5    58.4    6.30    2.17     44.4    98.2    36.6    21.9    4.03    1.23     3.3    1.2    3.3   17.43    2.79
 1991 333   142   139   107.1    12.1    57.5    6.29    2.16     47.4    98.6    36.0    21.6    4.01    1.22     3.3    1.2    3.0   19.89    2.85
 1991 334   143   140   109.9    13.9    57.6    6.29    2.16     51.9    99.2    35.9    21.7    4.00    1.22     3.3    1.2    4.0   20.91    2.91
 1991 335   144   141   111.9    15.6    57.3    6.28    2.15     56.0    99.8    35.6    21.7    3.99    1.22     3.3    1.2    4.1   22.45    2.96
 1991 336   145   142   113.7    17.5    57.2    6.28    2.14     60.2   100.6    35.4    21.8    3.97    1.23     3.2    1.2    4.3   24.40    3.02
 1991 337   146   143   115.4    19.7    56.0    6.27    2.13     62.5   101.7    34.7    21.3    3.95    1.22     3.2    1.2    2.3   25.64    3.08
 1991 338   147   144   118.5    21.9    55.5    6.28    2.12     67.0   102.3    34.3    21.2    3.93    1.21     3.2    1.2    4.5   26.37    3.14
 1991 339   148   145   120.8    24.3    54.3    6.28    2.10     69.4   103.0    33.6    20.7    3.90    1.21     3.2    1.2    2.4   26.74    3.20
 1991 340   149   146   123.4    26.7    53.6    6.30    2.09     73.3   104.1    33.1    20.5    3.88    1.20     3.2    1.2    3.9   27.79    3.27
 1991 341   150   147   125.3    29.3    52.4    6.30    2.08     76.3   104.5    32.4    20.0    3.85    1.19     3.2    1.2    3.0   28.82    3.33
 1991 342   151   148   127.8    31.9    51.7    6.31    2.07     79.7   105.9    31.9    19.8    3.82    1.19     3.1    1.2    3.4   29.95    3.39
 1991 343   152   149   127.9    34.8    50.6    6.30    2.05     80.8   106.6    31.2    19.4    3.79    1.18     3.1    1.1    1.1   31.49    3.44
 1991 344   153   150   130.3    37.9    49.5    6.30    2.03     85.1   107.1    30.6    18.9    3.76    1.17     3.1    1.1    4.2   32.63    3.52
 1991 345   154   151   131.3    41.2    48.3    6.29    2.01     88.0   107.8    29.9    18.5    3.73    1.15     3.1    1.1    3.0   34.92    3.58
 1991 346   155   152   133.2    44.9    47.2    6.28    1.99     89.0   108.8    29.2    18.0    3.70    1.14     3.0    1.1    1.0   34.98    3.62
 1991 347   156   153   136.1    48.5    46.4    6.28    1.98     93.3   109.6    28.7    17.8    3.67    1.13     3.0    1.1    4.3   35.93    3.67
 1991 348   157   154   136.7    52.4    45.4    6.27    1.96     94.5   110.3    28.0    17.3    3.63    1.12     2.9    1.1    1.1   37.12    3.74
 1991 349   158   155   137.9    56.4    44.3    6.28    1.93     95.8   110.8    27.4    16.9    3.60    1.11     2.8    1.1    1.3   37.79    3.78
 1991 350   159   156   140.8    60.7    43.0    6.27    1.91     98.8   111.6    26.6    16.4    3.55    1.09     2.8    1.1    3.0   38.21    3.83
 1991 351   160   157   144.3    65.2    42.0    6.27    1.88    102.0   112.4    26.0    16.0    3.51    1.07     2.8    1.1    3.2   38.65    3.88
 1991 352   161   158   147.5    69.7    40.8    6.28    1.86    105.6   113.0    25.3    15.5    3.47    1.06     2.7    1.1    3.6   39.23    3.93
 1991 353   162   159   150.4    74.4    39.7    6.29    1.83    108.4   113.9    24.6    15.1    3.43    1.04     2.7    1.1    2.8   39.76    3.98
 1991 354   163   160   153.6    79.3    38.6    6.30    1.81    112.2   114.4    23.9    14.7    3.38    1.03     2.6    1.1    3.8   40.48    4.04
 1991 355   164   161   156.7    84.4    37.5    6.31    1.78    115.2   115.2    23.3    14.2    3.34    1.01     2.6    1.1    3.0   40.95    4.09
 1991 356   165   162   158.1    88.5    36.5    6.32    1.76    116.0   116.3    22.6    13.8    3.30    1.00     2.5    1.1    0.7   41.42    4.14
 1991 357   166   163   161.4    94.2    35.4    6.33    1.73    119.5   116.6    22.0    13.4    3.25    0.98     2.5    1.0    3.5   41.82    4.19
 1991 358   167   164   164.9   100.0    34.4    6.35    1.70    123.0   117.2    21.3    13.0    3.20    0.96     2.4    1.0    3.5   42.23    4.24
 1991 359   168   165   168.3   105.6    33.4    6.35    1.68    125.6   118.2    20.8    12.7    3.16    0.95     2.3    1.0    2.6   42.53    4.29
 1991 360   169   166   171.6   110.9    32.6    6.37    1.65    128.7   118.8    20.2    12.3    3.11    0.93     2.3    1.0    3.1   42.86    4.32
 1991 361   170   167   175.5   116.5    31.7    6.36    1.63    131.7   119.9    19.7    12.0    3.07    0.92     2.2    1.0    3.1   43.11    4.35
 1991 362   171   168   179.7   122.5    30.9    6.36    1.60    134.9   121.0    19.2    11.7    3.03    0.90     2.1    1.0    3.2   43.16    4.39
 1991 363   172   169   183.7   128.5    30.0    6.37    1.57    138.5   121.6    18.6    11.3    2.98    0.88     2.1    1.0    3.6   43.39    4.43
 1991 364   173   170   183.9   130.5    29.1    6.28    1.51    138.5   121.9    18.1    11.0    2.90    0.84     2.0    1.0    0.0   43.52    4.47
 1991 365   174   171   180.5   133.4    24.0    6.20    1.40    138.5   122.9    13.9    10.0    2.82    0.82     1.9    1.0    0.0   47.86    4.52
 1992 001   175   172   177.5   135.3    20.0    6.18    1.30    138.5   123.4    10.8     9.3    2.76    0.81     1.9    1.0    0.0   51.25    4.56
 1992 002   176   173   175.4   137.0    17.0    6.12    1.21    138.5   123.8     8.4     8.7    2.70    0.79     1.8    1.0    0.0   53.83    4.61
 1992 003   177   174   174.4   139.1    14.7    6.10    1.13    138.5   124.9     6.5     8.2    2.65    0.78     1.8    1.0    0.0   55.79    4.64
 1992 004   178   175   173.8   140.9    12.8    6.07    1.06    138.5   125.9     5.1     7.8    2.61    0.77     1.7    1.0    0.0   57.31    4.67
 1992 005   179   176   173.0   142.2    11.4    6.05    1.00    138.5   126.4     3.9     7.4    2.56    0.76     1.7    1.0    0.0   58.53    4.71
 1992 006   180   177   172.3   143.3    10.2    6.06    0.95    138.5   126.6     3.1     7.1    2.52    0.75     1.6    1.0    0.0   59.48    5.07
 1992 007   181   178   171.7   144.2     9.3    6.06    0.90    138.5   126.7     2.4     6.9    2.47    0.74     1.6    1.0    0.0   60.22    5.42
 1992 008   182   179   171.1   144.6     8.6    6.06    0.87    138.5   126.7     1.9     6.7    2.46    0.73     1.6    1.0    0.0   60.78    5.76
 1992 009   183   180   170.7   144.6     8.2    6.06    0.85    138.5   126.7     1.5     6.6    2.46    0.74     1.6    1.0    0.0   61.22    6.08
 1992 010   184   181   170.3   144.6     7.8    6.06    0.83    138.5   126.7     1.2     6.6    2.47    0.74     1.6    1.0    0.0   61.58    6.37
 1992 011   185   182   170.1   144.7     7.5    6.06    0.82    138.5   126.7     1.0     6.5    2.48    0.74     1.6    1.0    0.0   61.86    6.64

*DSSAT Cropping System Model Ver. 4.0.2.000               Aug 12, 2016; 09:16:44

*RUN   3        : UYSB                    
 MODEL          : CRGRO040 - Soybean         
 EXPERIMENT     : UYSB0192 SB    late to create DSS                             
 TREATMENT  1   : UYSB                    

@YEAR DOY   DAS   DAP    CNAD    GNAD    VNAD    GN%D    VN%D     NFXC    NUPC    LNAD    SNAD    LN%D    SN%D    SHND   RN%D   NFXD   SNN0C   SNN1C
 1992 194     3     0     0.0     0.0     0.0    0.00    0.00      0.0     0.0     0.0     0.0    0.00    0.00     0.0    0.0    0.0    0.00    0.00
 1992 195     4     1     0.0     0.0     0.0    0.00    0.00      0.0     0.0     0.0     0.0    0.00    0.00     0.0    0.0    0.0    0.00    0.00
 1992 196     5     2     0.0     0.0     0.0    0.00    0.00      0.0     0.0     0.0     0.0    0.00    0.00     0.0    0.0    0.0    0.00    0.00
 1992 197     6     3     0.0     0.0     0.0    0.00    0.00      0.0     0.0     0.0     0.0    0.00    0.00     0.0    0.0    0.0    0.00    0.00
 1992 198     7     4     0.0     0.0     0.0    0.00    0.00      0.0     0.0     0.0     0.0    0.00    0.00     0.0    0.0    0.0    0.00    0.00
 1992 199     8     5     0.0     0.0     0.0    0.00    0.00      0.0     0.0     0.0     0.0    0.00    0.00     0.0    0.0    0.0    0.00    0.00
 1992 200     9     6     0.0     0.0     0.0    0.00    0.00      0.0     0.0     0.0     0.0    0.00    0.00     0.0    0.0    0.0    0.00    0.00
 1992 201    10     7     0.0     0.0     0.0    0.00    0.00      0.0     0.0     0.0     0.0    0.00    0.00     0.0    0.0    0.0    0.00    0.00
 1992 202    11     8     0.0     0.0     0.0    0.00    0.00      0.0     0.0     0.0     0.0    0.00    0.00     0.0    0.0    0.0    0.00    0.00
 1992 203    12     9     0.0     0.0     0.0    0.00    0.00      0.0     0.0     0.0     0.0    0.00    0.00     0.0    0.0    0.0    0.00    0.00
 1992 204    13    10     0.0     0.0     0.0    0.00    0.00      0.0     0.0     0.0     0.0    0.00    0.00     0.0    0.0    0.0    0.00    0.00
 1992 205    14    11     0.0     0.0     0.0    0.00    0.00      0.0     0.0     0.0     0.0    0.00    0.00     0.0    0.0    0.0    0.00    0.00
 1992 206    15    12     0.0     0.0     0.0    0.00    0.00      0.0     0.0     0.0     0.0    0.00    0.00     0.0    0.0    0.0    0.00    0.00
 1992 207    16    13     0.0     0.0     0.0    0.00    0.00      0.0     0.0     0.0     0.0    0.00    0.00     0.0    0.0    0.0    0.00    0.00
 1992 208    17    14     0.0     0.0     0.0    0.00    0.00      0.0     0.0     0.0     0.0    0.00    0.00     0.0    0.0    0.0    0.00    0.00
 1992 209    18    15     0.0     0.0     0.0    0.00    0.00      0.0     0.0     0.0     0.0    0.00    0.00     0.0    0.0    0.0    0.00    0.00
 1992 210    19    16     0.0     0.0     0.0    0.00    0.00      0.0     0.0     0.0     0.0    0.00    0.00     0.0    0.0    0.0    0.00    0.00
 1992 211    20    17     0.0     0.0     0.0    0.00    0.00      0.0     0.0     0.0     0.0    0.00    0.00     0.0    0.0    0.0    0.00    0.00
 1992 212    21    18     0.0     0.0     0.0    0.00    0.00      0.0     0.0     0.0     0.0    0.00    0.00     0.0    0.0    0.0    0.00    0.00
 1992 213    22    19     0.0     0.0     0.0    0.00    0.00      0.0     0.0     0.0     0.0    0.00    0.00     0.0    0.0    0.0    0.00    0.00
 1992 214    23    20     0.0     0.0     0.0    0.00    0.00      0.0     0.0     0.0     0.0    0.00    0.00     0.0    0.0    0.0    0.00    0.00
 1992 215    24    21     0.0     0.0     0.0    0.00    0.00      0.0     0.0     0.0     0.0    0.00    0.00     0.0    0.0    0.0    0.00    0.00
 1992 216    25    22     0.2     0.0     0.2    0.00    5.15      0.0     0.0     0.2     0.0    5.70    2.64     0.0    1.5    0.0    0.00    0.00
 1992 217    26    23     0.2     0.0     0.2    0.00    5.15      0.0     0.0     0.2     0.0    5.70    2.64     0.0    1.5    0.0    0.00    0.01
 1992 218    27    24     0.2     0.0     0.2    0.00    5.15      0.0     0.0     0.2     0.0    5.70    2.64     0.0    1.5    0.0    0.00    0.01
 1992 219    28    25     0.2     0.0     0.2    0.00    5.14      0.0     0.0     0.2     0.0    5.70    2.64     0.0    1.5    0.0    0.00    0.01
 1992 220    29    26     0.2     0.0     0.2    0.00    5.14      0.0     0.0     0.2     0.0    5.70    2.64     0.0    1.5    0.0    0.00    0.01
 1992 221    30    27     0.2     0.0     0.2    0.00    5.14      0.0     0.0     0.2     0.0    5.70    2.65     0.0    1.5    0.0    0.00    0.01
 1992 222    31    28     0.2     0.0     0.2    0.00    5.13      0.0     0.1     0.2     0.0    5.70    2.65     0.0    1.5    0.0    0.00    0.02
 1992 223    32    29     0.2     0.0     0.2    0.00    5.14      0.0     0.1     0.2     0.0    5.70    2.65     0.0    1.5    0.0    0.00    0.02
 1992 224    33    30     0.2     0.0     0.2    0.00    5.13      0.0     0.1     0.2     0.0    5.70    2.65     0.0    1.5    0.0    0.00    0.02
 1992 225    34    31     0.3     0.0     0.3    0.00    5.12      0.0     0.1     0.2     0.0    5.70    2.65     0.0    1.5    0.0    0.00    0.02
 1992 226    35    32     0.3     0.0     0.3    0.00    5.11      0.0     0.1     0.2     0.0    5.70    2.65     0.0    1.5    0.0    0.00    0.02
 1992 227    36    33     0.3     0.0     0.3    0.00    5.10      0.0     0.1     0.2     0.0    5.71    2.65     0.0    1.5    0.0    0.00    0.02
 1992 228    37    34     0.3     0.0     0.3    0.00    5.09      0.1     0.1     0.3     0.0    5.71    2.65     0.0    1.5    0.0    0.00    0.02
 1992 229    38    35     0.3     0.0     0.3    0.00    5.07      0.1     0.2     0.3     0.0    5.71    2.65     0.0    1.5    0.0    0.00    0.02
 1992 230    39    36     0.3     0.0     0.3    0.00    5.05      0.1     0.2     0.3     0.0    5.71    2.65     0.0    1.5    0.0    0.00    0.03
 1992 231    40    37     0.3     0.0     0.3    0.00    5.03      0.1     0.2     0.3     0.0    5.71    2.65     0.0    1.5    0.0    0.00    0.03
 1992 232    41    38     0.3     0.0     0.3    0.00    5.01      0.1     0.2     0.3     0.0    5.71    2.65     0.0    1.5    0.0    0.00    0.03
 1992 233    42    39     0.4     0.0     0.4    0.00    4.99      0.1     0.3     0.3     0.0    5.71    2.65     0.0    1.5    0.0    0.00    0.03
 1992 234    43    40     0.4     0.0     0.4    0.00    4.96      0.1     0.3     0.3     0.1    5.71    2.65     0.0    1.5    0.0    0.00    0.03
 1992 235    44    41     0.4     0.0     0.4    0.00    4.94      0.1     0.3     0.3     0.1    5.72    2.65     0.0    1.5    0.0    0.00    0.03
 1992 236    45    42     0.4     0.0     0.4    0.00    4.92      0.1     0.3     0.4     0.1    5.72    2.66     0.0    1.5    0.0    0.00    0.03
 1992 237    46    43     0.4     0.0     0.4    0.00    4.89      0.1     0.4     0.4     0.1    5.72    2.66     0.0    1.5    0.0    0.00    0.03
 1992 238    47    44     0.4     0.0     0.4    0.00    4.85      0.1     0.4     0.4     0.1    5.72    2.66     0.0    1.5    0.0    0.00    0.03
 1992 239    48    45     0.5     0.0     0.5    0.00    4.87      0.1     0.4     0.4     0.1    5.72    2.66     0.0    1.5    0.0    0.00    0.03
 1992 240    49    46     0.5     0.0     0.5    0.00    4.89      0.1     0.5     0.5     0.1    5.72    2.66     0.0    1.5    0.0    0.00    0.03
 1992 241    50    47     0.6     0.0     0.6    0.00    4.92      0.1     0.5     0.5     0.1    5.72    2.66     0.0    1.5    0.0    0.00    0.04
 1992 242    51    48     0.6     0.0     0.6    0.00    4.93      0.1     0.6     0.5     0.1    5.72    2.66     0.0    1.5    0.0    0.00    0.04
 1992 243    52    49     0.6     0.0     0.6    0.00    4.94      0.1     0.6     0.6     0.1    5.72    2.66     0.0    1.5    0.0    0.00    0.04
 1992 244    53    50     0.7     0.0     0.7    0.00    4.96      0.1     0.7     0.6     0.1    5.72    2.66     0.0    1.5    0.0    0.00    0.04
 1992 245    54    51     0.7     0.0     0.7    0.00    4.96      0.1     0.7     0.6     0.1    5.72    2.66     0.0    1.5    0.0    0.00    0.04
 1992 246    55    52     0.7     0.0     0.7    0.00    4.98      0.1     0.7     0.6     0.1    5.72    2.66     0.0    1.5    0.0    0.00    0.05
 1992 247    56    53     0.8     0.0     0.8    0.00    4.96      0.1     0.8     0.7     0.1    5.72    2.66     0.0    1.5    0.0    0.00    0.05
 1992 248    57    54     0.8     0.0     0.8    0.00    4.94      0.1     0.9     0.7     0.1    5.72    2.66     0.0    1.5    0.0    0.00    0.05
 1992 249    58    55     0.9     0.0     0.9    0.00    4.93      0.1     1.0     0.8     0.1    5.72    2.66     0.0    1.5    0.0    0.00    0.05
 1992 250    59    56     1.0     0.0     1.0    0.00    4.93      0.1     1.0     0.8     0.1    5.72    2.66     0.0    1.5    0.0    0.00    0.05
 1992 251    60    57     1.1     0.0     1.1    0.00    4.92      0.1     1.2     0.9     0.1    5.72    2.66     0.0    1.5    0.0    0.00    0.05
 1992 252    61    58     1.1     0.0     1.1    0.00    4.93      0.1     1.2     1.0     0.2    5.72    2.66     0.0    1.5    0.0    0.00    0.05
 1992 253    62    59     1.2     0.0     1.2    0.00    4.91      0.1     1.3     1.0     0.2    5.72    2.66     0.0    1.5    0.0    0.00    0.05
 1992 254    63    60     1.3     0.0     1.3    0.00    4.88      0.1     1.4     1.1     0.2    5.72    2.66     0.0    1.5    0.0    0.00    0.06
 1992 255    64    61     1.3     0.0     1.3    0.00    4.85      0.1     1.5     1.1     0.2    5.72    2.66     0.0    1.5    0.0    0.00    0.06
 1992 256    65    62     1.4     0.0     1.4    0.00    4.82      0.1     1.7     1.2     0.2    5.72    2.66     0.0    1.5    0.0    0.00    0.06
 1992 257    66    63     1.5     0.0     1.5    0.00    4.83      0.1     1.8     1.3     0.2    5.72    2.66     0.0    1.5    0.0    0.00    0.06
 1992 258    67    64     1.7     0.0     1.7    0.00    4.81      0.1     1.9     1.4     0.3    5.72    2.66     0.0    1.5    0.0    0.00    0.06
 1992 259    68    65     1.8     0.0     1.8    0.00    4.78      0.1     2.1     1.5     0.3    5.72    2.66     0.0    1.5    0.0    0.00    0.06
 1992 260    69    66     2.0     0.0     2.0    0.00    4.75      0.1     2.3     1.6     0.4    5.72    2.66     0.0    1.5    0.0    0.00    0.07
 1992 261    70    67     2.1     0.0     2.1    0.00    4.69      0.1     2.5     1.7     0.4    5.72    2.66     0.0    1.5    0.0    0.00    0.07
 1992 262    71    68     2.3     0.0     2.3    0.00    4.67      0.1     2.7     1.9     0.5    5.72    2.66     0.0    1.5    0.0    0.00    0.07
 1992 263    72    69     2.5     0.0     2.5    0.00    4.63      0.1     2.9     2.0     0.5    5.72    2.66     0.0    1.5    0.0    0.00    0.07
 1992 264    73    70     2.7     0.0     2.7    0.00    4.56      0.1     3.2     2.1     0.6    5.72    2.66     0.0    1.5    0.0    0.00    0.08
 1992 265    74    71     3.0     0.0     3.0    0.00    4.51      0.1     3.6     2.3     0.7    5.72    2.66     0.0    1.5    0.0    0.00    0.08
 1992 266    75    72     3.1     0.0     3.1    0.00    4.53      0.1     3.7     2.4     0.7    5.72    2.66     0.0    1.5    0.0    0.00    0.09
 1992 267    76    73     3.3     0.0     3.3    0.00    4.51      0.1     3.9     2.5     0.8    5.72    2.66     0.0    1.5    0.0    0.00    0.09
 1992 268    77    74     3.4     0.0     3.4    0.00    4.53      0.1     4.1     2.6     0.8    5.72    2.66     0.0    1.5    0.0    0.00    0.10
 1992 269    78    75     3.5     0.0     3.5    0.00    4.51      0.2     4.2     2.7     0.8    5.72    2.66     0.0    1.5    0.0    0.00    0.10
 1992 270    79    76     3.7     0.0     3.7    0.00    4.49      0.2     4.4     2.8     0.9    5.72    2.66     0.0    1.5    0.0    0.00    0.10
 1992 271    80    77     3.9     0.0     3.9    0.00    4.45      0.2     4.7     2.9     1.0    5.72    2.66     0.0    1.5    0.0    0.00    0.10
 1992 272    81    78     4.2     0.0     4.2    0.00    4.41      0.2     5.1     3.1     1.1    5.72    2.66     0.0    1.5    0.0    0.00    0.10
 1992 273    82    79     4.5     0.0     4.5    0.00    4.36      0.2     5.4     3.3     1.2    5.72    2.66     0.0    1.5    0.0    0.00    0.11
 1992 274    83    80     4.8     0.0     4.8    0.00    4.30      0.2     5.9     3.5     1.4    5.72    2.66     0.0    1.5    0.0    0.00    0.11
 1992 275    84    81     5.2     0.0     5.2    0.00    4.31      0.2     6.4     3.7     1.5    5.72    2.66     0.0    1.5    0.0    0.00    0.12
 1992 276    85    82     5.6     0.0     5.6    0.00    4.32      0.2     6.8     4.0     1.6    5.72    2.66     0.0    1.5    0.0    0.00    0.12
 1992 277    86    83     6.1     0.0     6.1    0.00    4.33      0.2     7.4     4.4     1.7    5.72    2.66     0.0    1.5    0.0    0.00    0.13
 1992 278    87    84     6.7     0.0     6.7    0.00    4.34      0.2     8.1     4.9     1.9    5.72    2.66     0.0    1.5    0.0    0.00    0.14
 1992 279    88    85     7.0     0.0     7.0    0.00    4.34      0.2     8.4     5.0     1.9    5.72    2.66     0.0    1.5    0.0    0.00    0.15
 1992 280    89    86     7.5     0.0     7.5    0.00    4.34      0.2     9.0     5.4     2.1    5.72    2.66     0.0    1.5    0.0    0.00    0.15
 1992 281    90    87     7.9     0.0     7.9    0.00    4.34      0.2     9.5     5.8     2.2    5.72    2.66     0.0    1.5    0.0    0.00    0.15
 1992 282    91    88     8.5     0.0     8.5    0.00    4.34      0.3    10.2     6.2     2.4    5.72    2.66     0.0    1.5    0.0    0.00    0.16
 1992 283    92    89     9.3     0.0     9.3    0.00    4.34      0.3    11.1     6.7     2.6    5.72    2.66     0.0    1.5    0.0    0.00    0.16
 1992 284    93    90    10.3     0.0    10.3    0.00    4.34      0.3    12.2     7.5     2.8    5.72    2.66     0.0    1.5    0.0    0.00    0.17
 1992 285    94    91    11.3     0.0    11.3    0.00    4.34      0.3    13.3     8.2     3.1    5.72    2.66     0.0    1.5    0.0    0.00    0.18
 1992 286    95    92    12.5     0.0    12.5    0.00    4.34      0.3    14.7     9.0     3.5    5.72    2.66     0.0    1.5    0.0    0.00    0.19
 1992 287    96    93    13.9     0.0    13.9    0.00    4.33      0.4    16.3    10.0     3.9    5.72    2.66     0.0    1.5    0.0    0.00    0.20
 1992 288    97    94    15.6     0.0    15.6    0.00    4.33      0.4    18.3    11.2     4.3    5.72    2.66     0.0    1.5    0.0    0.00    0.21
 1992 289    98    95    16.3     0.0    16.3    0.00    4.33      0.4    19.2    11.7     4.6    5.72    2.66     0.0    1.5    0.0    0.00    0.23
 1992 290    99    96    17.2     0.0    17.2    0.00    4.32      0.4    20.2    12.4     4.9    5.72    2.66     0.0    1.5    0.0    0.00    0.25
 1992 291   100    97    19.0     0.0    19.0    0.00    4.31      0.5    22.2    13.6     5.4    5.72    2.66     0.0    1.5    0.0    0.00    0.26
 1992 292   101    98    20.7     0.0    20.7    0.00    4.30      0.5    24.2    14.8     5.9    5.72    2.66     0.0    1.5    0.0    0.00    0.27
 1992 293   102    99    21.7     0.0    21.7    0.00    4.30      0.5    25.3    15.4     6.2    5.72    2.66     0.0    1.5    0.0    0.00    0.29
 1992 294   103   100    23.4     0.0    23.4    0.00    4.29      0.5    27.3    16.6     6.8    5.72    2.66     0.0    1.5    0.0    0.00    0.30
 1992 295   104   101    25.4     0.0    25.4    0.00    4.28      0.6    29.5    17.9     7.4    5.72    2.66     0.0    1.5    0.0    0.00    0.31
 1992 296   105   102    27.8     0.0    27.8    0.00    4.27      0.6    32.3    19.6     8.2    5.72    2.66     0.0    1.5    0.0    0.00    0.33
 1992 297   106   103    30.8     0.0    30.8    0.00    4.26      0.7    35.8    21.6     9.2    5.73    2.66     0.0    1.5    0.0    0.01    0.35
 1992 298   107   104    34.0     0.0    34.0    0.00    4.25      0.7    39.4    23.7    10.3    5.74    2.67     0.0    1.5    0.0    0.04    0.38
 1992 299   108   105    35.8     0.0    35.8    0.00    4.25      0.8    41.5    24.8    11.0    5.75    2.67     0.0    1.5    0.0    0.07    0.42
 1992 300   109   106    39.5     0.0    39.5    0.00    4.23      0.8    45.8    27.2    12.3    5.75    2.66     0.0    1.5    0.0    0.10    0.45
 1992 301   110   107    43.6     0.0    43.6    0.00    4.21      0.9    50.6    29.8    13.8    5.76    2.65     0.0    1.5    0.0    0.14    0.49
 1992 302   111   108    44.8     0.0    44.8    0.00    4.20      0.9    52.0    30.6    14.2    5.76    2.65     0.0    1.5    0.0    0.16    0.53
 1992 303   112   109    47.8     0.0    47.8    0.00    4.18      1.0    55.7    32.5    15.3    5.75    2.64     0.0    1.5    0.0    0.18    0.55
 1992 304   113   110    51.1     0.0    51.1    0.00    4.16      1.1    59.5    34.6    16.5    5.75    2.63     0.0    1.5    0.0    0.21    0.57
 1992 305   114   111    54.9     0.0    54.9    0.00    4.14      1.1    64.0    37.0    17.9    5.75    2.63     0.0    1.5    0.0    0.24    0.60
 1992 306   115   112    59.4     0.0    59.4    0.00    4.12      1.2    69.3    39.8    19.6    5.75    2.61     0.0    1.5    0.0    0.30    0.63
 1992 307   116   113    64.2     0.0    64.2    0.00    4.10      1.3    75.1    42.8    21.4    5.75    2.61     0.0    1.5    0.0    0.35    0.69
 1992 308   117   114    67.5     0.0    67.5    0.00    4.10      1.4    79.1    44.8    22.7    5.77    2.61     0.0    1.5    0.0    0.41    0.72
 1992 309   118   115    70.0     0.0    70.0    0.00    4.10      1.4    82.1    46.4    23.7    5.78    2.61     0.0    1.5    0.0    0.46    0.75
 1992 310   119   116    72.5     0.0    72.5    0.00    4.10      1.5    85.1    47.9    24.6    5.79    2.61     0.0    1.5    0.0    0.50    0.79
 1992 311   120   117    75.8     0.0    75.8    0.00    4.09      1.5    89.1    49.9    25.9    5.80    2.61     0.0    1.5    0.0    0.55    0.81
 1992 312   121   118    79.8     0.0    79.8    0.00    4.08      1.6    93.7    52.4    27.5    5.80    2.61     0.0    1.5    0.0    0.63    0.85
 1992 313   122   119    84.1     0.0    84.1    0.00    4.04      2.7    97.6    54.9    29.2    5.78    2.58     0.0    1.5    1.0    0.75    0.90
 1992 314   123   120    88.6     0.0    88.6    0.00    3.98      4.4   101.5    57.7    31.0    5.73    2.54     0.0    1.5    1.4    0.82    0.96
 1992 315   124   121    90.4     0.0    90.3    0.00    3.95      4.4   103.5    58.6    31.7    5.71    2.52     4.0    1.5    0.0    0.87    1.15
 1992 316   125   122    92.9     0.0    92.5    0.00    3.83      6.2   104.9    60.0    32.4    5.59    2.41     4.0    1.4    1.6    0.96    1.23
 1992 317   126   123    96.0     0.0    95.1    0.00    3.71      8.4   106.7    61.7    33.4    5.49    2.32     4.0    1.4    1.8    1.05    1.31
 1992 318   127   124    98.8     0.0    97.0    0.00    3.59     10.9   107.9    62.9    34.1    5.38    2.22     3.9    1.4    2.1    1.13    1.39
 1992 319   128   125   102.5     0.0    99.7    0.00    3.55     13.2   109.8    64.4    35.3    5.35    2.20     3.9    1.4    2.4    1.22    1.47
 1992 320   129   126   105.2     0.0   101.0    0.00    3.45     16.2   110.4    65.3    35.8    5.26    2.12     3.9    1.3    2.5    1.32    1.56
 1992 321   130   127   108.4     0.0   102.7    0.00    3.40     19.6   111.0    66.3    36.4    5.20    2.08     3.9    1.3    2.9    1.38    1.61
 1992 322   131   128   112.5     0.0   105.5    0.00    3.38     22.6   112.5    67.9    37.7    5.19    2.07     3.9    1.3    3.0    1.43    1.66
 1992 323   132   129   115.6     0.0   107.4    0.00    3.31     26.5   112.6    69.0    38.4    5.13    2.02     3.9    1.3    3.3    1.49    1.72
 1992 324   133   130   119.8     0.0   109.8    0.00    3.25     30.9   113.4    70.3    39.5    5.06    1.98     3.9    1.3    3.8    1.57    1.80
 1992 325   134   131   123.9     0.0   112.0    0.00    3.22     34.9   114.0    71.4    40.6    5.03    1.97     3.9    1.3    3.9    1.66    1.89
 1992 326   135   132   125.2     0.0   111.3    0.00    3.18     35.3   115.0    71.0    40.3    4.99    1.94     3.8    1.3    0.4    1.73    1.96
 1992 327   136   133   128.9     0.0   113.2    0.00    3.17     38.6   115.8    72.0    41.2    4.98    1.94     3.8    1.3    3.2    1.79    2.02
 1992 328   137   134   132.1     0.0   114.8    0.00    3.15     41.4   116.5    72.9    42.0    4.96    1.93     3.8    1.3    2.8    1.83    2.07
 1992 329   138   135   136.3     0.0   117.0    0.00    3.12     46.3   116.6    74.0    43.0    4.93    1.91     3.8    1.3    4.5    1.91    2.15
 1992 330   139   136   140.2     0.0   118.5    0.00    3.09     50.4   117.1    74.7    43.8    4.90    1.89     3.8    1.3    3.9    2.00    2.23
 1992 331   140   137   143.9     0.0   119.5    0.00    3.05     53.2   118.3    75.2    44.3    4.86    1.87     3.8    1.3    2.7    2.08    2.33
 1992 332   141   138   149.2     0.0   122.1    0.00    3.03     58.4   119.0    76.5    45.6    4.84    1.86     3.8    1.3    5.1    2.17    2.42
 1992 333   142   139   153.4     0.0   123.3    0.00    3.01     62.7   119.2    77.0    46.3    4.82    1.85     3.8    1.3    4.3    2.26    2.52
 1992 334   143   140   157.0     0.0   123.7    0.00    2.98     66.0   119.8    77.1    46.6    4.79    1.84     3.8    1.3    3.3    2.36    2.64
 1992 335   144   141   160.9     0.0   124.3    0.00    2.95     69.2   120.8    77.3    47.0    4.76    1.82     3.8    1.3    3.2    2.47    2.76
 1992 336   145   142   164.8     0.0   125.8    0.00    2.93     73.9   121.4    77.9    47.9    4.74    1.81     3.7    1.3    4.7    3.51    2.85
 1992 337   146   143   168.0     0.1   127.4    6.29    2.91     78.2   122.1    78.6    48.8    4.72    1.80     3.7    1.3    4.3    5.01    2.92
 1992 338   147   144   172.9     0.3   129.1    6.22    2.89     83.2   122.4    79.4    49.8    4.71    1.79     3.7    1.3    5.0    5.11    3.01
 1992 339   148   145   176.1     0.5   130.6    6.21    2.87     87.1   123.6    80.0    50.6    4.68    1.78     3.7    1.3    3.9    6.83    3.12
 1992 340   149   146   176.2     0.9   130.6    6.20    2.84     90.1   124.4    79.8    50.8    4.65    1.76     3.7    1.3    3.0   10.31    3.23
 1992 341   150   147   178.5     1.7   131.3    6.29    2.83     94.6   124.9    80.0    51.3    4.64    1.76     3.7    1.3    4.5   12.83    3.36
 1992 342   151   148   181.2     2.7   131.7    6.25    2.81     98.7   125.9    80.0    51.7    4.63    1.75     3.6    1.3    4.1   14.99    3.47
 1992 343   152   149   183.2     3.8   131.5    6.24    2.79    104.3   126.2    79.8    51.8    4.60    1.74     3.6    1.3    5.5   17.43    3.58
 1992 344   153   150   186.3     5.2   130.7    6.23    2.77    108.5   127.1    79.1    51.5    4.58    1.72     3.6    1.2    4.2   18.49    3.70
 1992 345   154   151   188.9     6.7   129.6    6.24    2.74    113.5   127.4    78.4    51.2    4.55    1.71     3.6    1.2    5.0   20.19    3.82
 1992 346   155   152   191.9     8.4   128.6    6.23    2.72    118.0   128.6    77.7    50.9    4.52    1.69     3.6    1.2    4.4   21.64    3.93
 1992 347   156   153   196.0    10.1   128.1    6.22    2.70    123.9   129.2    77.3    50.8    4.50    1.68     3.6    1.2    5.6   22.53    4.03
 1992 348   157   154   199.9    11.9   127.5    6.23    2.67    129.3   130.2    76.7    50.7    4.47    1.66     3.6    1.2    5.5   23.61    4.16
 1992 349   158   155   203.8    13.9   126.5    6.23    2.65    135.0   130.8    76.1    50.4    4.44    1.65     3.6    1.2    5.6   24.55    4.27
[...]
 1993 252    61    58     1.4     0.0     1.4    0.00    4.76      0.1     1.7     1.2     0.3    5.72    2.66     0.0    1.5    0.0    0.00    0.06
 1993 253    62    59     1.5     0.0     1.5    0.00    4.71      0.1     1.8     1.3     0.3    5.72    2.66     0.0    1.5    0.0    0.00    0.06
 1993 254    63    60     1.6     0.0     1.6    0.00    4.70      0.1     1.9     1.3     0.3    5.72    2.66     0.0    1.5    0.0    0.00    0.06
 1993 255    64    61     1.7     0.0     1.7    0.00    4.70      0.1     2.0     1.4     0.3    5.72    2.66     0.0    1.5    0.0    0.00    0.06
 1993 256    65    62     1.8     0.0     1.8    0.00    4.71      0.1     2.1     1.5     0.3    5.72    2.66     0.0    1.5    0.0    0.00    0.06
 1993 257    66    63     1.9     0.0     1.9    0.00    4.71      0.1     2.3     1.6     0.4    5.72    2.66     0.0    1.5    0.0    0.00    0.07
 1993 258    67    64     2.1     0.0     2.1    0.00    4.69      0.1     2.4     1.7     0.4    5.72    2.66     0.0    1.5    0.0    0.00    0.07
 1993 259    68    65     2.3     0.0     2.3    0.00    4.65      0.1     2.7     1.8     0.5    5.72    2.66     0.0    1.5    0.0    0.00    0.07
 1993 260    69    66     2.5     0.0     2.5    0.00    4.60      0.1     3.0     1.9     0.5    5.72    2.66     0.0    1.5    0.0    0.00    0.07
 1993 261    70    67     2.6     0.0     2.6    0.00    4.57      0.1     3.2     2.0     0.6    5.72    2.66     0.0    1.5    0.0    0.00    0.08
 1993 262    71    68     2.8     0.0     2.8    0.00    4.53      0.1     3.4     2.2     0.6    5.72    2.66     0.0    1.5    0.0    0.00    0.08
 1993 263    72    69     3.0     0.0     3.0    0.00    4.52      0.1     3.6     2.3     0.7    5.72    2.66     0.0    1.5    0.0    0.00    0.08
 1993 264    73    70     3.1     0.0     3.1    0.00    4.51      0.1     3.7     2.3     0.7    5.72    2.66     0.0    1.5    0.0    0.00    0.09
 1993 265    74    71     3.1     0.0     3.1    0.00    4.51      0.1     3.8     2.4     0.7    5.72    2.66     0.0    1.5    0.0    0.00    0.09
 1993 266    75    72     3.2     0.0     3.2    0.00    4.53      0.1     3.9     2.5     0.7    5.72    2.66     0.0    1.5    0.0    0.00    0.10
 1993 267    76    73     3.4     0.0     3.4    0.00    4.54      0.1     4.0     2.6     0.8    5.72    2.66     0.0    1.5    0.0    0.00    0.11
 1993 268    77    74     3.5     0.0     3.5    0.00    4.53      0.1     4.2     2.7     0.8    5.72    2.66     0.0    1.5    0.0    0.00    0.11
 1993 269    78    75     3.6     0.0     3.6    0.00    4.54      0.2     4.4     2.8     0.8    5.72    2.66     0.0    1.5    0.0    0.00    0.11
 1993 270    79    76     3.9     0.0     3.9    0.00    4.49      0.2     4.7     3.0     0.9    5.72    2.66     0.0    1.5    0.0    0.00    0.12
 1993 271    80    77     4.2     0.0     4.2    0.00    4.44      0.2     5.1     3.2     1.1    5.72    2.66     0.0    1.5    0.0    0.00    0.12
 1993 272    81    78     4.5     0.0     4.5    0.00    4.40      0.2     5.4     3.3     1.2    5.72    2.66     0.0    1.5    0.0    0.00    0.13
 1993 273    82    79     4.7     0.0     4.7    0.00    4.41      0.2     5.7     3.5     1.2    5.73    2.66     0.0    1.5    0.0    0.00    0.13
 1993 274    83    80     5.0     0.0     5.0    0.00    4.41      0.2     6.0     3.7     1.3    5.73    2.66     0.0    1.5    0.0    0.00    0.14
 1993 275    84    81     5.2     0.0     5.2    0.00    4.41      0.2     6.3     3.9     1.4    5.73    2.66     0.0    1.5    0.0    0.00    0.15
 1993 276    85    82     5.6     0.0     5.6    0.00    4.41      0.2     6.7     4.2     1.5    5.73    2.66     0.0    1.5    0.0    0.00    0.15
 1993 277    86    83     5.9     0.0     5.9    0.00    4.41      0.2     7.1     4.4     1.5    5.73    2.66     0.0    1.5    0.0    0.00    0.16
 1993 278    87    84     6.4     0.0     6.4    0.00    4.41      0.2     7.7     4.8     1.7    5.73    2.66     0.0    1.5    0.0    0.00    0.16
 1993 279    88    85     7.0     0.0     7.0    0.00    4.40      0.2     8.4     5.2     1.8    5.73    2.66     0.0    1.5    0.0    0.00    0.16
 1993 280    89    86     7.9     0.0     7.9    0.00    4.40      0.2     9.3     5.8     2.1    5.72    2.66     0.0    1.5    0.0    0.00    0.17
 1993 281    90    87     8.8     0.0     8.8    0.00    4.39      0.2    10.4     6.5     2.3    5.72    2.66     0.0    1.5    0.0    0.00    0.18
 1993 282    91    88     9.8     0.0     9.8    0.00    4.38      0.3    11.6     7.2     2.6    5.72    2.66     0.0    1.5    0.0    0.00    0.19
 1993 283    92    89    11.2     0.0    11.2    0.00    4.37      0.3    13.2     8.2     3.0    5.72    2.66     0.0    1.5    0.0    0.00    0.20
 1993 284    93    90    12.7     0.0    12.7    0.00    4.36      0.3    14.9     9.2     3.5    5.72    2.66     0.0    1.5    0.0    0.00    0.22
 1993 285    94    91    13.4     0.0    13.4    0.00    4.35      0.3    15.7     9.7     3.7    5.73    2.66     0.0    1.5    0.0    0.00    0.23
 1993 286    95    92    14.1     0.0    14.1    0.00    4.35      0.4    16.5    10.2     3.9    5.73    2.67     0.0    1.5    0.0    0.00    0.24
 1993 287    96    93    15.0     0.0    15.0    0.00    4.34      0.4    17.6    10.8     4.2    5.73    2.67     0.0    1.5    0.0    0.00    0.26
 1993 288    97    94    16.8     0.0    16.8    0.00    4.32      0.4    19.7    12.1     4.8    5.73    2.67     0.0    1.5    0.0    0.00    0.27
 1993 289    98    95    19.2     0.0    19.2    0.00    4.30      0.5    22.4    13.7     5.5    5.73    2.66     0.0    1.5    0.0    0.00    0.29
 1993 290    99    96    20.6     0.0    20.6    0.00    4.29      0.5    23.9    14.6     6.0    5.73    2.66     0.0    1.5    0.0    0.00    0.31
 1993 291   100    97    22.4     0.0    22.4    0.00    4.28      0.5    26.0    15.8     6.6    5.73    2.66     0.0    1.5    0.0    0.01    0.32
 1993 292   101    98    24.5     0.0    24.5    0.00    4.26      0.6    28.5    17.2     7.3    5.73    2.65     0.0    1.5    0.0    0.03    0.34
 1993 293   102    99    26.9     0.0    26.9    0.00    4.24      0.6    31.4    18.7     8.1    5.73    2.65     0.0    1.5    0.0    0.05    0.36
 1993 294   103   100    29.6     0.0    29.6    0.00    4.21      0.7    34.5    20.5     9.1    5.74    2.64     0.0    1.5    0.0    0.07    0.39
 1993 295   104   101    30.7     0.0    30.7    0.00    4.21      0.7    35.9    21.2     9.5    5.74    2.64     0.0    1.5    0.0    0.09    0.41
 1993 296   105   102    31.7     0.0    31.7    0.00    4.20      0.7    37.1    21.8     9.8    5.75    2.63     0.0    1.5    0.0    0.11    0.44
 1993 297   106   103    32.8     0.0    32.8    0.00    4.20      0.7    38.5    22.5    10.2    5.75    2.63     0.0    1.5    0.0    0.12    0.47
 1993 298   107   104    34.4     0.0    34.4    0.00    4.18      0.8    40.4    23.6    10.8    5.75    2.63     0.0    1.5    0.0    0.14    0.48
 1993 299   108   105    37.0     0.0    37.0    0.00    4.16      0.8    43.6    25.2    11.8    5.75    2.61     0.0    1.5    0.0    0.16    0.50
 1993 300   109   106    40.0     0.0    40.0    0.00    4.14      0.8    47.3    27.1    12.9    5.75    2.60     0.0    1.5    0.0    0.19    0.52
 1993 301   110   107    44.1     0.0    44.1    0.00    4.11      0.9    52.4    29.6    14.4    5.75    2.59     0.0    1.5    0.0    0.24    0.55
 1993 302   111   108    47.0     0.0    47.0    0.00    4.11      0.9    56.1    31.4    15.6    5.78    2.60     0.0    1.5    0.0    0.31    0.65
 1993 303   112   109    48.8     0.0    48.7    0.00    4.12      0.9    58.5    32.5    16.2    5.80    2.60     4.0    1.5    0.0    0.37    0.74
 1993 304   113   110    50.5     0.0    50.2    0.00    4.12      0.9    60.7    33.4    16.8    5.82    2.61     4.0    1.5    0.0    0.43    0.82
 1993 305   114   111    53.6     0.0    53.1    0.00    4.10      0.9    64.5    35.1    18.0    5.82    2.60     4.0    1.5    0.0    0.47    0.89
 1993 306   115   112    57.8     0.0    57.0    0.00    4.07      0.9    69.5    37.5    19.5    5.82    2.58     4.0    1.5    0.0    0.54    0.97
 1993 307   116   113    62.6     0.0    61.4    0.00    4.04      0.9    75.1    40.1    21.3    5.82    2.57     4.0    1.5    0.0    0.61    1.06
 1993 308   117   114    67.6     0.0    65.8    0.00    4.03      0.9    80.8    42.6    23.1    5.83    2.56     4.0    1.5    0.0    0.71    1.15
 1993 309   118   115    69.9     0.0    67.2    0.00    4.05      0.9    83.6    43.5    23.7    5.88    2.58     4.0    1.5    0.0    0.79    1.22
 1993 310   119   116    72.2     0.0    68.7    0.00    4.07      0.9    86.2    44.3    24.4    5.91    2.60     4.0    1.5    0.0    0.87    1.28
 1993 311   120   117    76.5     0.0    72.2    0.00    4.05      0.9    91.2    46.4    25.8    5.91    2.59     4.0    1.5    0.0    0.93    1.35
 1993 312   121   118    81.0     0.0    75.9    0.00    3.99      0.9    96.4    48.4    27.5    5.88    2.55     4.0    1.5    0.0    1.08    1.42
 1993 313   122   119    84.5     0.0    78.5    0.00    3.86      1.3   100.0    49.9    28.6    5.75    2.46     3.9    1.5    0.3    1.16    1.48
 1993 314   123   120    87.6     0.0    80.5    0.00    3.77      1.7   103.1    51.0    29.6    5.66    2.39     3.9    1.5    0.4    1.24    1.56
 1993 315   124   121    89.7     0.0    81.2    0.00    3.74      1.7   105.4    51.3    29.9    5.64    2.38     3.9    1.5    0.0    1.30    1.67
 1993 316   125   122    91.7     0.0    81.6    0.00    3.62      2.2   107.2    51.5    30.1    5.53    2.27     3.9    1.5    0.4    1.38    1.74
 1993 317   126   123    93.0     0.0    81.1    0.00    3.57      2.7   108.2    51.2    29.9    5.48    2.23     3.9    1.4    0.5    1.44    1.80
 1993 318   127   124    94.2     0.0    80.2    0.00    3.52      2.9   109.1    50.7    29.6    5.44    2.20     3.9    1.4    0.3    1.50    1.87
 1993 319   128   125    95.2     0.0    79.2    0.00    3.46      3.5   109.7    50.0    29.2    5.39    2.15     3.8    1.4    0.5    1.56    1.94
 1993 320   129   126    96.3     0.0    78.1    0.00    3.37      4.1   110.2    49.4    28.8    5.31    2.07     3.8    1.4    0.5    1.62    2.02
 1993 321   130   127    97.3     0.0    77.3    0.00    3.30      4.8   110.7    48.9    28.4    5.25    2.01     3.8    1.4    0.6    1.67    2.08
 1993 322   131   128    98.4     0.0    76.5    0.00    3.16      5.5   111.1    48.4    28.1    5.14    1.90     3.8    1.4    0.6    1.72    2.13
 1993 323   132   129    99.3     0.0    75.7    0.00    3.01      6.3   111.7    47.8    27.8    5.01    1.78     3.8    1.4    0.7    2.13    2.18
 1993 324   133   130    99.2     0.0    74.6    6.18    2.82      7.4   112.0    47.2    27.4    4.86    1.64     3.7    1.4    0.9    3.27    2.23
 1993 325   134   131   100.0     0.2    74.0    6.21    2.71      8.6   112.7    46.7    27.2    4.75    1.56     3.7    1.3    1.0    4.15    2.30
 1993 326   135   132   101.5     0.5    73.2    6.21    2.59     10.0   113.4    46.3    27.0    4.64    1.47     3.6    1.3    1.2    4.44    2.36
 1993 327   136   133   102.7     0.8    72.7    6.20    2.52     11.6   114.0    45.9    26.8    4.57    1.43     3.6    1.3    1.4    5.21    2.43
 1993 328   137   134   103.6     1.2    72.1    6.23    2.49     13.6   114.7    45.4    26.6    4.53    1.41     3.5    1.3    1.6    6.53    2.50
 1993 329   138   135   103.6     1.8    70.8    6.23    2.47     14.9   115.5    44.7    26.1    4.51    1.40     3.5    1.3    1.3    8.47    2.57
 1993 330   139   136   105.7     2.6    70.0    6.22    2.46     17.1   116.7    44.2    25.9    4.49    1.39     3.5    1.3    1.9    9.28    2.62
 1993 331   140   137   107.9     3.5    69.0    6.22    2.45     19.1   117.4    43.5    25.5    4.46    1.38     3.5    1.3    2.0    9.44    2.67
 1993 332   141   138   109.8     4.4    67.9    6.23    2.37     21.5   117.5    42.8    25.0    4.39    1.33     3.5    1.3    2.1    9.79    2.71
 1993 333   142   139   112.7     5.3    67.5    6.22    2.32     24.2   118.2    42.5    25.0    4.33    1.29     3.4    1.3    2.4    9.86    2.76
 1993 334   143   140   113.4     6.2    66.5    6.24    2.31     25.1   118.9    41.9    24.6    4.31    1.29     3.4    1.3    0.9   10.82    2.80
 1993 335   144   141   116.6     7.1    66.5    6.26    2.28     28.1   119.6    41.8    24.7    4.28    1.28     3.4    1.2    2.6   10.88    2.84
 1993 336   145   142   118.6     8.1    66.7    6.25    2.25     31.5   120.3    41.9    24.8    4.24    1.25     3.4    1.2    3.0   12.55    2.89
 1993 337   146   143   120.0     9.6    65.9    6.27    2.24     34.5   121.1    41.3    24.6    4.22    1.25     3.4    1.2    3.0   14.26    2.97
 1993 338   147   144   119.3    11.2    64.8    6.26    2.23     36.4   121.4    40.6    24.1    4.20    1.25     3.4    1.2    1.9   16.91    3.06
 1993 339   148   145   123.2    13.0    64.3    6.26    2.22     40.4   122.0    40.3    24.1    4.18    1.24     3.3    1.2    3.5   16.97    3.10
 1993 340   149   146   124.2    14.8    63.2    6.25    2.21     42.5   122.5    39.6    23.6    4.16    1.24     3.3    1.2    2.2   18.32    3.15
 1993 341   150   147   125.7    16.9    62.2    6.26    2.20     46.6   123.0    38.9    23.3    4.13    1.23     3.3    1.2    3.9   20.32    3.22
 1993 342   151   148   127.7    19.3    61.4    6.26    2.18     50.8   123.3    38.4    23.0    4.11    1.23     3.3    1.2    4.0   22.09    3.28
 1993 343   152   149   131.3    21.8    61.0    6.27    2.18     55.5   124.1    38.0    23.0    4.09    1.23     3.3    1.2    4.3   23.03    3.35
 1993 344   153   150   134.3    24.5    60.1    6.27    2.16     60.1   124.9    37.4    22.7    4.07    1.22     3.3    1.2    4.6   24.38    3.41
 1993 345   154   151   138.2    27.2    59.5    6.27    2.15     64.8   125.9    37.0    22.5    4.05    1.22     3.3    1.2    4.7   24.96    3.47
 1993 346   155   152   141.7    30.2    58.7    6.30    2.14     69.2   126.6    36.5    22.3    4.03    1.21     3.2    1.2    4.5   25.67    3.54
 1993 347   156   153   142.0    33.2    57.5    6.30    2.13     70.4   127.5    35.7    21.8    4.00    1.20     3.2    1.2    1.2   27.30    3.61
 1993 348   157   154   141.6    36.6    56.2    6.30    2.11     74.8   128.1    34.9    21.3    3.97    1.19     3.2    1.2    4.3   31.44    3.67
 1993 349   158   155   143.5    40.4    55.1    6.29    2.10     76.1   128.8    34.2    20.8    3.94    1.18     3.1    1.2    1.3   31.51    3.72
 1993 350   159   156   145.9    44.1    53.9    6.28    2.08     80.5   129.7    33.5    20.4    3.91    1.17     3.1    1.1    4.4   33.28    3.76
 1993 351   160   157   149.5    48.0    53.3    6.27    2.06     85.3   130.2    33.1    20.2    3.88    1.17     3.1    1.1    4.6   34.39    3.81
 1993 352   161   158   152.9    52.4    52.0    6.27    2.04     89.7   130.9    32.3    19.7    3.84    1.15     3.1    1.1    4.4   35.50    3.87
 1993 353   162   159   156.8    56.9    50.8    6.28    2.02     94.1   131.7    31.6    19.3    3.81    1.14     3.0    1.1    4.4   36.28    3.93
 1993 354   163   160   160.3    61.3    49.7    6.27    2.00     98.1   132.4    30.9    18.8    3.78    1.13     3.0    1.1    3.9   36.88    3.97
 1993 355   164   161   163.8    65.2    48.9    6.28    1.98    102.5   132.6    30.4    18.5    3.75    1.12     3.0    1.1    4.4   37.38    4.00
 1993 356   165   162   168.1    69.8    47.9    6.27    1.97    105.5   134.9    29.7    18.1    3.71    1.11     3.0    1.1    3.0   37.80    4.05
 1993 357   166   163   171.5    74.7    46.7    6.28    1.94    109.7   135.6    29.0    17.7    3.67    1.10     2.9    1.1    4.2   38.77    4.10
 1993 358   167   164   175.0    79.9    45.5    6.30    1.92    114.3   136.1    28.3    17.2    3.63    1.08     2.9    1.1    4.6   39.84    4.16
 1993 359   168   165   177.7    85.4    44.3    6.32    1.90    117.8   136.3    27.5    16.7    3.59    1.07     2.8    1.1    3.5   40.55    4.23
 1993 360   169   166   180.9    91.2    43.1    6.33    1.87    121.6   136.8    26.8    16.3    3.55    1.05     2.8    1.1    3.8   41.24    4.28
 1993 361   170   167   182.2    95.3    41.9    6.32    1.85    122.2   137.8    26.1    15.9    3.51    1.04     2.7    1.1    0.6   41.75    4.33
 1993 362   171   168   185.3   101.2    40.8    6.32    1.82    125.9   138.6    25.4    15.4    3.46    1.02     2.6    1.1    3.6   42.65    4.38
 1993 363   172   169   188.2   107.2    39.8    6.32    1.80    128.3   140.0    24.8    15.0    3.42    1.01     2.6    1.1    2.4   43.50    4.41
 1993 364   173   170   191.8   112.8    38.8    6.31    1.77    132.7   140.5    24.1    14.7    3.38    0.99     2.5    1.1    4.4   44.28    4.45
 1993 365   174   171   196.4   118.9    37.8    6.30    1.75    137.1   141.0    23.5    14.3    3.34    0.98     2.5    1.0    4.5   44.34    4.49
 1994 001   175   172   200.4   125.5    36.7    6.30    1.72    141.6   141.5    22.8    13.9    3.29    0.96     2.4    1.0    4.4   45.04    4.54
 1994 002   176   173   204.2   131.7    35.8    6.29    1.70    145.2   142.6    22.3    13.5    3.25    0.95     2.4    1.0    3.6   45.64    4.57
 1994 003   177   174   208.0   137.6    34.9    6.29    1.67    149.6   142.8    21.7    13.2    3.20    0.93     2.3    1.0    4.4   46.19    4.60
 1994 004   178   175   212.2   144.1    33.9    6.28    1.65    154.0   143.1    21.1    12.8    3.16    0.92     2.3    1.0    4.5   46.49    4.64
 1994 005   179   176   216.4   150.8    33.0    6.29    1.62    157.1   144.6    20.5    12.5    3.11    0.90     2.2    1.0    3.1   46.94    4.69
 1994 006   180   177   218.1   154.8    32.0    6.30    1.58    158.5   145.1    19.9    12.1    3.05    0.88     2.1    1.0    1.4   47.16    4.74
 1994 007   181   178   220.7   159.9    31.0    6.32    1.55    160.4   146.1    19.3    11.7    3.00    0.87     2.1    1.0    1.9   47.47    4.79
 1994 008   182   179   221.4   162.7    30.1    6.23    1.52    160.4   147.0    18.7    11.4    2.94    0.84     2.0    1.0    0.0   47.72    4.83
 1994 009   183   180   217.8   165.4    24.9    6.15    1.38    160.4   147.9    14.5    10.4    2.84    0.80     1.9    1.0    0.0   52.22    4.87
 1994 010   184   181   215.2   167.9    20.9    6.08    1.26    160.4   148.7    11.2     9.7    2.75    0.77     1.9    1.0    0.0   55.70    4.89
 1994 011   185   182   213.0   169.8    17.8    6.02    1.15    160.4   149.1     8.7     9.1    2.67    0.75     1.8    1.0    0.0   58.36    4.93
 1994 012   186   183   211.9   172.1    15.3    5.99    1.07    160.4   150.1     6.7     8.6    2.61    0.73     1.8    1.0    0.0   60.38    4.97
 1994 013   187   184   210.7   173.7    13.4    5.96    1.01    160.4   150.5     5.2     8.1    2.56    0.72     1.7    1.0    0.0   61.94    5.01
 1994 014   188   185   209.9   175.2    11.8    5.95    0.95    160.4   151.0     4.1     7.8    2.52    0.71     1.7    1.0    0.0   63.15    5.07
 1994 015   189   186   209.4   176.5    10.6    5.95    0.89    160.4   151.4     3.2     7.5    2.47    0.70     1.6    1.0    0.0   64.10    5.39
 1994 016   190   187   208.9   177.7     9.7    5.95    0.85    160.4   151.6     2.5     7.2    2.43    0.70     1.6    1.0    0.0   64.83    5.76
 1994 017   191   188   208.3   178.5     8.9    5.95    0.81    160.4   151.7     1.9     7.0    2.39    0.69     1.5    1.0    0.0   65.41    6.12
 1994 018   192   189   207.9   178.8     8.4    5.95    0.79    160.4   151.7     1.5     6.9    2.38    0.69     1.5    1.0    0.0   65.86    6.46
 1994 019   193   190   207.5   178.8     8.1    5.95    0.78    160.4   151.7     1.2     6.8    2.40    0.69     1.5    1.0    0.0   66.21    6.77
 1994 020   194   191   207.3   178.8     7.8    5.95    0.76    160.4   151.7     1.0     6.8    2.41    0.70     1.5    1.0    0.0   66.50    7.07
