*GROWTH ASPECTS OUTPUT FILE

*DSSAT Cropping System Model Ver. 4.0.2.000               Aug 12, 2016; 09:16:44

*RUN   1        : UYSB                    
 MODEL          : CRGRO040 - Soybean         
 EXPERIMENT     : UYSB0192 SB    late to create DSS                             
 TREATMENT  1   : UYSB                    

@YEAR DOY   DAS   DAP   L#SD   GSTD   LAID   LWAD   SWAD   GWAD   RWAD   CWAD   G#AD    GWGD   HIAD   PWAD   P#AD   WSPD   WSGD   NSTD   EWSD    LN%D   SH%D   HIPD   PWDD   PWTD   SLAD   CHTD   CWID   NWAD   RDPD   RL1D   RL2D   RL3D   RL4D   RL5D   RL6D   RL7D   RL8D   RL9D   RL10   SNW0C   SNW1C
 1990 194     3     0    0.0      0   0.00      0      0      0      0      0      0     0.0  0.000      0      0  0.000  0.000  0.000  0.000    0.00   0.00   0.00      0      0    0.0   0.00   0.00    0.0   0.00   0.00   0.00   0.00   0.00   0.00   0.00   0.00   0.00   0.00   0.00       0       0
 1990 195     4     1    0.0      0   0.00      0      0      0      0      0      0     0.0  0.000      0      0  0.000  0.000  0.000  0.000    0.00   0.00   0.00      0      0    0.0   0.00   0.00    0.0   0.00   0.00   0.00   0.00   0.00   0.00   0.00   0.00   0.00   0.00   0.00       0       0
 1990 196     5     2    0.0      0   0.00      0      0      0      0      0      0     0.0  0.000      0      0  0.000  0.000  0.000  0.000    0.00   0.00   0.00      0      0    0.0   0.00   0.00    0.0   0.00   0.00   0.00   0.00   0.00   0.00   0.00   0.00   0.00   0.00   0.00       0       0
 1990 197     6     3    0.0      0   0.00      0      0      0      0      0      0     0.0  0.000      0      0  0.000  0.000  0.000  0.000    0.00   0.00   0.00      0      0    0.0   0.00   0.00    0.0   0.00   0.00   0.00   0.00   0.00   0.00   0.00   0.00   0.00   0.00   0.00       0       0
 1990 198     7     4    0.0      0   0.00      0      0      0      0      0      0     0.0  0.000      0      0  0.000  0.000  0.000  0.000    0.00   0.00   0.00      0      0    0.0   0.00   0.00    0.0   0.00   0.00   0.00   0.00   0.00   0.00   0.00   0.00   0.00   0.00   0.00       0       0
 1990 199     8     5    0.0      0   0.00      0      0      0      0      0      0     0.0  0.000      0      0  0.000  0.000  0.000  0.000    0.00   0.00   0.00      0      0    0.0   0.00   0.00    0.0   0.00   0.00   0.00   0.00   0.00   0.00   0.00   0.00   0.00   0.00   0.00       0       0
 1990 200     9     6    0.0      0   0.00      0      0      0      0      0      0     0.0  0.000      0      0  0.000  0.000  0.000  0.000    0.00   0.00   0.00      0      0    0.0   0.00   0.00    0.0   0.00   0.00   0.00   0.00   0.00   0.00   0.00   0.00   0.00   0.00   0.00       0       0
 1990 201    10     7    0.0      0   0.00      0      0      0      0      0      0     0.0  0.000      0      0  0.000  0.000  0.000  0.000    0.00   0.00   0.00      0      0    0.0   0.00   0.00    0.0   0.00   0.00   0.00   0.00   0.00   0.00   0.00   0.00   0.00   0.00   0.00       0       0
 1990 202    11     8    0.0      0   0.00      0      0      0      0      0      0     0.0  0.000      0      0  0.000  0.000  0.000  0.000    0.00   0.00   0.00      0      0    0.0   0.00   0.00    0.0   0.00   0.00   0.00   0.00   0.00   0.00   0.00   0.00   0.00   0.00   0.00       0       0
 1990 203    12     9    0.0      0   0.00      0      0      0      0      0      0     0.0  0.000      0      0  0.000  0.000  0.000  0.000    0.00   0.00   0.00      0      0    0.0   0.00   0.00    0.0   0.00   0.00   0.00   0.00   0.00   0.00   0.00   0.00   0.00   0.00   0.00       0       0
 1990 204    13    10    0.0      0   0.00      0      0      0      0      0      0     0.0  0.000      0      0  0.000  0.000  0.000  0.000    0.00   0.00   0.00      0      0    0.0   0.00   0.00    0.0   0.00   0.00   0.00   0.00   0.00   0.00   0.00   0.00   0.00   0.00   0.00       0       0
 1990 205    14    11    0.0      0   0.00      0      0      0      0      0      0     0.0  0.000      0      0  0.000  0.000  0.000  0.000    0.00   0.00   0.00      0      0    0.0   0.00   0.00    0.0   0.00   0.00   0.00   0.00   0.00   0.00   0.00   0.00   0.00   0.00   0.00       0       0
 1990 206    15    12    0.0      0   0.00      0      0      0      0      0      0     0.0  0.000      0      0  0.000  0.000  0.000  0.000    0.00   0.00   0.00      0      0    0.0   0.00   0.00    0.0   0.00   0.00   0.00   0.00   0.00   0.00   0.00   0.00   0.00   0.00   0.00       0       0
 1990 207    16    13    0.0      0   0.00      0      0      0      0      0      0     0.0  0.000      0      0  0.000  0.000  0.000  0.000    0.00   0.00   0.00      0      0    0.0   0.00   0.00    0.0   0.00   0.00   0.00   0.00   0.00   0.00   0.00   0.00   0.00   0.00   0.00       0       0
 1990 208    17    14    0.0      0   0.00      0      0      0      0      0      0     0.0  0.000      0      0  0.000  0.000  0.000  0.000    0.00   0.00   0.00      0      0    0.0   0.00   0.00    0.0   0.00   0.00   0.00   0.00   0.00   0.00   0.00   0.00   0.00   0.00   0.00       0       0
 1990 209    18    15    0.0      0   0.00      0      0      0      0      0      0     0.0  0.000      0      0  0.000  0.000  0.000  0.000    0.00   0.00   0.00      0      0    0.0   0.00   0.00    0.0   0.00   0.00   0.00   0.00   0.00   0.00   0.00   0.00   0.00   0.00   0.00       0       0
 1990 210    19    16    0.0      0   0.00      0      0      0      0      0      0     0.0  0.000      0      0  0.000  0.000  0.000  0.000    0.00   0.00   0.00      0      0    0.0   0.00   0.00    0.0   0.00   0.00   0.00   0.00   0.00   0.00   0.00   0.00   0.00   0.00   0.00       0       0
 1990 211    20    17    0.0      0   0.00      0      0      0      0      0      0     0.0  0.000      0      0  0.000  0.000  0.000  0.000    0.00   0.00   0.00      0      0    0.0   0.00   0.00    0.0   0.00   0.00   0.00   0.00   0.00   0.00   0.00   0.00   0.00   0.00   0.00       0       0
 1990 212    21    18    0.0      0   0.00      0      0      0      0      0      0     0.0  0.000      0      0  0.000  0.000  0.000  0.000    0.00   0.00   0.00      0      0    0.0   0.00   0.00    0.0   0.00   0.00   0.00   0.00   0.00   0.00   0.00   0.00   0.00   0.00   0.00       0       0
 1990 213    22    19    0.0      0   0.00      0      0      0      0      0      0     0.0  0.000      0      0  0.000  0.000  0.000  0.000    0.00   0.00   0.00      0      0    0.0   0.00   0.00    0.0   0.00   0.00   0.00   0.00   0.00   0.00   0.00   0.00   0.00   0.00   0.00       0       0
 1990 214    23    20    0.0      0   0.00      0      0      0      0      0      0     0.0  0.000      0      0  0.000  0.000  0.000  0.000    0.00   0.00   0.00      0      0    0.0   0.00   0.00    0.0   0.00   0.00   0.00   0.00   0.00   0.00   0.00   0.00   0.00   0.00   0.00       0       0
 1990 215    24    21    0.0      0   0.01      3      1      0      4      4      0     0.0  0.000      0      0  0.000  0.000  0.000  0.000    5.70   0.00   0.00      0      0  192.9   0.03   0.03    0.9   0.29   0.04   0.04   0.02   0.00   0.00   0.00   0.00   0.00   0.00   0.00       0       0
 1990 216    25    22    0.1      0   0.01      3      1      0      4      4      0     0.0  0.000      0      0  0.000  0.000  0.000  0.000    5.70   0.00   0.00      0      0  194.1   0.03   0.03    0.9   0.34   0.04   0.04   0.03   0.00   0.00   0.00   0.00   0.00   0.00   0.00       0       0
 1990 217    26    23    0.2      0   0.01      3      1      0      4      4      0     0.0  0.000      0      0  0.000  0.000  0.000  0.000    5.70   0.00   0.00      0      0  200.2   0.03   0.03    0.9   0.42   0.04   0.04   0.03   0.00   0.00   0.00   0.00   0.00   0.00   0.00       0       0
 1990 218    27    24    0.2      0   0.01      4      1      0      5      5      0     0.0  0.000      0      0  0.000  0.000  0.000  0.000    5.70   0.00   0.00      0      0  207.1   0.03   0.03    0.9   0.50   0.04   0.04   0.03   0.00   0.00   0.00   0.00   0.00   0.00   0.00       0       0
 1990 219    28    25    0.3      0   0.01      4      1      0      5      5      0     0.0  0.000      0      0  0.000  0.000  0.000  0.000    5.71   0.00   0.00      0      0  215.2   0.04   0.04    0.9   0.59   0.05   0.05   0.04   0.00   0.00   0.00   0.00   0.00   0.00   0.00       0       0
 1990 220    29    26    0.4      0   0.01      4      1      0      6      5      0     0.0  0.000      0      0  0.000  0.000  0.000  0.000    5.71   0.00   0.00      0      0  221.6   0.04   0.04    0.9   0.68   0.05   0.05   0.04   0.01   0.00   0.00   0.00   0.00   0.00   0.00       0       0
 1990 221    30    27    0.5      0   0.01      4      1      0      6      6      0     0.0  0.000      0      0  0.000  0.000  0.000  0.000    5.71   0.00   0.00      0      0  221.8   0.04   0.04    0.9   0.74   0.05   0.05   0.04   0.01   0.00   0.00   0.00   0.00   0.00   0.00       0       0
 1990 222    31    28    0.6      0   0.01      5      1      0      7      6      0     0.0  0.000      0      0  0.000  0.000  0.000  0.000    5.71   0.00   0.00      0      0  222.5   0.04   0.04    0.9   0.80   0.05   0.05   0.04   0.01   0.01   0.00   0.00   0.00   0.00   0.00       0       0
 1990 223    32    29    0.7      0   0.01      5      2      0      8      6      0     0.0  0.000      0      0  0.000  0.000  0.000  0.000    5.71   0.00   0.00      0      0  227.1   0.04   0.04    0.9   0.89   0.06   0.06   0.05   0.01   0.01   0.00   0.00   0.00   0.00   0.00       0       0
 1990 224    33    30    0.8      0   0.01      5      2      0      8      7      0     0.0  0.000      0      0  0.000  0.000  0.000  0.000    5.72   0.00   0.00      0      0  231.6   0.05   0.05    1.0   0.98   0.06   0.06   0.05   0.01   0.01   0.00   0.00   0.00   0.00   0.00       0       1
 1990 225    34    31    0.9      0   0.01      5      2      0      9      7      0     0.0  0.000      0      0  0.000  0.000  0.000  0.000    5.72   0.00   0.00      0      0  236.4   0.05   0.05    1.0   1.07   0.07   0.07   0.06   0.01   0.01   0.01   0.00   0.00   0.00   0.00       0       1
 1990 226    35    32    1.0      0   0.01      5      2      0     10      7      0     0.0  0.000      0      0  0.000  0.000  0.000  0.000    5.72   0.00   0.00      0      0  245.4   0.06   0.06    1.0   1.17   0.07   0.07   0.06   0.01   0.01   0.01   0.00   0.00   0.00   0.00       0       1
 1990 227    36    33    1.1      0   0.01      6      2      0     10      8      0     0.0  0.000      0      0  0.000  0.000  0.000  0.022    5.72   0.00   0.00      0      0  243.9   0.06   0.06    0.9   1.21   0.07   0.07   0.06   0.01   0.01   0.01   0.00   0.00   0.00   0.00       0       1
 1990 228    37    34    1.1      0   0.02      6      2      0     10      9      0     0.0  0.000      0      0  0.000  0.000  0.000  0.000    5.72   0.00   0.00      0      0  238.1   0.06   0.06    0.9   1.25   0.07   0.07   0.06   0.01   0.01   0.01   0.00   0.00   0.00   0.00       0       1
 1990 229    38    35    1.3      0   0.02      7      2      0     11      9      0     0.0  0.000      0      0  0.000  0.000  0.000  0.000    5.72   0.00   0.00      0      0  234.6   0.06   0.06    0.9   1.25   0.07   0.07   0.06   0.02   0.01   0.01   0.00   0.00   0.00   0.00       0       1
 1990 230    39    36    1.3      0   0.02      8      2      0     11     10      0     0.0  0.000      0      0  0.000  0.000  0.000  0.000    5.72   0.00   0.00      0      0  231.2   0.07   0.07    0.9   1.25   0.07   0.07   0.06   0.02   0.01   0.01   0.00   0.00   0.00   0.00       0       1
 1990 231    40    37    1.5      0   0.02      8      3      0     12     11      0     0.0  0.000      0      0  0.000  0.000  0.000  0.000    5.72   0.00   0.00      0      0  232.6   0.07   0.07    0.9   1.25   0.08   0.08   0.07   0.02   0.01   0.01   0.00   0.00   0.00   0.00       0       1
 1990 232    41    38    1.6      0   0.02      9      3      0     13     12      0     0.0  0.000      0      0  0.000  0.000  0.000  0.000    5.72   0.00   0.00      0      0  230.9   0.07   0.07    0.9   1.25   0.08   0.08   0.07   0.02   0.02   0.01   0.00   0.00   0.00   0.00       0       1
 1990 233    42    39    1.7      0   0.02     10      3      0     13     13      0     0.0  0.000      0      0  0.000  0.000  0.000  0.000    5.72   0.00   0.00      0      0  229.4   0.08   0.08    1.0   1.25   0.08   0.08   0.07   0.02   0.02   0.01   0.01   0.00   0.00   0.00       0       1
 1990 234    43    40    1.8      0   0.02     11      3      0     14     14      0     0.0  0.000      0      0  0.000  0.000  0.000  0.000    5.72   0.00   0.00      0      0  227.3   0.08   0.08    1.0   1.25   0.09   0.09   0.08   0.02   0.02   0.01   0.01   0.00   0.00   0.00       0       1
 1990 235    44    41    1.8      0   0.02     11      4      0     15     15      0     0.0  0.000      0      0  0.000  0.000  0.000  0.000    5.72   0.00   0.00      0      0  222.6   0.08   0.08    1.0   1.25   0.09   0.09   0.08   0.02   0.02   0.01   0.01   0.00   0.00   0.00       0       1
 1990 236    45    42    1.9      0   0.03     12      4      0     15     15      0     0.0  0.000      0      0  0.000  0.000  0.000  0.000    5.72   0.00   0.00      0      0  221.4   0.08   0.08    1.0   1.25   0.09   0.09   0.08   0.02   0.02   0.01   0.01   0.00   0.00   0.00       0       1
 1990 237    46    43    2.0      0   0.03     12      4      0     17     17      0     0.0  0.000      0      0  0.000  0.000  0.000  0.000    5.72   0.00   0.00      0      0  225.8   0.09   0.09    1.0   1.25   0.10   0.10   0.09   0.03   0.02   0.02   0.01   0.00   0.00   0.00       0       1
 1990 238    47    44    2.2      0   0.03     14      5      0     18     19      0     0.0  0.000      0      0  0.000  0.000  0.000  0.000    5.72   0.00   0.00      0      0  231.1   0.09   0.09    1.1   1.25   0.10   0.10   0.09   0.03   0.02   0.02   0.01   0.00   0.00   0.00       0       1
 1990 239    48    45    2.3      0   0.03     14      5      0     18     19      0     0.0  0.000      0      0  0.000  0.000  0.000  0.018    5.72   0.00   0.00      0      0  231.4   0.10   0.10    1.1   1.25   0.10   0.10   0.09   0.03   0.03   0.02   0.01   0.00   0.00   0.00       0       1
 1990 240    49    46    2.3      0   0.03     14      5      0     19     20      0     0.0  0.000      0      0  0.000  0.000  0.000  0.000    5.72   0.00   0.00      0      0  229.5   0.10   0.10    1.1   1.25   0.11   0.11   0.10   0.03   0.03   0.02   0.01   0.00   0.00   0.00       0       2
 1990 241    50    47    2.3      0   0.03     15      6      0     20     21      0     0.0  0.000      0      0  0.000  0.000  0.000  0.000    5.72   0.00   0.00      0      0  224.9   0.10   0.10    1.0   1.25   0.11   0.11   0.10   0.03   0.03   0.02   0.01   0.01   0.00   0.00       0       2
 1990 242    51    48    2.4      0   0.04     16      6      0     21     22      0     0.0  0.000      0      0  0.000  0.000  0.000  0.000    5.72   0.00   0.00      0      0  222.9   0.10   0.10    1.1   1.25   0.12   0.11   0.10   0.03   0.03   0.02   0.01   0.01   0.00   0.00       0       2
 1990 243    52    49    2.4      0   0.04     16      6      0     21     23      0     0.0  0.000      0      0  0.000  0.000  0.000  0.000    5.72   0.00   0.00      0      0  222.0   0.10   0.10    1.0   1.25   0.12   0.12   0.11   0.04   0.03   0.02   0.01   0.01   0.00   0.00       0       2
 1990 244    53    50    2.4      0   0.04     17      6      0     22     23      0     0.0  0.000      0      0  0.000  0.000  0.000  0.000    5.72   0.00   0.00      0      0  221.1   0.10   0.10    1.0   1.25   0.12   0.12   0.11   0.04   0.03   0.02   0.01   0.01   0.00   0.00       0       2
 1990 245    54    51    2.5      0   0.00      0      7      0     22      7      0     0.0  0.000      0      0  0.000  0.000  0.000  0.000    5.71   0.00   0.00      0      0  101.5   0.10   0.10    1.0   1.25   0.12   0.12   0.11   0.04   0.03   0.02   0.01   0.01   0.00   0.00      17       2
 1990 246    55    52    2.5      0   0.00      0      7      0     22      7      0     0.0  0.000      0      0  0.000  0.000  0.000  0.000    5.71   0.00   0.00      0      0  101.7   0.10   0.10    0.9   1.25   0.12   0.12   0.11   0.04   0.03   0.02   0.01   0.01   0.00   0.00      17       2
 1990 247    56    53    2.6      0   0.00      0      7      0     22      7      0     0.0  0.000      0      0  0.000  0.000  0.000  0.000    5.71   0.00   0.00      0      0  101.7   0.11   0.10    0.9   1.25   0.12   0.12   0.11   0.04   0.03   0.02   0.01   0.01   0.00   0.00      17       2
 1990 248    57    54    2.7      0   0.00      0      7      0     22      7      0     0.0  0.000      0      0  0.000  0.000  0.000  0.000    5.71   0.00   0.00      0      0  101.7   0.11   0.11    0.8   1.25   0.12   0.12   0.11   0.04   0.03   0.02   0.01   0.01   0.00   0.00      17       2
 1990 249    58    55    2.8      0   0.00      0      7      0     22      7      0     0.0  0.000      0      0  0.000  0.000  0.000  0.000    5.71   0.00   0.00      0      0  101.7   0.11   0.11    0.7   1.25   0.12   0.12   0.11   0.04   0.03   0.02   0.01   0.01   0.00   0.00      17       2
 1990 250    59    56    2.9      0   0.00      0      7      0     22      7      0     0.0  0.000      0      0  0.000  0.000  0.000  0.000    5.72   0.00   0.00      0      0  101.8   0.12   0.12    0.7   1.25   0.12   0.12   0.11   0.04   0.03   0.02   0.01   0.01   0.00   0.00      17       2
 1990 251    60    57    3.0      0   0.00      0      7      0     21      7      0     0.0  0.000      0      0  0.000  0.000  0.000  0.102    5.72   0.00   0.00      0      0  101.8   0.12   0.12    0.6   1.25   0.12   0.12   0.10   0.04   0.03   0.02   0.01   0.01   0.00   0.00      17       3
 1990 252    61    58    3.1      0   0.00      0      7      0     21      7      0     0.0  0.000      0      0  0.000  0.000  0.000  0.000    5.72   0.00   0.00      0      0  102.4   0.12   0.12    0.6   1.25   0.12   0.12   0.10   0.04   0.03   0.02   0.01   0.01   0.00   0.00      17       3
 1990 253    62    59    3.3      0   0.00      0      7      0     21      7      0     0.0  0.000      0      0  0.000  0.000  0.000  0.000    5.72   0.00   0.00      0      0  102.4   0.13   0.13    0.6   1.25   0.12   0.12   0.10   0.04   0.03   0.02   0.01   0.01   0.00   0.00      17       3
 1990 254    63    60    3.5      0   0.00      0      7      0     21      7      0     0.0  0.000      0      0  0.000  0.000  0.000  0.002    5.72   0.00   0.00      0      0  102.5   0.14   0.13    0.5   1.25   0.12   0.12   0.10   0.04   0.03   0.02   0.01   0.01   0.00   0.00      17       3
 1990 255    64    61    3.5      0   0.00      0      7      0     21      7      0     0.0  0.000      0      0  0.000  0.000  0.000  0.000    5.73   0.00   0.00      0      0  102.5   0.14   0.14    0.5   1.25   0.12   0.12   0.10   0.04   0.03   0.02   0.01   0.01   0.00   0.00      17       3
 1990 256    65    62    3.5      0   0.00      0      7      0     21      7      0     0.0  0.000      0      0  0.000  0.000  0.000  0.000    5.73   0.00   0.00      0      0  102.5   0.14   0.14    0.4   1.25   0.12   0.12   0.10   0.04   0.03   0.02   0.01   0.01   0.00   0.00      17       3
 1990 257    66    63    3.6      0   0.00      0      7      0     21      7      0     0.0  0.000      0      0  0.000  0.000  0.000  0.000    5.73   0.00   0.00      0      0  102.5   0.14   0.14    0.4   1.25   0.12   0.12   0.10   0.04   0.03   0.02   0.01   0.01   0.00   0.00      17       3
 1990 258    67    64    3.6      0   0.00      0      7      0     21      7      0     0.0  0.000      0      0  0.000  0.000  0.000  0.000    5.73   0.00   0.00      0      0  103.0   0.14   0.14    0.4   1.25   0.12   0.12   0.10   0.04   0.03   0.02   0.01   0.01   0.00   0.00      17       3
 1990 259    68    65    3.7      0   0.00      0      7      0     21      7      0     0.0  0.000      0      0  0.000  0.000  0.000  0.000    5.73   0.00   0.00      0      0  103.7   0.15   0.14    0.4   1.25   0.12   0.12   0.10   0.04   0.03   0.02   0.01   0.01   0.00   0.00      17       3
 1990 260    69    66    3.8      0   0.00      0      7      0     21      7      0     0.0  0.000      0      0  0.000  0.000  0.000  0.000    5.73   0.00   0.00      0      0  103.7   0.15   0.15    0.3   1.25   0.12   0.11   0.10   0.04   0.03   0.02   0.01   0.01   0.00   0.00      17       4
 1990 261    70    67    4.0      0   0.00      0      7      0     21      7      0     0.0  0.000      0      0  0.000  0.000  0.000  0.005    5.73   0.00   0.00      0      0  103.8   0.15   0.15    0.3   1.25   0.11   0.11   0.10   0.04   0.03   0.02   0.01   0.01   0.00   0.00      17       4
 1990 262    71    68    4.1      0   0.00      0      7      0     21      7      0     0.0  0.000      0      0  0.000  0.000  0.000  0.000    5.73   0.00   0.00      0      0  103.8   0.16   0.15    0.3   1.25   0.11   0.11   0.10   0.04   0.03   0.02   0.01   0.01   0.00   0.00      17       4
 1990 263    72    69    4.2      0   0.00      0      7      0     21      7      0     0.0  0.000      0      0  0.000  0.000  0.000  0.000    5.73   0.00   0.00      0      0  103.8   0.16   0.15    0.3   1.25   0.11   0.11   0.10   0.03   0.03   0.02   0.01   0.01   0.00   0.00      17       4
 1990 264    73    70    4.4      0   0.00      0      7      0     20      7      0     0.0  0.000      0      0  0.000  0.000  0.000  0.000    5.74   0.00   0.00      0      0  103.9   0.17   0.15    0.2   1.25   0.11   0.11   0.10   0.03   0.03   0.02   0.01   0.01   0.00   0.00      17       4
 1990 265    74    71    4.5      0   0.00      0      7      0     20      7      0     0.0  0.000      0      0  0.000  0.000  0.000  0.000    5.74   0.00   0.00      0      0  104.5   0.17   0.15    0.2   1.25   0.11   0.11   0.10   0.03   0.03   0.02   0.01   0.01   0.00   0.00      17       4
 1990 266    75    72    4.5      0   0.00      0      7      0     20      7      0     0.0  0.000      0      0  0.000  0.000  0.000  0.000    5.74   0.00   0.00      0      0  104.5   0.18   0.15    0.2   1.25   0.11   0.11   0.10   0.03   0.03   0.02   0.01   0.01   0.00   0.00      17       4
 1990 267    76    73    4.5      0   0.00      0      7      0     20      7      0     0.0  0.000      0      0  0.000  0.000  0.000  0.000    5.74   0.00   0.00      0      0  104.6   0.18   0.15    0.2   1.25   0.11   0.11   0.10   0.03   0.03   0.02   0.01   0.01   0.00   0.00      17       4
 1990 268    77    74    4.6      0   0.00      0      7      0     20      7      0     0.0  0.000      0      0  0.000  0.000  0.000  0.000    5.74   0.00   0.00      0      0  104.7   0.18   0.15    0.2   1.25   0.11   0.11   0.10   0.03   0.03   0.02   0.01   0.01   0.00   0.00      17       4
 1990 269    78    75    4.7      0   0.00      0      7      0     20      7      0     0.0  0.000      0      0  0.000  0.000  0.000  0.000    5.74   0.00   0.00      0      0  105.9   0.18   0.15    0.2   1.25   0.11   0.11   0.10   0.03   0.03   0.02   0.01   0.01   0.00   0.00      17       4
 1990 270    79    76    4.8      0   0.00      0      7      0     20      7      0     0.0  0.000      0      0  0.000  0.000  0.000  0.000    5.74   0.00   0.00      0      0  108.0   0.18   0.15    0.2   1.25   0.11   0.11   0.10   0.03   0.03   0.02   0.01   0.01   0.00   0.00      17       4
 1990 271    80    77    5.0      0   0.00      0      7      0     20      7      0     0.0  0.000      0      0  0.000  0.000  0.000  0.000    5.74   0.00   0.00      0      0  108.0   0.19   0.15    0.2   1.25   0.11   0.11   0.10   0.03   0.03   0.02   0.01   0.01   0.00   0.00      17       4
 1990 272    81    78    5.1      0   0.00      0      7      0     20      7      0     0.0  0.000      0      0  0.000  0.000  0.000  0.000    5.74   0.00   0.00      0      0  109.2   0.19   0.15    0.1   1.25   0.11   0.11   0.10   0.03   0.03   0.02   0.01   0.01   0.00   0.00      17       5
 1990 273    82    79    5.3      0   0.00      0      7      0     20      7      0     0.0  0.000      0      0  0.000  0.000  0.000  0.000    5.75   0.00   0.00      0      0  110.7   0.20   0.15    0.1   1.25   0.11   0.11   0.10   0.03   0.03   0.02   0.01   0.01   0.00   0.00      17       5
 1990 274    83    80    5.5      0   0.00      0      7      0     20      7      0     0.0  0.000      0      0  0.000  0.000  0.000  0.000    5.75   0.00   0.00      0      0  112.2   0.21   0.15    0.1   1.25   0.11   0.11   0.10   0.03   0.03   0.02   0.01   0.01   0.00   0.00      17       5
 1990 275    84    81    5.6      0   0.00      0      7      0     20      7      0     0.0  0.000      0      0  0.000  0.000  0.000  0.000    5.75   0.00   0.00      0      0  114.6   0.22   0.15    0.1   1.25   0.11   0.11   0.10   0.03   0.03   0.02   0.01   0.01   0.00   0.00      17       5
 1990 276    85    82    5.8      0   0.00      0      7      0     20      7      0     0.0  0.000      0      0  0.000  0.000  0.000  0.000    5.75   0.00   0.00      0      0  117.3   0.22   0.15    0.1   1.25   0.11   0.11   0.10   0.03   0.03   0.02   0.01   0.01   0.00   0.00      17       5
 1990 277    86    83    6.1      0   0.00      0      7      0     19      7      0     0.0  0.000      0      0  0.000  0.000  0.000  0.000    5.75   0.00   0.00      0      0  117.4   0.24   0.15    0.1   1.25   0.11   0.11   0.09   0.03   0.03   0.02   0.01   0.01   0.00   0.00      17       5
 1990 278    87    84    6.2      0   0.00      0      7      0     19      7      0     0.0  0.000      0      0  0.000  0.000  0.000  0.000    5.76   0.00   0.00      0      0  117.4   0.25   0.15    0.1   1.25   0.11   0.11   0.09   0.03   0.03   0.02   0.01   0.01   0.00   0.00      17       5
 1990 279    88    85    6.4      0   0.00      0      7      0     19      7      0     0.0  0.000      0      0  0.000  0.000  0.000  0.044    5.76   0.00   0.00      0      0  117.5   0.25   0.15    0.1   1.25   0.11   0.10   0.09   0.03   0.03   0.02   0.01   0.01   0.00   0.00      17       5
 1990 280    89    86    6.6      0   0.00      0      7      0     19      7      0     0.0  0.000      0      0  0.000  0.000  0.000  0.041    5.76   0.00   0.00      0      0  117.5   0.26   0.15    0.1   1.25   0.11   0.10   0.09   0.03   0.03   0.02   0.01   0.01   0.00   0.00      17       6
 1990 281    90    87    6.8      0   0.00      0      7      0     19      7      0     0.0  0.000      0      0  0.000  0.000  0.000  0.080    5.76   0.00   0.00      0      0  117.6   0.27   0.15    0.1   1.25   0.11   0.10   0.09   0.03   0.03   0.02   0.01   0.01   0.00   0.00      17       6
 1990 282    91    88    6.9      0   0.00      0      7      0     19      7      0     0.0  0.000      0      0  0.000  0.000  0.000  0.000    5.76   0.00   0.00      0      0  119.5   0.28   0.15    0.1   1.25   0.10   0.10   0.09   0.03   0.03   0.02   0.01   0.01   0.00   0.00      17       6
 1990 283    92    89    7.1      0   0.00      0      7      0     19      7      0     0.0  0.000      0      0  0.000  0.000  0.000  0.000    5.76   0.00   0.00      0      0  121.7   0.28   0.15    0.1   1.25   0.10   0.10   0.09   0.03   0.03   0.02   0.01   0.01   0.00   0.00      17       6
 1990 284    93    90    7.2      0   0.00      0      7      0     19      7      0     0.0  0.000      0      0  0.000  0.000  0.000  0.000    5.77   0.00   0.00      0      0  121.7   0.29   0.15    0.1   1.25   0.10   0.10   0.09   0.03   0.03   0.02   0.01   0.01   0.00   0.00      17       6
 1990 285    94    91    7.4      0   0.00      0      7      0     18      7      0     0.0  0.000      0      0  0.000  0.000  0.000  0.028    5.77   0.00   0.00      0      0  123.0   0.30   0.15    0.1   1.25   0.10   0.10   0.09   0.03   0.03   0.02   0.01   0.01   0.00   0.00      17       6
 1990 286    95    92    7.5      0   0.00      0      7      0     18      7      0     0.0  0.000      0      0  0.000  0.000  0.000  0.000    5.77   0.00   0.00      0      0  124.4   0.30   0.15    0.1   1.25   0.10   0.10   0.09   0.03   0.03   0.02   0.01   0.01   0.00   0.00      17       6
 1990 287    96    93    7.6      0   0.00      0      7      0     18      7      0     0.0  0.000      0      0  0.000  0.000  0.000  0.000    5.76   0.00   0.00      0      0  127.1   0.31   0.15    0.1   1.25   0.10   0.10   0.09   0.03   0.03   0.02   0.01   0.01   0.00   0.00      17       6
 1990 288    97    94    7.7      1   0.00      0      7      0     18      7      0     0.0  0.000      0      0  0.000  0.000  0.000  0.000    5.76   0.00   0.00      0      0  128.2   0.31   0.15    0.0   1.25   0.10   0.10   0.09   0.03   0.03   0.02   0.01   0.01   0.00   0.00      17       6
 1990 289    98    95    7.8      1   0.00      0      7      0     18      7      0     0.0  0.000      0      0  0.000  0.000  0.000  0.000    5.76   0.00   0.00      0      0  128.9   0.32   0.15    0.0   1.25   0.10   0.10   0.09   0.03   0.03   0.02   0.01   0.01   0.00   0.00      17       6
 1990 290    99    96    7.9      1   0.00      1      7      0     18      7      0     0.0  0.000      0      0  0.000  0.000  0.000  0.000    5.76   0.00   0.00      0      0  130.9   0.32   0.15    0.0   1.25   0.10   0.10   0.09   0.03   0.03   0.02   0.01   0.01   0.00   0.00      17       7
 1990 291   100    97    8.1      1   0.00      1      7      0     18      7      0     0.0  0.000      0      0  0.000  0.000  0.000  0.000    5.76   0.00   0.00      0      0  135.1   0.33   0.15    0.0   1.25   0.10   0.10   0.09   0.03   0.03   0.02   0.01   0.01   0.00   0.00      17       7
 1990 292   101    98    8.3      1   0.00      1      7      0     18      7      0     0.0  0.000      0      0  0.000  0.000  0.000  0.000    5.76   0.00   0.00      0      0  139.5   0.34   0.15    0.0   1.25   0.10   0.10   0.09   0.03   0.03   0.02   0.01   0.01   0.00   0.00      17       7
 1990 293   102    99    8.5      1   0.00      1      7      0     18      7      0     0.0  0.000      0      0  0.000  0.000  0.000  0.000    5.76   0.00   0.00      0      0  143.7   0.34   0.15    0.0   1.25   0.10   0.10   0.09   0.03   0.03   0.02   0.01   0.01   0.00   0.00      17       7
 1990 294   103   100    8.7      1   0.00      1      7      0     18      7      0     0.0  0.000      0      0  0.000  0.000  0.000  0.000    5.76   0.00   0.00      0      0  147.2   0.35   0.15    0.0   1.25   0.10   0.10   0.09   0.03   0.03   0.02   0.01   0.01   0.00   0.00      17       7
 1990 295   104   101    8.9      1   0.00      1      7      0     18      7      0     0.0  0.000      0      0  0.000  0.000  0.000  0.000    5.76   0.00   0.00      0      0  149.5   0.36   0.15    0.0   1.25   0.10   0.10   0.09   0.03   0.03   0.02   0.01   0.01   0.00   0.00      17       7
 1990 296   105   102    9.1      1   0.00      1      7      0     18      7      0     0.0  0.000      0      0  0.000  0.000  0.000  0.000    5.76   0.00   0.00      0      0  152.4   0.37   0.15    0.0   1.25   0.10   0.10   0.09   0.03   0.03   0.02   0.01   0.01   0.00   0.00      17       7
 1990 297   106   103    9.2      1   0.00      1      7      0     18      7      0     0.0  0.000      0      0  0.000  0.000  0.000  0.000    5.76   0.00   0.00      0      0  154.3   0.38   0.15    0.0   1.25   0.10   0.09   0.09   0.03   0.03   0.02   0.01   0.01   0.00   0.00      17       7
 1990 298   107   104    9.4      1   0.00      1      7      0     17      8      0     0.0  0.000      0      0  0.000  0.000  0.000  0.000    5.76   0.00   0.00      0      0  156.7   0.39   0.15    0.0   1.25   0.10   0.09   0.09   0.03   0.03   0.02   0.01   0.01   0.00   0.00      17       7
 1990 299   108   105    9.6      1   0.00      1      7      0     17      8      0     0.0  0.000      0      0  0.000  0.000  0.000  0.000    5.75   0.00   0.00      0      0  159.2   0.40   0.15    0.0   1.25   0.10   0.09   0.09   0.03   0.03   0.02   0.01   0.01   0.00   0.00      17       7
 1990 300   109   106    9.9      3   0.00      1      7      0     17      8      0     0.0  0.000      0      0  0.000  0.000  0.000  0.000    5.75   0.00   0.00      0      0  162.3   0.41   0.15    0.0   1.25   0.10   0.09   0.09   0.03   0.03   0.02   0.01   0.01   0.00   0.00      17       8
 1990 301   110   107   10.1      3   0.00      1      7      0     17      8      0     0.0  0.000      0      0  0.000  0.000  0.000  0.000    5.75   0.00   0.00      0      0  165.3   0.42   0.15    0.0   1.25   0.10   0.09   0.08   0.03   0.03   0.02   0.01   0.01   0.00   0.00      17       8
 1990 302   111   108   10.3      3   0.00      1      7      0     17      8      0     0.0  0.000      0      0  0.000  0.000  0.000  0.000    5.75   0.00   0.00      0      0  168.2   0.43   0.15    0.0   1.25   0.10   0.09   0.08   0.03   0.03   0.02   0.01   0.01   0.00   0.00      17       8
 1990 303   112   109   10.6      3   0.00      1      7      0     17      8      0     0.0  0.000      0      0  0.000  0.000  0.000  0.073    5.75   0.00   0.00      0      0  168.6   0.45   0.15    0.0   1.25   0.09   0.09   0.08   0.03   0.03   0.02   0.01   0.01   0.00   0.00      17       8
 1990 304   113   110   10.8      3   0.00      1      7      0     17      8      0     0.0  0.000      0      0  0.000  0.000  0.000  0.000    5.75   0.00   0.00      0      0  167.3   0.46   0.15    0.0   1.25   0.09   0.09   0.08   0.03   0.02   0.02   0.01   0.01   0.00   0.00      17       8
 1990 305   114   111   11.0      3   0.00      1      7      0     17      8      0     0.0  0.000      0      0  0.000  0.000  0.000  0.000    5.74   0.00   0.01      0      0  166.7   0.47   0.15    0.0   1.25   0.09   0.09   0.08   0.03   0.02   0.02   0.01   0.01   0.00   0.00      17       8
 1990 306   115   112   11.2      3   0.00      1      7      0     17      8      0     0.0  0.000      0      0  0.000  0.000  0.000  0.000    5.74   0.00   0.01      0      0  166.0   0.48   0.15    0.0   1.25   0.09   0.09   0.08   0.03   0.02   0.02   0.01   0.01   0.00   0.00      17       8
 1990 307   116   113   11.5      3   0.00      1      7      0     17      8      0     0.0  0.000      0      0  0.000  0.000  0.000  0.000    5.74   0.00   0.01      0      0  167.0   0.49   0.15    0.0   1.25   0.09   0.09   0.08   0.03   0.02   0.02   0.01   0.01   0.00   0.00      17       8
 1990 308   117   114   11.6      3   0.00      1      7      0     16      8      0     0.0  0.000      0      0  0.000  0.000  0.000  0.008    5.74   0.00   0.02      0      0  164.6   0.50   0.15    0.0   1.25   0.09   0.09   0.08   0.03   0.02   0.02   0.01   0.01   0.00   0.00      17       9
 1990 309   118   115   11.7      3   0.00      1      7      0     16      9      0     0.0  0.000      0      0  0.000  0.000  0.000  0.000    5.73   0.00   0.02      0      0  160.9   0.50   0.15    0.0   1.25   0.09   0.09   0.08   0.03   0.02   0.02   0.01   0.01   0.00   0.00      17       9
 1990 310   119   116   11.8      3   0.00      1      7      0     16      9      0     0.0  0.000      0      0  0.000  0.000  0.000  0.000    5.73   0.00   0.02      0      0  159.1   0.51   0.15    0.0   1.25   0.09   0.09   0.08   0.03   0.02   0.02   0.01   0.01   0.00   0.00      17       9
 1990 311   120   117   12.0      3   0.00      1      8      0     16      9      0     0.0  0.000      0      0  0.000  0.000  0.000  0.000    5.73   0.00   0.03      0      0  156.8   0.51   0.15    0.0   1.25   0.09   0.09   0.08   0.03   0.02   0.02   0.01   0.01   0.00   0.00      17       9
 1990 312   121   118   12.1      3   0.00      1      8      0     16      9      0     0.0  0.000      0      0  0.000  0.000  0.000  0.000    5.73   0.00   0.03      0      0  156.6   0.52   0.15    0.0   1.25   0.09   0.09   0.08   0.03   0.02   0.02   0.01   0.01   0.00   0.00      17       9
 1990 313   122   119   12.3      3   0.00      1      8      0     16      9      0     0.0  0.000      0      0  0.000  0.000  0.000  0.000    5.73   0.00   0.04      0      0  155.6   0.52   0.15    0.0   1.25   0.09   0.09   0.08   0.03   0.02   0.02   0.01   0.01   0.00   0.00      17       9
 1990 314   123   120   12.5      3   0.00      1      8      0     16      9      0     0.0  0.000      0      0  0.000  0.000  0.000  0.000    5.72   0.00   0.04      0      0  153.5   0.53   0.15    0.0   1.25   0.09   0.09   0.08   0.03   0.02   0.02   0.01   0.01   0.00   0.00      17       9
 1990 315   124   121   12.7      3   0.00      1      8      0     16      9      0     0.0  0.000      0      0  0.000  0.000  0.000  0.000    5.72   0.00   0.05      0      0  151.2   0.54   0.15    0.0   1.25   0.09   0.09   0.08   0.03   0.02   0.02   0.01   0.01   0.00   0.00      17       9
 1990 316   125   122   12.9      3   0.00      1      8      0     16     10      0     0.0  0.000      0      0  0.000  0.000  0.000  0.000    5.72   0.00   0.05      0      0  150.6   0.55   0.15    0.0   1.25   0.09   0.09   0.08   0.03   0.02   0.02   0.01   0.01   0.00   0.00      17       9
 1990 317   126   123   13.2      3   0.00      1      8      0     16     10      0     0.0  0.000      1      0  0.000  0.000  0.000  0.000    5.71   0.00   0.06      0      1  148.6   0.56   0.15    0.0   1.25   0.09   0.09   0.08   0.03   0.02   0.02   0.01   0.01   0.00   0.00      17       9
 1990 318   127   124   13.4      5   0.00      1      8      0     16     10      0     0.0  0.000      1      1  0.000  0.000  0.000  0.000    5.72   0.00   0.06      0      1  148.1   0.58   0.15    0.0   1.25   0.09   0.08   0.08   0.03   0.02   0.02   0.01   0.01   0.00   0.00      17       9
 1990 319   128   125   13.6      5   0.00      1      8      0     16     10      0     0.0  0.000      1      1  0.000  0.000  0.000  0.000    5.72   0.00   0.07      0      1  148.1   0.59   0.15    0.0   1.25   0.09   0.08   0.08   0.03   0.02   0.02   0.01   0.00   0.00   0.00      17      10
 1990 320   129   126   13.8      5   0.00      1      8      0     16     10      0     2.4  0.000      1      1  0.000  0.000  0.000  0.053    5.72   0.00   0.08      0      1  146.5   0.60   0.15    0.0   1.25   0.09   0.08   0.08   0.03   0.02   0.02   0.01   0.00   0.00   0.00      17      10
 1990 321   130   127   14.0      5   0.00      1      8      0     16     10      0     8.8  0.000      1      1  0.000  0.000  0.000  0.000    5.71   0.00   0.08      0      1  142.6   0.61   0.15    0.0   1.25   0.09   0.08   0.08   0.03   0.02   0.02   0.01   0.00   0.00   0.00      17      10
 1990 322   131   128   14.2      5   0.00      1      8      0     15     10      0     8.4  0.001      1      1  0.000  0.000  0.000  0.000    5.70   0.00   0.08      0      1  139.7   0.61   0.15    0.0   1.25   0.09   0.08   0.08   0.03   0.02   0.02   0.01   0.00   0.00   0.00      17      10
 1990 323   132   129   14.5      5   0.00      1      8      0     15     11      0     9.5  0.001      1      1  0.000  0.000  0.000  0.000    5.70   0.00   0.09      0      1  137.6   0.63   0.15    0.0   1.25   0.09   0.08   0.08   0.03   0.02   0.02   0.01   0.00   0.00   0.00      17      10
 1990 324   133   130   14.7      5   0.00      1      8      0     15     11      0    13.1  0.002      1      1  0.000  0.000  0.000  0.000    5.70   0.00   0.09      0      1  137.3   0.64   0.15    0.0   1.25   0.08   0.08   0.08   0.03   0.02   0.02   0.01   0.00   0.00   0.00      17      10
 1990 325   134   131   15.0      5   0.00      1      8      0     15     11      0    15.9  0.003      1      1  0.000  0.000  0.000  0.000    5.69   3.21   0.10      0      1  134.4   0.66   0.15    0.0   1.25   0.08   0.08   0.07   0.03   0.02   0.02   0.01   0.00   0.00   0.00      17      10
 1990 326   135   132   15.2      5   0.00      1      8      0     15     11      0    18.7  0.004      1      1  0.000  0.000  0.000  0.000    5.69   4.42   0.10      0      1  131.5   0.67   0.15    0.0   1.25   0.08   0.08   0.07   0.03   0.02   0.02   0.01   0.00   0.00   0.00      17      10
 1990 327   136   133   15.4      5   0.00      2      9      0     15     11      0    22.0  0.006      1      1  0.000  0.000  0.000  0.000    5.68   5.73   0.11      0      1  128.6   0.68   0.15    0.0   1.25   0.08   0.08   0.07   0.03   0.02   0.02   0.01   0.00   0.00   0.00      17      10
 1990 328   137   134   15.7      5   0.00      2      9      0     15     11      0    26.3  0.008      1      1  0.000  0.000  0.000  0.000    5.67   7.06   0.11      0      1  126.7   0.69   0.15    0.0   1.25   0.08   0.08   0.07   0.03   0.02   0.02   0.01   0.00   0.00   0.00      17      11
 1990 329   138   135   15.9      5   0.00      2      9      0     15     12      0    33.2  0.010      1      1  0.000  0.000  0.000  0.000    5.66   8.18   0.12      0      1  125.7   0.70   0.15    0.0   1.25   0.08   0.08   0.07   0.03   0.02   0.02   0.01   0.00   0.00   0.00      17      11
 1990 330   139   136   16.1      5   0.00      2      9      0     15     12      0    34.0  0.012      2      1  0.000  0.000  0.000  0.028    5.66   9.33   0.13      0      2  124.2   0.70   0.15    0.0   1.25   0.08   0.08   0.07   0.03   0.02   0.02   0.01   0.00   0.00   0.00      17      11
 1990 331   140   137   16.2      5   0.00      2      9      0     15     12      0    38.8  0.014      2      1  0.000  0.000  0.000  0.000    5.65  10.19   0.14      0      2  122.6   0.71   0.15    0.0   1.25   0.08   0.08   0.07   0.03   0.02   0.02   0.01   0.00   0.00   0.00      17      11
 1990 332   141   138   16.2      5   0.00      2      9      0     15     12      0    41.1  0.016      2      1  0.000  0.000  0.000  0.000    5.64  11.06   0.14      0      2  120.6   0.72   0.15    0.0   1.25   0.08   0.08   0.07   0.03   0.02   0.02   0.01   0.00   0.00   0.00      17      11
 1990 333   142   139   16.2      5   0.00      2      9      0     15     12      1    45.1  0.018      2      1  0.000  0.000  0.000  0.000    5.63  11.99   0.15      0      2  118.4   0.72   0.15    0.0   1.25   0.08   0.08   0.07   0.03   0.02   0.02   0.01   0.00   0.00   0.00      17      11
 1990 334   143   140   16.2      5   0.00      2      9      0     14     12      1    52.3  0.021      2      1  0.000  0.000  0.000  0.000    5.62  12.81   0.16      0      2  118.4   0.73   0.15    0.0   1.25   0.08   0.08   0.07   0.03   0.02   0.02   0.01   0.00   0.00   0.00      17      11
 1990 335   144   141   16.2      5   0.00      2      9      0     14     13      1    56.0  0.024      2      1  0.000  0.000  0.000  0.000    5.62  13.68   0.17      0      2  117.2   0.74   0.15    0.0   1.25   0.08   0.08   0.07   0.03   0.02   0.02   0.01   0.00   0.00   0.00      17      11
 1990 336   145   142   16.2      5   0.00      2      9      0     14     13      1    57.9  0.027      2      1  0.000  0.000  0.000  0.000    5.61  14.93   0.18      0      2  117.3   0.74   0.15    0.0   1.25   0.08   0.08   0.07   0.02   0.02   0.02   0.01   0.00   0.00   0.00      17      11
 1990 337   146   143   16.2      5   0.00      2      9      0     14     13      1    54.6  0.029      2      1  0.000  0.000  0.000  0.000    5.60  16.09   0.18      0      2  116.1   0.74   0.15    0.0   1.25   0.08   0.08   0.07   0.02   0.02   0.02   0.01   0.00   0.00   0.00      17      11
 1990 338   147   144   16.2      5   0.00      2      9      0     14     13      1    61.2  0.032      2      1  0.000  0.000  0.000  0.000    5.59  16.85   0.19      0      2  114.4   0.74   0.15    0.0   1.25   0.08   0.08   0.07   0.02   0.02   0.02   0.01   0.00   0.00   0.00      17      11
 1990 339   148   145   16.2      5   0.00      2      9      0     14     13      1    61.9  0.036      3      1  0.000  0.000  0.000  0.000    5.58  18.05   0.20      0      3  114.6   0.74   0.15    0.0   1.25   0.08   0.08   0.07   0.02   0.02   0.02   0.01   0.00   0.00   0.00      17      12
 1990 340   149   146   16.2      5   0.00      2      9      1     14     13      1    62.4  0.040      3      1  0.000  0.000  0.000  0.028    5.57  19.41   0.20      0      3  114.7   0.74   0.15    0.0   1.25   0.08   0.07   0.07   0.02   0.02   0.02   0.01   0.00   0.00   0.00      17      12
 1990 341   150   147   16.2      5   0.00      2      9      1     14     13      1    67.6  0.044      3      1  0.000  0.000  0.000  0.050    5.56  20.41   0.21      0      3  113.8   0.74   0.15    0.0   1.25   0.08   0.07   0.07   0.02   0.02   0.02   0.01   0.00   0.00   0.00      17      12
 1990 342   151   148   16.2      5   0.00      2      9      1     14     14      1    74.4  0.047      3      2  0.000  0.000  0.000  0.000    5.54  21.13   0.22      0      3  112.7   0.74   0.15    0.0   1.25   0.08   0.07   0.07   0.02   0.02   0.02   0.01   0.00   0.00   0.00      17      12
 1990 343   152   149   16.2      5   0.00      2      9      1     14     14      1    73.9  0.052      3      2  0.000  0.000  0.000  0.000    5.53  22.91   0.23      0      3  112.8   0.74   0.15    0.0   1.25   0.08   0.07   0.07   0.02   0.02   0.02   0.01   0.00   0.00   0.00      17      12
 1990 344   153   150   16.2      5   0.00      2      9      1     14     14      1    74.8  0.057      3      2  0.000  0.000  0.000  0.031    5.52  24.90   0.23      0      3  112.9   0.74   0.15    0.0   1.25   0.08   0.07   0.07   0.02   0.02   0.02   0.01   0.00   0.00   0.00      17      12
 1990 345   154   151   16.2      5   0.00      2      9      1     14     14      1    81.9  0.062      3      2  0.000  0.000  0.000  0.000    5.50  25.65   0.24      0      3  112.6   0.74   0.15    0.0   1.25   0.08   0.07   0.07   0.02   0.02   0.02   0.01   0.00   0.00   0.00      17      12
 1990 346   155   152   16.2      5   0.00      2      9      1     13     14      1    83.3  0.066      3      2  0.000  0.000  0.000  0.000    5.48  26.90   0.25      0      3  112.7   0.74   0.15    0.0   1.25   0.08   0.07   0.07   0.02   0.02   0.01   0.01   0.00   0.00   0.00      17      12
 1990 347   156   153   16.2      5   0.00      2      9      1     13     14      1    90.4  0.071      4      2  0.000  0.000  0.000  0.000    5.47  27.62   0.26      0      4  112.8   0.74   0.15    0.0   1.25   0.07   0.07   0.07   0.02   0.02   0.01   0.01   0.00   0.00   0.00      17      12
 1990 348   157   154   16.2      5   0.00      2      9      1     13     14      1    90.8  0.075      4      2  0.000  0.000  0.000  0.000    5.45  28.77   0.26      0      4  112.1   0.74   0.15    0.0   1.25   0.07   0.07   0.07   0.02   0.02   0.01   0.01   0.00   0.00   0.00      18      12
 1990 349   158   155   16.2      5   0.00      2      9      1     13     14      1    90.1  0.080      4      2  0.000  0.000  0.000  0.000    5.43  30.22   0.26      0      4  110.9   0.74   0.15    0.0   1.25   0.07   0.07   0.07   0.02   0.02   0.01   0.01   0.00   0.00   0.00      18      12
 1990 350   159   156   16.2      5   0.00      2      9      1     13     14      1    90.5  0.086      4      2  0.000  0.000  0.000  0.000    5.41  31.76   0.27      0      4  110.2   0.74   0.15    0.0   1.25   0.07   0.07   0.07   0.02   0.02   0.01   0.01   0.00   0.00   0.00      18      12
 1990 351   160   157   16.2      5   0.00      2      9      1     13     14      1    91.9  0.092      4      2  0.000  0.000  0.000  0.000    5.39  33.90   0.27      0      4  110.3   0.74   0.15    0.0   1.25   0.07   0.07   0.06   0.02   0.02   0.01   0.01   0.00   0.00   0.00      18      12
 1990 352   161   158   16.2      5   0.00      2      9      1     13     14      1    99.3  0.099      4      2  0.000  0.000  0.000  0.018    5.36  34.77   0.28      0      4  110.0   0.74   0.15    0.0   1.25   0.07   0.07   0.06   0.02   0.02   0.01   0.01   0.00   0.00   0.00      18      13
 1990 353   162   159   16.2      5   0.00      2      9      2     13     15      2   100.5  0.105      4      2  0.000  0.000  0.000  0.000    5.33  36.32   0.29      0      4  109.2   0.74   0.15    0.0   1.25   0.07   0.07   0.06   0.02   0.02   0.01   0.01   0.00   0.00   0.00      18      13
 1990 354   163   160   16.2      5   0.00      2      9      2     13     15      2   101.5  0.111      4      2  0.000  0.000  0.000  0.000    5.31  37.89   0.29      0      4  108.4   0.74   0.15    0.0   1.25   0.07   0.07   0.06   0.02   0.02   0.01   0.01   0.00   0.00   0.00      18      13
 1990 355   164   161   16.2      5   0.00      2      9      2     13     15      2   106.8  0.118      4      2  0.000  0.000  0.000  0.000    5.28  38.89   0.30      0      4  108.3   0.74   0.15    0.0   1.25   0.07   0.07   0.06   0.02   0.02   0.01   0.01   0.00   0.00   0.00      18      13
 1990 356   165   162   16.2      5   0.00      2      9      2     13     15      2   111.6  0.126      5      2  0.000  0.000  0.000  0.019    5.24  40.90   0.31      0      5  108.4   0.74   0.15    0.0   1.25   0.07   0.07   0.06   0.02   0.02   0.01   0.01   0.00   0.00   0.00      18      13
 1990 357   166   163   16.2      5   0.00      2      9      2     13     15      2   114.6  0.134      5      2  0.000  0.000  0.000  0.000    5.21  42.51   0.32      0      5  108.6   0.74   0.15    0.0   1.25   0.07   0.07   0.06   0.02   0.02   0.01   0.01   0.00   0.00   0.00      18      13
 1990 358   167   164   16.2      5   0.00      2      9      2     12     15      2   116.3  0.142      5      2  0.000  0.000  0.000  0.040    5.17  44.52   0.32      0      5  108.7   0.74   0.15    0.0   1.25   0.07   0.07   0.06   0.02   0.02   0.01   0.01   0.00   0.00   0.00      18      13
 1990 359   168   165   16.2      5   0.00      2      9      2     12     15      2   120.9  0.149      5      2  0.000  0.000  0.000  0.000    5.13  45.46   0.33      0      5  108.4   0.74   0.15    0.0   1.25   0.07   0.07   0.06   0.02   0.02   0.01   0.01   0.00   0.00   0.00      18      13
 1990 360   169   166   16.2      5   0.00      2      8      2     12     15      2   124.7  0.156      5      2  0.000  0.000  0.000  0.000    5.09  46.50   0.34      0      5  108.1   0.74   0.15    0.0   1.25   0.07   0.07   0.06   0.02   0.02   0.01   0.01   0.00   0.00   0.00      18      13
 1990 361   170   167   16.2      5   0.00      2      8      2     12     15      2   129.3  0.164      5      2  0.000  0.000  0.000  0.000    5.05  47.46   0.35      0      5  108.0   0.74   0.15    0.0   1.25   0.07   0.07   0.06   0.02   0.02   0.01   0.01   0.00   0.00   0.00      18      13
 1990 362   171   168   16.2      5   0.00      1      8      3     12     15      2   132.0  0.171      5      2  0.000  0.000  0.000  0.000    5.01  48.60   0.35      0      5  107.7   0.74   0.15    0.0   1.25   0.07   0.07   0.06   0.02   0.02   0.01   0.01   0.00   0.00   0.00      19      13
 1990 363   172   169   16.2      5   0.00      1      8      3     12     15      2   133.7  0.178      6      2  0.000  0.000  0.000  0.000    4.97  49.72   0.36      0      6  107.3   0.74   0.15    0.0   1.25   0.07   0.07   0.06   0.02   0.02   0.01   0.01   0.00   0.00   0.00      19      13
 1990 364   173   170   16.2      5   0.00      1      8      3     12     16      2   134.9  0.185      6      2  0.000  0.000  0.000  0.000    4.93  50.98   0.36      0      6  106.6   0.74   0.15    0.0   1.25   0.07   0.07   0.06   0.02   0.02   0.01   0.01   0.00   0.00   0.00      19      14
 1990 365   174   171   16.2      5   0.00      1      8      3     12     16      2   138.2  0.193      6      2  0.000  0.000  0.000  0.000    4.88  52.10   0.37      0      6  106.3   0.74   0.15    0.0   1.25   0.07   0.06   0.06   0.02   0.02   0.01   0.01   0.00   0.00   0.00      19      14
 1991 001   175   172   16.2      5   0.00      1      8      3     12     16      2   143.7  0.202      6      2  0.000  0.000  0.000  0.000    4.82  53.14   0.38      0      6  106.4   0.74   0.15    0.0   1.25   0.07   0.06   0.06   0.02   0.02   0.01   0.01   0.00   0.00   0.00      19      14
 1991 002   176   173   16.2      5   0.00      1      8      3     12     16      2   145.5  0.211      6      2  0.000  0.000  0.000  0.000    4.76  54.72   0.39      0      6  106.6   0.74   0.15    0.0   1.25   0.07   0.06   0.06   0.02   0.02   0.01   0.01   0.00   0.00   0.00      19      14
 1991 003   177   174   16.2      5   0.00      1      8      4     12     16      2   151.0  0.220      6      2  0.000  0.000  0.000  0.000    4.70  55.73   0.39      0      6  106.7   0.74   0.15    0.0   1.25   0.07   0.06   0.06   0.02   0.02   0.01   0.01   0.00   0.00   0.00      19      14
 1991 004   178   175   16.2      7   0.00      1      8      4     11     16      2   154.5  0.228      6      2  0.000  0.000  0.000  0.000    4.64  56.72   0.40      0      6  106.3   0.74   0.15    0.0   1.25   0.06   0.06   0.06   0.02   0.02   0.01   0.01   0.00   0.00   0.00      19      14
 1991 005   179   176   16.2      7   0.00      1      8      4     11     16      2   155.4  0.242      7      2  0.000  0.000  0.000  0.000    4.55  57.88   0.42      0      7  105.7   0.74   0.15    0.0   1.25   0.06   0.06   0.06   0.02   0.02   0.01   0.01   0.00   0.00   0.00      19      14
 1991 006   180   177   16.2      7   0.00      1      8      4     11     15      3   157.9  0.256      7      2  0.000  0.000  0.000  0.000    4.45  58.94   0.43      0      7  105.9   0.74   0.15    0.0   1.25   0.06   0.06   0.06   0.02   0.02   0.01   0.01   0.00   0.00   0.00      20      14
 1991 007   181   178   16.2      7   0.00      1      8      4     11     15      3   160.0  0.267      7      2  0.000  0.000  0.000  0.000    4.37  59.96   0.45      0      7  106.0   0.74   0.15    0.0   1.25   0.06   0.06   0.06   0.02   0.02   0.01   0.01   0.00   0.00   0.00      20      14
 1991 008   182   179   16.2      7   0.00      1      8      4     11     15      3   158.4  0.275      7      1  0.000  0.000  0.000  0.000    4.33  60.64   0.45      0      7  106.1   0.74   0.15    0.0   1.25   0.06   0.06   0.06   0.02   0.02   0.01   0.01   0.00   0.00   0.00      20      14
 1991 009   183   180   16.2      7   0.00      0      8      4     11     15      3   155.4  0.279      7      1  0.000  0.000  0.000  0.000    4.34  60.91   0.46      0      7  106.2   0.74   0.15    0.0   1.25   0.06   0.06   0.06   0.02   0.02   0.01   0.01   0.00   0.00   0.00      21      14
 1991 010   184   181   16.2      7   0.00      0      7      4     11     15      3   152.8  0.282      7      1  0.000  0.000  0.000  0.000    4.34  61.16   0.46      0      7  106.3   0.74   0.15    0.0   1.25   0.06   0.06   0.05   0.02   0.02   0.01   0.01   0.00   0.00   0.00      21      15
 1991 011   185   182   16.2      7   0.00      0      7      4     11     14      3   150.4  0.285      7      1  0.000  0.000  1.000  0.000    4.34  61.36   0.46      0      7  106.4   0.74   0.15    0.0   1.25   0.06   0.06   0.05   0.02   0.02   0.01   0.01   0.00   0.00   0.00      21      15
 1991 012   186   183   16.2      7   0.00      0      7      4     11     14      3   149.3  0.287      7      1  0.000  0.000  0.000  0.000    4.35  61.49   0.47      0      7  106.5   0.74   0.15    0.0   1.25   0.06   0.06   0.05   0.02   0.02   0.01   0.01   0.00   0.00   0.00      21      15
 1991 013   187   184   16.2      7   0.00      0      7      4     11     14      3   147.6  0.289      7      1  0.000  0.000  0.000  0.000    4.35  61.62   0.47      0      7  106.6   0.74   0.15    0.0   1.25   0.06   0.06   0.05   0.02   0.02   0.01   0.01   0.00   0.00   0.00      21      15
 1991 014   188   185   16.2      7   0.00      0      7      4     11     14      3   146.4  0.291      7      1  0.000  0.000  0.000  0.000    4.35  61.71   0.47      0      7  106.7   0.74   0.15    0.0   1.25   0.06   0.06   0.05   0.02   0.02   0.01   0.01   0.00   0.00   0.00      21      15
 1991 015   189   186   16.2      7   0.00      0      7      4     11     14      3   145.1  0.292      7      1  0.000  0.000  0.000  0.000    4.36  61.80   0.47      0      7  106.8   0.74   0.15    0.0   1.25   0.06   0.06   0.05   0.02   0.02   0.01   0.01   0.00   0.00   0.00      21      15
 1991 016   190   187   16.2      8   0.00      0      7      4     11     14      3   143.6  0.293      7      1  0.000  0.000  0.000  0.000    4.36  61.89   0.47      0      7  106.8   0.74   0.15    0.0   1.25   0.06   0.06   0.05   0.02   0.02   0.01   0.01   0.00   0.00   0.00      21      15

*DSSAT Cropping System Model Ver. 4.0.2.000               Aug 12, 2016; 09:16:44

*RUN   2        : UYSB                    
 MODEL          : CRGRO040 - Soybean         
 EXPERIMENT     : UYSB0192 SB    late to create DSS                             
 TREATMENT  1   : UYSB                    

@YEAR DOY   DAS   DAP   L#SD   GSTD   LAID   LWAD   SWAD   GWAD   RWAD   CWAD   G#AD    GWGD   HIAD   PWAD   P#AD   WSPD   WSGD   NSTD   EWSD    LN%D   SH%D   HIPD   PWDD   PWTD   SLAD   CHTD   CWID   NWAD   RDPD   RL1D   RL2D   RL3D   RL4D   RL5D   RL6D   RL7D   RL8D   RL9D   RL10   SNW0C   SNW1C
 1991 194     3     0    0.0      0   0.00      0      0      0      0      0      0     0.0  0.000      0      0  0.000  0.000  0.000  0.000    0.00   0.00   0.00      0      0    0.0   0.00   0.00    0.0   0.00   0.00   0.00   0.00   0.00   0.00   0.00   0.00   0.00   0.00   0.00       0       0
 1991 195     4     1    0.0      0   0.00      0      0      0      0      0      0     0.0  0.000      0      0  0.000  0.000  0.000  0.000    0.00   0.00   0.00      0      0    0.0   0.00   0.00    0.0   0.00   0.00   0.00   0.00   0.00   0.00   0.00   0.00   0.00   0.00   0.00       0       0
 1991 196     5     2    0.0      0   0.00      0      0      0      0      0      0     0.0  0.000      0      0  0.000  0.000  0.000  0.000    0.00   0.00   0.00      0      0    0.0   0.00   0.00    0.0   0.00   0.00   0.00   0.00   0.00   0.00   0.00   0.00   0.00   0.00   0.00       0       0
 1991 197     6     3    0.0      0   0.00      0      0      0      0      0      0     0.0  0.000      0      0  0.000  0.000  0.000  0.000    0.00   0.00   0.00      0      0    0.0   0.00   0.00    0.0   0.00   0.00   0.00   0.00   0.00   0.00   0.00   0.00   0.00   0.00   0.00       0       0
 1991 198     7     4    0.0      0   0.00      0      0      0      0      0      0     0.0  0.000      0      0  0.000  0.000  0.000  0.000    0.00   0.00   0.00      0      0    0.0   0.00   0.00    0.0   0.00   0.00   0.00   0.00   0.00   0.00   0.00   0.00   0.00   0.00   0.00       0       0
 1991 199     8     5    0.0      0   0.00      0      0      0      0      0      0     0.0  0.000      0      0  0.000  0.000  0.000  0.000    0.00   0.00   0.00      0      0    0.0   0.00   0.00    0.0   0.00   0.00   0.00   0.00   0.00   0.00   0.00   0.00   0.00   0.00   0.00       0       0
 1991 200     9     6    0.0      0   0.00      0      0      0      0      0      0     0.0  0.000      0      0  0.000  0.000  0.000  0.000    0.00   0.00   0.00      0      0    0.0   0.00   0.00    0.0   0.00   0.00   0.00   0.00   0.00   0.00   0.00   0.00   0.00   0.00   0.00       0       0
 1991 201    10     7    0.0      0   0.00      0      0      0      0      0      0     0.0  0.000      0      0  0.000  0.000  0.000  0.000    0.00   0.00   0.00      0      0    0.0   0.00   0.00    0.0   0.00   0.00   0.00   0.00   0.00   0.00   0.00   0.00   0.00   0.00   0.00       0       0
 1991 202    11     8    0.0      0   0.00      0      0      0      0      0      0     0.0  0.000      0      0  0.000  0.000  0.000  0.000    0.00   0.00   0.00      0      0    0.0   0.00   0.00    0.0   0.00   0.00   0.00   0.00   0.00   0.00   0.00   0.00   0.00   0.00   0.00       0       0
 1991 203    12     9    0.0      0   0.00      0      0      0      0      0      0     0.0  0.000      0      0  0.000  0.000  0.000  0.000    0.00   0.00   0.00      0      0    0.0   0.00   0.00    0.0   0.00   0.00   0.00   0.00   0.00   0.00   0.00   0.00   0.00   0.00   0.00       0       0
 1991 204    13    10    0.0      0   0.00      0      0      0      0      0      0     0.0  0.000      0      0  0.000  0.000  0.000  0.000    0.00   0.00   0.00      0      0    0.0   0.00   0.00    0.0   0.00   0.00   0.00   0.00   0.00   0.00   0.00   0.00   0.00   0.00   0.00       0       0
 1991 205    14    11    0.0      0   0.00      0      0      0      0      0      0     0.0  0.000      0      0  0.000  0.000  0.000  0.000    0.00   0.00   0.00      0      0    0.0   0.00   0.00    0.0   0.00   0.00   0.00   0.00   0.00   0.00   0.00   0.00   0.00   0.00   0.00       0       0
 1991 206    15    12    0.0      0   0.00      0      0      0      0      0      0     0.0  0.000      0      0  0.000  0.000  0.000  0.000    0.00   0.00   0.00      0      0    0.0   0.00   0.00    0.0   0.00   0.00   0.00   0.00   0.00   0.00   0.00   0.00   0.00   0.00   0.00       0       0
 1991 207    16    13    0.0      0   0.00      0      0      0      0      0      0     0.0  0.000      0      0  0.000  0.000  0.000  0.000    0.00   0.00   0.00      0      0    0.0   0.00   0.00    0.0   0.00   0.00   0.00   0.00   0.00   0.00   0.00   0.00   0.00   0.00   0.00       0       0
 1991 208    17    14    0.0      0   0.00      0      0      0      0      0      0     0.0  0.000      0      0  0.000  0.000  0.000  0.000    0.00   0.00   0.00      0      0    0.0   0.00   0.00    0.0   0.00   0.00   0.00   0.00   0.00   0.00   0.00   0.00   0.00   0.00   0.00       0       0
 1991 209    18    15    0.0      0   0.00      0      0      0      0      0      0     0.0  0.000      0      0  0.000  0.000  0.000  0.000    0.00   0.00   0.00      0      0    0.0   0.00   0.00    0.0   0.00   0.00   0.00   0.00   0.00   0.00   0.00   0.00   0.00   0.00   0.00       0       0
 1991 210    19    16    0.0      0   0.01      3      1      0      4      4      0     0.0  0.000      0      0  0.000  0.000  0.000  0.000    5.70   0.00   0.00      0      0  193.1   0.03   0.03    0.9   0.35   0.04   0.04   0.02   0.00   0.00   0.00   0.00   0.00   0.00   0.00       0       0
 1991 211    20    17    0.1      0   0.01      3      1      0      4      4      0     0.0  0.000      0      0  0.000  0.000  0.000  0.000    5.70   0.00   0.00      0      0  198.9   0.03   0.03    0.9   0.40   0.04   0.04   0.02   0.00   0.00   0.00   0.00   0.00   0.00   0.00       0       0
 1991 212    21    18    0.1      0   0.01      3      1      0      4      4      0     0.0  0.000      0      0  0.000  0.000  0.000  0.015    5.70   0.00   0.00      0      0  197.3   0.03   0.03    0.8   0.42   0.04   0.04   0.03   0.00   0.00   0.00   0.00   0.00   0.00   0.00       0       0
 1991 213    22    19    0.1      0   0.01      3      1      0      4      4      0     0.0  0.000      0      0  0.000  0.000  0.000  0.000    5.70   0.00   0.00      0      0  197.3   0.03   0.03    0.8   0.42   0.04   0.04   0.03   0.00   0.00   0.00   0.00   0.00   0.00   0.00       0       0
 1991 214    23    20    0.1      0   0.01      3      1      0      4      4      0     0.0  0.000      0      0  0.000  0.000  0.000  0.000    5.70   0.00   0.00      0      0  196.7   0.03   0.03    0.7   0.43   0.04   0.04   0.03   0.00   0.00   0.00   0.00   0.00   0.00   0.00       0       0
 1991 215    24    21    0.1      0   0.01      3      1      0      4      4      0     0.0  0.000      0      0  0.000  0.000  0.000  0.000    5.70   0.00   0.00      0      0  195.3   0.03   0.03    0.7   0.44   0.04   0.04   0.03   0.00   0.00   0.00   0.00   0.00   0.00   0.00       0       0
 1991 216    25    22    0.1      0   0.01      3      1      0      4      4      0     0.0  0.000      0      0  0.000  0.000  0.000  0.056    5.70   0.00   0.00      0      0  195.2   0.03   0.03    0.6   0.44   0.04   0.04   0.03   0.00   0.00   0.00   0.00   0.00   0.00   0.00       0       0
 1991 217    26    23    0.1      0   0.01      3      1      0      4      4      0     0.0  0.000      0      0  0.000  0.000  0.000  0.000    5.70   0.00   0.00      0      0  192.9   0.03   0.03    0.6   0.46   0.04   0.04   0.03   0.00   0.00   0.00   0.00   0.00   0.00   0.00       0       0
 1991 218    27    24    0.1      0   0.01      4      1      0      4      4      0     0.0  0.000      0      0  0.000  0.000  0.000  0.000    5.70   0.00   0.00      0      0  192.9   0.03   0.03    0.6   0.47   0.04   0.04   0.03   0.00   0.00   0.00   0.00   0.00   0.00   0.00       0       0
 1991 219    28    25    0.2      0   0.01      4      1      0      4      4      0     0.0  0.000      0      0  0.000  0.000  0.000  0.000    5.70   0.00   0.00      0      0  192.8   0.03   0.03    0.5   0.49   0.04   0.04   0.03   0.00   0.00   0.00   0.00   0.00   0.00   0.00       0       1
 1991 220    29    26    0.2      0   0.01      4      1      0      5      5      0     0.0  0.000      0      0  0.000  0.000  0.000  0.000    5.70   0.00   0.00      0      0  192.4   0.03   0.03    0.5   0.52   0.04   0.04   0.03   0.00   0.00   0.00   0.00   0.00   0.00   0.00       0       1
 1991 221    30    27    0.3      0   0.01      4      1      0      5      5      0     0.0  0.000      0      0  0.000  0.000  0.000  0.000    5.71   0.00   0.00      0      0  194.4   0.03   0.03    0.5   0.57   0.04   0.04   0.03   0.00   0.00   0.00   0.00   0.00   0.00   0.00       0       1
 1991 222    31    28    0.3      0   0.01      4      1      0      5      5      0     0.0  0.000      0      0  0.000  0.000  0.000  0.000    5.71   0.00   0.00      0      0  194.2   0.04   0.04    0.5   0.59   0.04   0.04   0.03   0.00   0.00   0.00   0.00   0.00   0.00   0.00       0       1
 1991 223    32    29    0.3      0   0.01      4      1      0      5      5      0     0.0  0.000      0      0  0.000  0.000  0.000  0.000    5.71   0.00   0.00      0      0  193.6   0.04   0.04    0.4   0.60   0.04   0.04   0.03   0.00   0.00   0.00   0.00   0.00   0.00   0.00       0       1
 1991 224    33    30    0.3      0   0.01      4      1      0      5      5      0     0.0  0.000      0      0  0.000  0.000  0.000  0.000    5.71   0.00   0.00      0      0  192.4   0.04   0.04    0.4   0.62   0.04   0.04   0.03   0.00   0.00   0.00   0.00   0.00   0.00   0.00       0       1
 1991 225    34    31    0.4      0   0.01      4      1      0      5      5      0     0.0  0.000      0      0  0.000  0.000  0.000  0.000    5.71   0.00   0.00      0      0  192.9   0.04   0.04    0.4   0.66   0.05   0.05   0.03   0.00   0.00   0.00   0.00   0.00   0.00   0.00       0       1
 1991 226    35    32    0.4      0   0.01      5      1      0      6      6      0     0.0  0.000      0      0  0.000  0.000  0.000  0.000    5.71   0.00   0.00      0      0  197.6   0.04   0.04    0.4   0.74   0.05   0.05   0.04   0.01   0.00   0.00   0.00   0.00   0.00   0.00       0       1
 1991 227    36    33    0.5      0   0.01      5      1      0      6      6      0     0.0  0.000      0      0  0.000  0.000  0.000  0.000    5.71   0.00   0.00      0      0  207.0   0.04   0.04    0.5   0.84   0.05   0.05   0.04   0.01   0.00   0.00   0.00   0.00   0.00   0.00       0       1
 1991 228    37    34    0.7      0   0.01      5      1      0      7      6      0     0.0  0.000      0      0  0.000  0.000  0.000  0.000    5.71   0.00   0.00      0      0  215.0   0.04   0.04    0.5   0.94   0.06   0.06   0.04   0.01   0.01   0.00   0.00   0.00   0.00   0.00       0       1
 1991 229    38    35    0.7      0   0.01      5      2      0      8      7      0     0.0  0.000      0      0  0.000  0.000  0.000  0.000    5.72   0.00   0.00      0      0  218.1   0.05   0.05    0.5   1.02   0.06   0.06   0.05   0.01   0.01   0.00   0.00   0.00   0.00   0.00       0       1
 1991 230    39    36    0.8      0   0.01      5      2      0      8      7      0     0.0  0.000      0      0  0.000  0.000  0.000  0.000    5.72   0.00   0.00      0      0  224.4   0.05   0.05    0.6   1.10   0.06   0.06   0.05   0.01   0.01   0.00   0.00   0.00   0.00   0.00       0       1
 1991 231    40    37    0.9      0   0.01      6      2      0      9      8      0     0.0  0.000      0      0  0.000  0.000  0.000  0.000    5.72   0.00   0.00      0      0  228.0   0.05   0.05    0.6   1.18   0.06   0.06   0.05   0.01   0.01   0.01   0.00   0.00   0.00   0.00       0       1
 1991 232    41    38    1.1      0   0.01      6      2      0     10      8      0     0.0  0.000      0      0  0.000  0.000  0.000  0.000    5.72   0.00   0.00      0      0  240.5   0.06   0.06    0.6   1.25   0.07   0.07   0.05   0.01   0.01   0.01   0.00   0.00   0.00   0.00       0       1
 1991 233    42    39    1.3      0   0.02      7      2      0     10      9      0     0.0  0.000      0      0  0.000  0.000  0.000  0.000    5.72   0.00   0.00      0      0  247.2   0.06   0.06    0.7   1.25   0.07   0.07   0.06   0.01   0.01   0.01   0.00   0.00   0.00   0.00       0       1
 1991 234    43    40    1.5      0   0.02      8      2      0     11     10      0     0.0  0.000      0      0  0.000  0.000  0.000  0.000    5.72   0.00   0.00      0      0  258.8   0.07   0.07    0.7   1.25   0.07   0.07   0.06   0.02   0.01   0.01   0.00   0.00   0.00   0.00       0       1
 1991 235    44    41    1.6      0   0.02      8      3      0     12     11      0     0.0  0.000      0      0  0.000  0.000  0.000  0.000    5.72   0.00   0.00      0      0  261.5   0.08   0.07    0.7   1.25   0.08   0.08   0.06   0.02   0.01   0.01   0.01   0.00   0.00   0.00       0       1
 1991 236    45    42    1.7      0   0.02      9      3      0     13     12      0     0.0  0.000      0      0  0.000  0.000  0.000  0.000    5.72   0.00   0.00      0      0  257.5   0.08   0.08    0.8   1.25   0.08   0.08   0.07   0.02   0.02   0.01   0.01   0.00   0.00   0.00       0       1
 1991 237    46    43    1.9      0   0.03     10      4      0     14     13      0     0.0  0.000      0      0  0.000  0.000  0.000  0.000    5.72   0.00   0.00      0      0  260.1   0.09   0.08    0.9   1.25   0.08   0.08   0.07   0.02   0.02   0.01   0.01   0.00   0.00   0.00       0       1
 1991 238    47    44    2.0      0   0.03     10      4      0     14     14      0     0.0  0.000      0      0  0.000  0.000  0.000  0.000    5.72   0.00   0.00      0      0  262.1   0.09   0.09    0.8   1.25   0.09   0.09   0.07   0.02   0.02   0.01   0.01   0.00   0.00   0.00       0       1
 1991 239    48    45    2.1      0   0.03     11      4      0     14     15      0     0.0  0.000      0      0  0.000  0.000  0.000  0.000    5.72   0.00   0.00      0      0  262.0   0.09   0.09    0.8   1.25   0.09   0.09   0.08   0.02   0.02   0.01   0.01   0.00   0.00   0.00       0       1
 1991 240    49    46    2.3      0   0.03     12      4      0     15     16      0     0.0  0.000      0      0  0.000  0.000  0.000  0.000    5.72   0.00   0.00      0      0  266.1   0.10   0.10    0.8   1.25   0.09   0.09   0.08   0.02   0.02   0.01   0.01   0.00   0.00   0.00       0       2
 1991 241    50    47    2.4      0   0.04     13      4      0     16     17      0     0.0  0.000      0      0  0.000  0.000  0.000  0.000    5.72   0.00   0.00      0      0  275.1   0.10   0.10    0.8   1.25   0.09   0.09   0.08   0.03   0.02   0.02   0.01   0.00   0.00   0.00       0       2
 1991 242    51    48    2.6      0   0.04     14      5      0     17     19      0     0.0  0.000      0      0  0.000  0.000  0.000  0.000    5.72   0.00   0.00      0      0  289.6   0.11   0.11    0.9   1.25   0.10   0.10   0.09   0.03   0.02   0.02   0.01   0.00   0.00   0.00       0       2
 1991 243    52    49    2.7      0   0.04     15      5      0     17     20      0     0.0  0.000      0      0  0.000  0.000  0.000  0.000    5.72   0.00   0.00      0      0  289.0   0.12   0.12    0.9   1.25   0.10   0.10   0.09   0.03   0.02   0.02   0.01   0.00   0.00   0.00       0       2
 1991 244    53    50    2.8      0   0.04     15      5      0     18     21      0     0.0  0.000      0      0  0.000  0.000  0.000  0.063    5.72   0.00   0.00      0      0  284.0   0.12   0.12    0.9   1.25   0.10   0.10   0.09   0.03   0.02   0.02   0.01   0.01   0.00   0.00       0       2
 1991 245    54    51    2.9      0   0.05     16      6      0     19     22      0     0.0  0.000      0      0  0.000  0.000  0.000  0.000    5.72   0.00   0.00      0      0  285.2   0.12   0.12    0.9   1.25   0.10   0.10   0.09   0.03   0.03   0.02   0.01   0.01   0.00   0.00       0       2
 1991 246    55    52    3.1      0   0.05     17      7      0     20     24      0     0.0  0.000      0      0  0.000  0.000  0.000  0.000    5.72   0.00   0.00      0      0  292.2   0.13   0.13    0.9   1.25   0.11   0.11   0.10   0.03   0.03   0.02   0.01   0.01   0.00   0.00       0       2
 1991 247    56    53    3.3      0   0.06     20      8      0     23     28      0     0.0  0.000      0      0  0.000  0.000  0.000  0.000    5.72   0.00   0.00      0      0  292.1   0.14   0.13    1.0   1.25   0.12   0.12   0.11   0.04   0.03   0.02   0.02   0.01   0.00   0.00       0       2
 1991 248    57    54    3.5      0   0.06     22     10      0     26     32      0     0.0  0.000      0      0  0.000  0.000  0.000  0.000    5.72   0.00   0.00      0      0  293.5   0.14   0.14    1.2   1.25   0.13   0.13   0.12   0.04   0.04   0.03   0.02   0.01   0.00   0.00       0       2
 1991 249    58    55    3.6      0   0.07     23     11      0     27     34      0     0.0  0.000      0      0  0.000  0.000  0.000  0.000    5.72   0.00   0.00      0      0  306.5   0.15   0.15    1.2   1.25   0.14   0.14   0.13   0.05   0.04   0.03   0.02   0.01   0.00   0.00       0       2
 1991 250    59    56    3.8      0   0.08     24     11      0     27     36      0     0.0  0.000      0      0  0.000  0.000  0.000  0.000    5.73   0.00   0.00      0      0  307.5   0.16   0.15    1.2   1.25   0.14   0.14   0.13   0.05   0.04   0.03   0.02   0.01   0.00   0.00       0       3
 1991 251    60    57    3.9      0   0.08     26     12      0     28     37      0     0.0  0.000      0      0  0.000  0.000  0.000  0.000    5.73   0.00   0.00      0      0  305.5   0.17   0.15    1.2   1.25   0.14   0.14   0.13   0.05   0.04   0.03   0.02   0.01   0.00   0.00       0       3
 1991 252    61    58    4.0      0   0.08     28     14      0     31     41      0     0.0  0.000      0      0  0.000  0.000  0.000  0.000    5.72   0.00   0.00      0      0  298.3   0.17   0.15    1.3   1.25   0.16   0.15   0.14   0.05   0.05   0.04   0.02   0.01   0.00   0.00       0       3
 1991 253    62    59    4.1      0   0.09     30     16      0     34     46      0     0.0  0.000      0      0  0.000  0.000  0.000  0.000    5.72   0.00   0.00      0      0  292.0   0.17   0.15    1.4   1.25   0.17   0.17   0.16   0.06   0.05   0.04   0.03   0.01   0.00   0.00       0       3
 1991 254    63    60    4.3      0   0.10     33     19      0     38     53      0     0.0  0.000      0      0  0.000  0.000  0.000  0.000    5.72   0.00   0.00      0      0  286.9   0.18   0.15    1.6   1.25   0.19   0.19   0.18   0.07   0.06   0.05   0.03   0.02   0.00   0.00       0       3
 1991 255    64    61    4.5      0   0.11     37     24      0     43     61      0     0.0  0.000      0      0  0.000  0.000  0.000  0.000    5.72   0.00   0.00      0      0  287.9   0.19   0.15    1.8   1.25   0.21   0.21   0.20   0.08   0.07   0.05   0.04   0.02   0.00   0.00       0       3
 1991 256    65    62    4.7      0   0.12     40     28      0     48     68      0     0.0  0.000      0      0  0.000  0.000  0.000  0.000    5.73   0.00   0.00      0      0  295.1   0.20   0.15    2.1   1.25   0.23   0.23   0.22   0.08   0.07   0.06   0.04   0.02   0.00   0.00       0       4
 1991 257    66    63    4.8      0   0.12     41     30      0     49     71      0     0.0  0.000      0      0  0.000  0.000  0.000  0.000    5.73   0.00   0.00      0      0  296.6   0.21   0.15    2.1   1.25   0.23   0.23   0.22   0.09   0.08   0.06   0.04   0.02   0.00   0.00       0       4
 1991 258    67    64    4.9      0   0.12     43     30      0     50     73      0     0.0  0.000      0      0  0.000  0.000  0.000  0.003    5.73   0.00   0.00      0      0  292.8   0.21   0.15    2.1   1.25   0.24   0.24   0.23   0.09   0.08   0.06   0.04   0.02   0.00   0.00       0       4
 1991 259    68    65    5.0      0   0.14     47     33      0     52     80      0     0.0  0.000      0      0  0.000  0.000  0.000  0.024    5.73   0.00   0.00      0      0  297.2   0.21   0.15    2.2   1.25   0.25   0.24   0.24   0.09   0.08   0.07   0.05   0.02   0.00   0.00       0       4
 1991 260    69    66    5.2      0   0.15     49     35      0     54     85      0     0.0  0.000      0      0  0.000  0.000  0.000  0.036    5.73   0.00   0.00      0      0  310.1   0.22   0.15    2.3   1.25   0.26   0.25   0.24   0.10   0.09   0.07   0.05   0.02   0.00   0.00       0       5
 1991 261    70    67    5.4      0   0.17     55     40      0     58     95      0     0.0  0.000      0      0  0.000  0.000  0.000  0.061    5.69   0.00   0.00      0      0  300.2   0.23   0.15    2.5   1.25   0.28   0.27   0.26   0.11   0.09   0.08   0.05   0.03   0.00   0.00       0       5
 1991 262    71    68    5.4      0   0.17     61     44      0     62    105      0     0.0  0.000      0      0  0.000  0.000  0.000  0.000    5.70   0.00   0.00      0      0  285.3   0.23   0.15    2.6   1.25   0.29   0.28   0.27   0.11   0.10   0.08   0.06   0.03   0.00   0.00       0       6
 1991 263    72    69    5.6      0   0.19     66     48      0     66    115      0     0.0  0.000      0      0  0.000  0.000  0.000  0.000    5.70   0.00   0.00      0      0  283.3   0.24   0.15    2.8   1.25   0.31   0.30   0.29   0.12   0.11   0.09   0.06   0.03   0.00   0.00       0       6
 1991 264    73    70    5.8      0   0.21     73     53      0     70    126      0     0.0  0.000      0      0  0.000  0.000  0.000  0.000    5.70   0.00   0.00      0      0  292.5   0.24   0.15    3.0   1.25   0.33   0.32   0.31   0.13   0.11   0.09   0.06   0.03   0.00   0.00       0       6
 1991 265    74    71    5.9      0   0.23     81     60      0     76    141      0     0.0  0.000      0      0  0.000  0.000  0.000  0.000    5.70   0.00   0.00      0      0  282.1   0.25   0.15    3.2   1.25   0.35   0.34   0.33   0.14   0.12   0.10   0.07   0.04   0.00   0.00       0       6
 1991 266    75    72    5.9      0   0.24     87     64      0     80    151      0     0.0  0.000      0      0  0.000  0.000  0.000  0.000    5.70   0.00   0.00      0      0  271.2   0.25   0.15    3.4   1.25   0.37   0.36   0.35   0.15   0.13   0.11   0.07   0.04   0.00   0.00       0       7
 1991 267    76    73    6.0      0   0.25     95     71      0     85    165      0     0.0  0.000      0      0  0.000  0.000  0.000  0.000    5.70   0.00   0.00      0      0  260.9   0.25   0.15    3.6   1.25   0.40   0.39   0.38   0.16   0.14   0.11   0.08   0.04   0.00   0.00       0       7
 1991 268    77    74    6.1      0   0.26    104     78      0     92    182      0     0.0  0.000      0      0  0.000  0.000  0.000  0.000    5.70   0.00   0.00      0      0  254.4   0.26   0.15    3.9   1.25   0.42   0.41   0.41   0.17   0.15   0.12   0.09   0.04   0.00   0.00       0       7
[...]
 1993 320   129   126   13.2      3   1.78    930   1391      0    685   2795      0     0.0  0.000    474    440  0.000  0.000  0.111  0.017    5.31   0.00   0.17      0    474  191.1   0.58   0.15   14.3   1.25   3.02   2.97   2.97   1.29   1.16   0.95   0.68   0.35   0.00   0.00     121     110
 1993 321   130   127   13.3      3   1.77    930   1413      0    680   2868      0     0.0  0.000    526    484  0.000  0.000  0.070  0.020    5.25   0.00   0.18      0    526  189.9   0.59   0.15   16.1   1.25   3.01   2.94   2.95   1.28   1.16   0.94   0.68   0.35   0.00   0.00     125     114
 1993 322   131   128   13.5      5   1.76    940   1481      0    677   2998      0     0.0  0.000    577    506  0.000  0.000  0.373  0.000    5.14   0.00   0.19      0    577  186.8   0.59   0.15   18.1   1.25   2.99   2.93   2.93   1.28   1.15   0.94   0.68   0.35   0.00   0.00     128     117
 1993 323   132   129   13.7      5   1.74    954   1563      0    688   3146     10     0.0  0.000    629    536  0.000  0.000  0.295  0.000    5.01   0.00   0.20      0    629  182.8   0.60   0.15   20.5   1.25   3.04   2.98   2.98   1.30   1.17   0.95   0.69   0.36   0.00   0.00     143     121
 1993 324   133   130   13.8      5   1.73    971   1674      1    695   3309     40     1.7  0.000    664    537  0.000  0.000  0.438  0.000    4.86   0.10   0.20      0    664  178.1   0.61   0.15   23.5   1.25   3.07   3.01   3.02   1.31   1.18   0.96   0.70   0.36   0.00   0.00     177     125
 1993 325   134   131   14.1      5   1.72    983   1746      3    711   3438     62     5.7  0.001    709    545  0.000  0.000  0.254  0.000    4.75   0.49   0.21      0    709  174.7   0.62   0.15   27.1   1.25   3.14   3.08   3.09   1.34   1.21   0.98   0.71   0.37   0.00   0.00     205     130
 1993 326   135   132   14.3      5   1.71    996   1830      8    724   3603     68    11.9  0.002    777    586  0.000  0.000  0.289  0.000    4.64   1.04   0.22      0    777  171.3   0.63   0.15   31.4   1.25   3.20   3.14   3.15   1.37   1.23   1.00   0.73   0.37   0.00   0.00     217     135
 1993 327   136   133   14.5      5   1.70   1003   1880     13    732   3714     87    14.7  0.003    831    640  0.000  0.000  0.140  0.000    4.57   1.55   0.22      0    831  169.0   0.64   0.15   36.4   1.25   3.24   3.18   3.18   1.38   1.25   1.01   0.74   0.38   0.00   0.00     242     140
 1993 328   137   134   14.7      5   1.68   1004   1895     19    734   3778    124    15.8  0.005    880    679  0.000  0.000  0.000  0.000    4.53   2.22   0.23      0    880  167.9   0.65   0.15   42.1   1.25   3.25   3.19   3.19   1.39   1.25   1.02   0.74   0.38   0.00   0.00     283     145
 1993 329   138   135   15.0      5   1.67    992   1872     29    728   3775    178    16.2  0.008    912    713  0.000  0.000  0.000  0.000    4.51   3.17   0.24      0    912  168.5   0.66   0.15   42.2   1.25   3.22   3.17   3.17   1.38   1.24   1.01   0.73   0.38   0.00   0.00     341     150
 1993 330   139   136   15.1      5   1.66    985   1861     42    725   3835    201    21.0  0.011    990    738  0.000  0.000  0.000  0.000    4.49   4.25   0.26      0    990  168.6   0.67   0.15   48.2   1.25   3.22   3.16   3.16   1.37   1.24   1.01   0.73   0.38   0.00   0.00     367     155
 1993 331   140   137   15.3      5   1.65    975   1843     56    721   3893    204    27.6  0.014   1075    775  0.000  0.000  0.000  0.000    4.46   5.24   0.28      0   1075  169.2   0.68   0.15   48.9   1.25   3.20   3.14   3.15   1.37   1.23   1.00   0.73   0.37   0.00   0.00     375     158
 1993 332   141   138   15.4      5   1.64    975   1883     70    717   4016    215    32.8  0.018   1158    797  0.000  0.000  0.099  0.000    4.39   6.08   0.29      0   1158  167.8   0.68   0.15   55.0   1.25   3.18   3.13   3.13   1.36   1.23   1.00   0.72   0.37   0.00   0.00     388     162
 1993 333   142   139   15.6      5   1.62    982   1928     84    722   4159    215    39.3  0.020   1249    817  0.000  0.000  0.043  0.000    4.33   6.76   0.30      0   1249  165.4   0.69   0.15   61.7   1.25   3.21   3.15   3.15   1.37   1.23   1.00   0.73   0.38   0.00   0.00     393     166
 1993 334   143   140   15.7      5   1.61    972   1909     99    718   4173    248    40.0  0.024   1291    823  0.000  0.000  0.000  0.000    4.31   7.67   0.31      0   1291  166.0   0.69   0.15   62.6   1.25   3.19   3.14   3.14   1.36   1.23   1.00   0.72   0.37   0.00   0.00     424     169
 1993 335   144   141   15.9      5   1.60    978   1934    114    725   4285    248    46.0  0.027   1374    838  0.000  0.000  0.000  0.000    4.28   8.29   0.32      0   1374  164.0   0.70   0.15   69.4   1.25   3.23   3.17   3.17   1.38   1.24   1.01   0.73   0.38   0.00   0.00     428     172
 1993 336   145   142   16.0      5   1.59    988   1980    130    734   4388    303    42.9  0.030   1420    842  0.000  0.000  0.000  0.000    4.24   9.16   0.32      0   1420  161.1   0.70   0.15   77.4   1.25   3.26   3.21   3.21   1.39   1.26   1.02   0.74   0.38   0.00   0.00     480     176
 1993 337   146   143   16.3      5   1.58    980   1964    152    730   4414    352    43.4  0.035   1470    840  0.000  0.000  0.000  0.000    4.22  10.37   0.33      0   1470  161.2   0.71   0.15   78.1   1.25   3.25   3.20   3.20   1.39   1.25   1.02   0.74   0.38   0.00   0.00     534     182
 1993 338   147   144   16.4      5   1.57    968   1938    179    722   4378    418    42.7  0.041   1472    851  0.000  0.000  0.000  0.034    4.20  12.13   0.34      0   1472  162.0   0.72   0.15   78.6   1.25   3.23   3.18   3.15   1.38   1.24   1.01   0.73   0.38   0.00   0.00     615     189
 1993 339   148   145   16.4      5   1.56    963   1935    207    723   4476    418    49.6  0.046   1578    877  0.000  0.000  0.000  0.000    4.18  13.14   0.35      0   1578  161.6   0.72   0.15   87.4   1.25   3.24   3.18   3.15   1.38   1.25   1.01   0.74   0.38   0.00   0.00     620     193
 1993 340   149   146   16.4      5   1.55    952   1911    237    718   4488    453    52.3  0.053   1624    889  0.000  0.000  0.000  0.000    4.16  14.57   0.36      0   1624  162.3   0.73   0.15   87.7   1.25   3.22   3.16   3.13   1.37   1.24   1.01   0.73   0.38   0.00   0.00     663     197
 1993 341   150   147   16.4      5   1.53    942   1893    270    714   4509    511    52.9  0.060   1674    883  0.000  0.000  0.000  0.000    4.13  16.14   0.37      0   1674  162.6   0.74   0.15   90.3   1.25   3.20   3.15   3.12   1.37   1.23   1.00   0.73   0.38   0.00   0.00     727     203
 1993 342   151   148   16.4      5   1.52    933   1876    308    711   4544    560    55.0  0.068   1735    898  0.000  0.000  0.000  0.000    4.11  17.73   0.38      0   1735  162.8   0.75   0.15   95.5   1.25   3.19   3.14   3.11   1.36   1.23   1.00   0.72   0.37   0.00   0.00     784     208
 1993 343   152   149   16.4      5   1.51    929   1873    348    711   4627    585    59.4  0.075   1824    923  0.000  0.000  0.000  0.000    4.09  19.05   0.39      0   1824  162.2   0.75   0.15  103.6   1.25   3.19   3.14   3.11   1.36   1.23   1.00   0.73   0.37   0.00   0.00     815     214
 1993 344   153   150   16.4      5   1.49    920   1857    391    707   4685    623    62.7  0.083   1908    945  0.000  0.000  0.000  0.000    4.07  20.46   0.41      0   1908  162.4   0.75   0.15  103.7   1.25   3.18   3.13   3.10   1.36   1.22   0.99   0.72   0.37   0.00   0.00     860     219
 1993 345   154   151   16.4      5   1.48    914   1848    434    706   4775    638    68.1  0.091   2013    974  0.000  0.000  0.000  0.000    4.05  21.59   0.42      0   2013  162.1   0.75   0.15  103.7   1.25   3.18   3.12   3.09   1.36   1.22   0.99   0.72   0.37   0.00   0.00     880     224
 1993 346   155   152   16.4      5   1.47    906   1834    479    703   4847    659    72.7  0.099   2107    998  0.000  0.000  0.000  0.000    4.03  22.72   0.43      0   2107  162.1   0.75   0.15  103.7   1.25   3.17   3.11   3.08   1.35   1.22   0.99   0.72   0.37   0.00   0.00     905     230
 1993 347   156   153   16.4      5   1.46    893   1808    528    697   4831    710    74.3  0.109   2130   1009  0.000  0.000  0.000  0.000    4.00  24.79   0.44      0   2130  163.0   0.75   0.15  103.7   1.25   3.14   3.09   3.06   1.34   1.21   0.98   0.71   0.37   0.00   0.00     959     236
 1993 348   157   154   16.4      5   1.44    880   1781    581    690   4778    850    68.3  0.122   2117    973  0.000  0.000  0.000  0.000    3.97  27.43   0.44      0   2117  163.9   0.75   0.15  103.7   1.25   3.12   3.06   3.04   1.33   1.20   0.97   0.71   0.37   0.00   0.00    1092     241
 1993 349   158   155   16.4      5   1.43    869   1759    642    686   4807    850    75.5  0.134   2179    998  0.000  0.000  0.000  0.000    3.94  29.46   0.45      0   2179  164.6   0.75   0.15  103.7   1.25   3.10   3.05   3.02   1.32   1.19   0.97   0.70   0.36   0.00   0.00    1097     245
 1993 350   159   156   16.4      5   1.42    858   1739    702    682   4841    919    76.5  0.145   2244    982  0.000  0.000  0.000  0.000    3.91  31.31   0.46      0   2244  165.2   0.75   0.15  103.9   1.25   3.08   3.03   3.00   1.32   1.19   0.96   0.70   0.36   0.00   0.00    1157     249
 1993 351   160   157   16.4      5   1.41    853   1734    766    682   4915    960    79.7  0.156   2328    985  0.000  0.000  0.000  0.000    3.88  32.88   0.47      0   2328  164.8   0.75   0.15  107.8   1.25   3.08   3.03   3.00   1.32   1.19   0.96   0.70   0.36   0.00   0.00    1195     253
 1993 352   161   158   16.4      5   1.39    840   1709    834    676   4970   1007    82.9  0.168   2420    985  0.000  0.000  0.000  0.000    3.84  34.48   0.49      0   2420  165.6   0.75   0.15  108.0   1.25   3.06   3.01   2.98   1.31   1.18   0.96   0.70   0.36   0.00   0.00    1235     259
 1993 353   162   159   16.4      5   1.38    829   1686    906    670   5038   1037    87.4  0.180   2524    993  0.000  0.000  0.000  0.000    3.81  35.91   0.50      0   2524  166.4   0.75   0.15  108.1   1.25   3.04   2.99   2.96   1.30   1.17   0.95   0.69   0.36   0.00   0.00    1263     264
 1993 354   163   160   16.4      5   1.37    818   1666    977    667   5100   1061    92.1  0.192   2615   1002  0.000  0.000  0.000  0.000    3.78  37.38   0.51      0   2615  167.1   0.75   0.15  108.1   1.25   3.02   2.97   2.95   1.29   1.16   0.95   0.69   0.35   0.00   0.00    1286     267
 1993 355   164   161   16.4      5   1.36    811   1654   1039    665   5169   1083    95.9  0.201   2704   1004  0.000  0.000  0.000  0.000    3.75  38.42   0.52      0   2704  167.4   0.75   0.15  108.2   1.25   3.02   2.97   2.94   1.29   1.16   0.94   0.69   0.35   0.00   0.00    1305     270
 1993 356   165   162   16.4      5   1.34    801   1635   1112    660   5252   1102   101.0  0.212   2817   1006  0.000  0.000  0.000  0.000    3.71  39.50   0.54      0   2817  168.0   0.75   0.15  108.2   1.25   3.00   2.95   2.92   1.28   1.16   0.94   0.68   0.35   0.00   0.00    1322     274
 1993 357   166   163   16.4      5   1.33    789   1612   1188    655   5305   1155   102.8  0.224   2904   1001  0.000  0.000  0.000  0.000    3.67  40.91   0.55      0   2904  168.8   0.75   0.15  108.2   1.25   2.98   2.93   2.90   1.27   1.15   0.93   0.68   0.35   0.00   0.00    1358     280
 1993 358   167   164   16.4      5   1.32    777   1589   1269    649   5353   1208   105.0  0.237   2987    996  0.000  0.000  0.000  0.000    3.63  42.48   0.56      0   2987  169.7   0.75   0.15  108.2   1.25   2.95   2.90   2.88   1.26   1.14   0.92   0.67   0.35   0.00   0.00    1397     285
 1993 359   168   165   16.4      5   1.31    765   1566   1351    642   5384   1240   109.0  0.251   3053    997  0.000  0.000  0.000  0.000    3.59  44.27   0.57      0   3053  170.7   0.75   0.15  108.2   1.25   2.93   2.88   2.85   1.25   1.13   0.91   0.66   0.34   0.00   0.00    1424     291
 1993 360   169   166   16.4      5   1.29    754   1544   1442    636   5426   1275   113.0  0.266   3128    995  0.000  0.000  0.000  0.000    3.55  46.09   0.58      0   3128  171.5   0.75   0.15  108.2   1.25   2.90   2.85   2.83   1.24   1.12   0.91   0.66   0.34   0.00   0.00    1452     296
 1993 361   170   167   16.4      5   1.28    744   1526   1508    632   5437   1301   115.9  0.277   3168    995  0.000  0.000  0.000  0.000    3.51  47.59   0.58      0   3168  172.3   0.75   0.15  108.2   1.25   2.88   2.83   2.81   1.23   1.11   0.90   0.65   0.34   0.00   0.00    1473     301
 1993 362   171   168   16.4      5   1.27    733   1507   1602    627   5476   1350   118.7  0.293   3236    980  0.000  0.000  0.000  0.004    3.46  49.50   0.59      0   3236  173.1   0.75   0.15  108.2   1.25   2.86   2.81   2.79   1.22   1.10   0.89   0.65   0.34   0.00   0.00    1508     305
 1993 363   172   169   16.4      5   1.26    724   1490   1697    623   5507   1397   121.4  0.308   3294    965  0.000  0.000  0.000  0.000    3.42  51.51   0.60      0   3294  173.8   0.75   0.15  108.2   1.25   2.85   2.79   2.77   1.22   1.10   0.89   0.65   0.33   0.00   0.00    1543     308
 1993 364   173   170   16.4      5   1.25    714   1473   1788    619   5560   1447   123.6  0.322   3372    951  0.000  0.000  0.000  0.000    3.38  53.03   0.61      0   3372  174.5   0.75   0.15  108.3   1.25   2.83   2.78   2.76   1.21   1.09   0.89   0.64   0.33   0.00   0.00    1575     312
 1993 365   174   171   16.4      5   1.23    705   1456   1888    615   5643   1447   130.5  0.335   3483    951  0.000  0.000  0.000  0.000    3.34  54.22   0.62      0   3483  175.3   0.75   0.15  108.4   1.25   2.81   2.76   2.74   1.20   1.08   0.88   0.64   0.33   0.00   0.00    1580     316
 1994 001   175   172   16.4      5   1.22    695   1439   1993    610   5697   1494   133.4  0.350   3563    936  0.000  0.000  0.000  0.000    3.29  55.93   0.63      0   3563  176.1   0.75   0.15  108.4   1.25   2.79   2.74   2.72   1.19   1.08   0.87   0.63   0.33   0.00   0.00    1610     320
 1994 002   176   173   16.4      5   1.21    686   1423   2094    606   5749   1534   136.5  0.364   3640    923  0.000  0.000  0.000  0.000    3.25  57.54   0.63      0   3640  176.8   0.75   0.15  108.4   1.25   2.78   2.72   2.71   1.19   1.07   0.87   0.63   0.33   0.00   0.00    1637     324
 1994 003   177   174   16.4      5   1.20    678   1409   2189    603   5802   1574   139.1  0.377   3715    910  0.000  0.000  0.000  0.000    3.20  58.92   0.64      0   3715  177.4   0.75   0.15  108.4   1.25   2.76   2.71   2.69   1.18   1.06   0.86   0.63   0.32   0.00   0.00    1661     327
 1994 004   178   175   16.4      5   1.19    669   1394   2293    599   5868   1595   143.7  0.391   3805    903  0.000  0.000  0.000  0.000    3.16  60.26   0.65      0   3805  178.2   0.75   0.15  108.5   1.25   2.74   2.69   2.68   1.17   1.06   0.86   0.62   0.32   0.00   0.00    1676     330
 1994 005   179   176   16.4      5   1.18    660   1381   2395    594   5924   1625   147.4  0.404   3882    893  0.000  0.000  0.000  0.000    3.11  61.69   0.66      0   3882  178.8   0.75   0.15  108.5   1.25   2.72   2.67   2.66   1.16   1.05   0.85   0.62   0.32   0.00   0.00    1698     335
 1994 006   180   177   16.4      5   1.17    651   1366   2456    589   5945   1638   150.0  0.413   3928    888  0.000  0.000  0.000  0.000    3.05  62.52   0.66      0   3928  179.5   0.75   0.15  108.5   1.25   2.70   2.65   2.63   1.15   1.04   0.84   0.61   0.32   0.00   0.00    1710     340
 1994 007   181   178   16.4      5   1.16    642   1352   2531    584   5979   1659   152.6  0.423   3984    880  0.000  0.000  0.000  0.000    3.00  63.53   0.67      0   3984  180.2   0.75   0.15  108.5   1.25   2.68   2.63   2.61   1.14   1.03   0.84   0.61   0.31   0.00   0.00    1726     345
 1994 008   182   179   16.4      7   1.15    636   1347   2612    579   6032   1681   155.4  0.433   4049    873  0.000  0.000  0.202  0.005    2.94  64.52   0.67      0   4049  180.3   0.75   0.15  108.5   1.25   2.66   2.61   2.59   1.14   1.02   0.83   0.60   0.31   0.00   0.00    1740     349
 1994 009   183   180   16.4      7   0.91    510   1301   2690    575   5924   1705   157.8  0.454   4114    865  0.000  0.000  0.365  0.000    2.84  65.40   0.69      0   4114  178.9   0.75   0.15  108.5   1.25   2.64   2.60   2.58   1.13   1.01   0.83   0.60   0.31   0.00   0.00    1947     353
 1994 010   184   181   16.4      7   0.73    407   1253   2760    572   5832   1723   160.2  0.473   4172    855  0.000  0.000  0.307  0.000    2.75  66.16   0.72      0   4172  178.3   0.75   0.15  108.5   1.25   2.63   2.58   2.56   1.12   1.01   0.82   0.60   0.31   0.00   0.00    2114     356
 1994 011   185   182   16.4      7   0.58    325   1216   2820    568   5765   1729   163.2  0.489   4224    840  0.000  0.000  0.365  0.000    2.67  66.78   0.73      0   4224  177.7   0.75   0.15  108.5   1.25   2.61   2.57   2.55   1.12   1.00   0.82   0.59   0.31   0.00   0.00    2245     359
 1994 012   186   183   16.4      7   0.46    257   1166   2874    564   5695   1729   166.3  0.505   4272    828  0.000  0.000  0.000  0.000    2.61  67.28   0.75      0   4272  178.7   0.75   0.15  108.5   1.25   2.59   2.55   2.53   1.11   1.00   0.81   0.59   0.30   0.00   0.00    2348     363
 1994 013   187   184   16.4      7   0.37    203   1125   2914    560   5635   1729   168.6  0.517   4307    815  0.000  0.000  0.081  0.000    2.56  67.67   0.76      0   4307  179.7   0.75   0.15  108.5   1.25   2.57   2.53   2.51   1.10   0.99   0.81   0.59   0.30   0.00   0.00    2429     367
 1994 014   188   185   16.4      7   0.29    161   1091   2945    556   5585   1729   170.4  0.527   4332    803  0.000  0.000  0.000  0.000    2.52  67.97   0.78      0   4332  180.7   0.75   0.15  108.0   1.25   2.56   2.51   2.49   1.09   0.98   0.80   0.58   0.30   0.00   0.00    2494     372
 1994 015   189   186   16.4      7   0.23    128   1063   2968    551   5542   1729   171.7  0.536   4352    795  0.000  0.000  0.000  0.000    2.47  68.21   0.79      0   4352  181.6   0.75   0.15  102.2   1.25   2.54   2.49   2.48   1.08   0.97   0.79   0.58   0.30   0.00   0.00    2544     382
 1994 016   190   187   16.4      7   0.18    101   1040   2987    548   5507   1729   172.8  0.542   4366    786  0.000  0.000  0.000  0.000    2.43  68.41   0.79      0   4366  182.5   0.75   0.15   95.1   1.25   2.52   2.48   2.46   1.08   0.97   0.79   0.57   0.30   0.00   0.00    2585     392
 1994 017   191   188   16.4      7   0.15     80   1020   3000    544   5476   1729   173.6  0.548   4376    786  0.000  0.000  0.000  0.000    2.39  68.57   0.80      0   4376  183.3   0.75   0.15   88.4   1.25   2.50   2.46   2.44   1.07   0.96   0.78   0.57   0.29   0.00   0.00    2617     403
 1994 018   192   189   16.4      7   0.12     64   1003   3005    540   5446   1729   173.8  0.552   4379    786  0.000  0.000  0.000  0.000    2.38  68.62   0.80      0   4379  184.1   0.75   0.15   82.2   1.25   2.48   2.44   2.42   1.06   0.95   0.78   0.57   0.29   0.00   0.00    2642     413
 1994 019   193   190   16.4      7   0.09     51    989   3005    535   5418   1729   173.8  0.555   4379    786  0.000  0.000  0.000  0.000    2.40  68.62   0.81      0   4379  185.0   0.75   0.15   76.5   1.25   2.46   2.42   2.40   1.05   0.95   0.77   0.56   0.29   0.00   0.00    2662     423
 1994 020   194   191   16.4      8   0.08     41    976   3005    531   5396   1729   173.8  0.557   4379    786  0.000  0.000  0.000  0.000    2.41  68.62   0.81      0   4379  185.8   0.75   0.15   71.1   1.25   2.44   2.40   2.38   1.04   0.94   0.76   0.56   0.29   0.00   0.00    2679     433
