*SOIL NITROGEN DAILY OUTPUT FILE

*DSSAT Cropping System Model Ver. 4.0.2.000               Aug 12, 2016; 09:16:44

*RUN   1        : UYSB                    
 MODEL          : CRGRO040 - Soybean         
 EXPERIMENT     : UYSB0192 SB    late to create DSS                             
 TREATMENT  1   : UYSB                    

@YEAR DOY   DAS  NAPC  NI#M    NLCC   NIAD    NOAD   NITD   NHTD  NI1D  NI2D  NI3D  NI4D  NI5D  NI6D  NI7D  NI8D  NI9D  NI10  NH1D  NH2D  NH3D  NH4D  NH5D  NH6D  NH7D  NH8D  NH9D  NH10    NMNC    NITC    NDNC    NIMC    AMLC
 1990 191     0     0     0     0.0   54.7   16646   31.9   22.8   6.0   5.2   5.1   4.7   2.6   0.0   0.1   0.1   0.0   0.0   0.6   1.3   1.5   1.4   1.4  1.50  1.46  1.45  0.00  0.00    0.52    1.62    0.00    0.00    0.00
 1990 192     1     0     0     0.0   55.2   16645   33.1   22.1   6.3   5.5   5.2   4.8   2.6   0.0   0.1   0.1   0.0   0.0   0.3   1.2   1.4   1.4   1.4  1.51  1.43  1.41  0.00  0.00    1.02    2.86    0.00    0.00    0.00
 1990 193     2     0     0     0.0   55.8   16645   34.2   21.5   6.5   5.6   5.4   4.9   2.7   0.1   0.1   0.2   0.0   0.0   0.2   1.1   1.4   1.3   1.4  1.51  1.40  1.37  0.00  0.00    1.53    3.94    0.00    0.00    0.00
 1990 194     3     0     0     0.0   56.3   16644   35.2   21.0   2.3   6.1   6.7   4.9   2.8   0.1   0.2   0.2   0.0   0.0   0.2   1.0   1.4   1.3   1.3  1.51  1.37  1.32  0.00  0.00    2.03    4.95    0.00    0.00    0.00
 1990 195     4     2     2     0.0   58.7   16644   37.0   21.6   4.2   5.9   7.0   5.0   2.8   0.1   0.2   0.2   0.0   0.0   1.8   1.1   1.4   1.3   1.3  1.51  1.33  1.28  0.00  0.00    2.54    5.76    0.00    0.00    0.10
 1990 196     5     2     2     0.0   59.1   16643   38.6   20.6   5.3   6.0   7.1   5.1   2.9   0.1   0.3   0.3   0.0   0.0   0.6   1.0   1.4   1.2   1.2  1.52  1.30  1.25  0.00  0.00    3.05    7.28    0.00    0.00    0.17
 1990 197     6     2     2     0.0   59.6   16642   39.7   19.9   5.0   6.4   7.2   5.2   3.0   0.1   0.3   0.3   0.0   0.0   0.2   0.9   1.3   1.2   1.2  1.52  1.27  1.21  0.00  0.00    3.59    8.41    0.00    0.00    0.22
 1990 198     7     2     2     0.0   60.1   16642   40.4   19.6   4.9   6.4   7.4   5.3   3.0   0.1   0.4   0.4   0.0   0.0   0.2   0.9   1.3   1.1   1.2  1.52  1.25  1.17  0.00  0.00    4.13    9.17    0.00    0.00    0.27
 1990 199     8     2     2     0.0   60.6   16641   41.4   19.2   4.4   6.6   7.6   5.4   3.1   0.2   0.4   0.4   0.0   0.0   0.0   0.9   1.3   1.1   1.1  1.53  1.22  1.14  0.00  0.00    4.65   10.09    0.00    0.00    0.33
 1990 200     9     2     2     0.0   61.0   16641   42.0   19.0   4.4   6.5   7.8   5.5   3.1   0.2   0.4   0.5   0.0   0.0   0.1   0.9   1.3   1.1   1.1  1.53  1.19  1.10  0.00  0.00    5.14   10.77    0.00    0.00    0.33
 1990 201    10     2     2     0.0   61.5   16640   42.8   18.7   4.4   6.6   7.8   5.6   3.2   0.2   0.5   0.5   0.0   0.0   0.1   0.9   1.3   1.0   1.1  1.53  1.17  1.07  0.00  0.00    5.59   11.52    0.00    0.00    0.35
 1990 202    11     2     2     0.0   61.8   16640   43.5   18.4   4.4   6.7   7.9   5.7   3.2   0.2   0.5   0.5   0.0   0.0   0.1   0.8   1.3   1.0   1.0  1.53  1.14  1.04  0.00  0.00    5.97   12.19    0.00    0.00    0.36
 1990 203    12     2     2     0.0   62.2   16640   44.1   18.1   4.5   6.8   7.9   5.8   3.3   0.2   0.5   0.6   0.0   0.0   0.0   0.8   1.3   1.0   1.0  1.54  1.12  1.01  0.00  0.00    6.31   12.80    0.00    0.00    0.38
 1990 204    13     2     2     0.0   62.5   16639   44.6   17.8   4.5   6.9   8.0   5.9   3.3   0.2   0.6   0.6   0.0   0.0   0.0   0.7   1.2   1.0   1.0  1.54  1.10  0.98  0.00  0.00    6.61   13.36    0.00    0.00    0.39
 1990 205    14     2     2     0.0   62.8   16639   45.2   17.6   4.6   6.9   8.0   6.0   3.3   0.3   0.6   0.6   0.0   0.0   0.0   0.7   1.2   0.9   1.0  1.54  1.08  0.96  0.00  0.00    6.92   13.91    0.00    0.00    0.39
 1990 206    15     2     2     0.0   63.1   16639   45.7   17.3   4.7   6.9   8.0   6.0   3.4   0.3   0.6   0.6   0.0   0.0   0.0   0.6   1.2   0.9   1.0  1.54  1.06  0.93  0.00  0.00    7.25   14.47    0.00    0.00    0.39
 1990 207    16     2     2     0.0   63.4   16638   46.3   17.1   4.7   7.0   8.1   6.1   3.4   0.3   0.7   0.7   0.0   0.0   0.1   0.6   1.2   0.9   0.9  1.54  1.04  0.91  0.00  0.00    7.58   15.02    0.00    0.00    0.39
 1990 208    17     2     2     0.0   63.8   16638   46.8   16.9   4.8   7.0   8.1   6.2   3.4   0.3   0.7   0.7   0.0   0.0   0.1   0.6   1.2   0.9   0.9  1.54  1.02  0.88  0.00  0.00    7.92   15.58    0.00    0.00    0.39
 1990 209    18     2     2     0.0   64.1   16638   47.4   16.7   4.9   7.0   8.2   6.2   3.5   0.3   0.7   0.7   0.0   0.0   0.1   0.6   1.2   0.9   0.9  1.55  1.00  0.86  0.00  0.00    8.30   16.15    0.00    0.00    0.39
 1990 210    19     2     2     0.0   64.5   16637   48.0   16.5   5.0   7.1   8.2   6.3   3.5   0.3   0.7   0.8   0.0   0.0   0.1   0.6   1.2   0.9   0.9  1.55  0.98  0.83  0.00  0.00    8.68   16.71    0.00    0.00    0.39
 1990 211    20     2     2     0.0   64.9   16637   48.5   16.3   5.1   7.1   8.3   6.3   3.6   0.4   0.8   0.8   0.0   0.0   0.1   0.5   1.2   0.8   0.9  1.55  0.96  0.81  0.00  0.00    9.04   17.25    0.00    0.00    0.39
 1990 212    21     2     2     0.0   65.2   16637   49.1   16.2   5.2   7.2   8.3   6.4   3.6   0.4   0.8   0.8   0.0   0.0   0.1   0.5   1.1   0.8   0.9  1.55  0.95  0.79  0.00  0.00    9.42   17.80    0.00    0.00    0.40
 1990 213    22     2     2     0.0   65.6   16636   49.6   16.0   5.3   7.2   8.4   6.5   3.6   0.4   0.8   0.8   0.0   0.0   0.1   0.5   1.1   0.8   0.8  1.56  0.93  0.77  0.00  0.00    9.81   18.35    0.00    0.00    0.40
 1990 214    23     2     2     0.0   66.0   16636   50.2   15.9   5.4   7.2   8.5   6.5   3.7   0.4   0.9   0.9   0.0   0.0   0.1   0.5   1.1   0.8   0.8  1.56  0.91  0.75  0.00  0.00   10.21   18.90    0.00    0.00    0.40
 1990 215    24     2     2     0.0   66.5   16635   50.7   15.7   5.5   7.3   8.5   6.6   3.7   0.4   0.9   0.9   0.0   0.0   0.1   0.5   1.1   0.8   0.8  1.56  0.90  0.73  0.00  0.00   10.65   19.47    0.00    0.00    0.40
 1990 216    25     2     2     0.0   66.9   16635   51.3   15.6   5.6   7.3   8.6   6.6   3.7   0.4   0.9   0.9   0.0   0.0   0.1   0.5   1.1   0.8   0.8  1.56  0.88  0.71  0.00  0.00   11.12   20.07    0.00    0.00    0.40
 1990 217    26     2     2     0.0   67.4   16634   52.0   15.4   5.7   7.4   8.7   6.7   3.8   0.4   0.9   0.9   0.0   0.0   0.1   0.5   1.1   0.8   0.8  1.56  0.86  0.69  0.00  0.00   11.61   20.72    0.00    0.00    0.41
 1990 218    27     2     2     0.0   67.9   16634   52.6   15.3   5.9   7.4   8.8   6.7   3.8   0.5   1.0   1.0   0.0   0.0   0.1   0.5   1.1   0.7   0.8  1.57  0.85  0.67  0.00  0.00   12.13   21.40    0.00    0.00    0.41
 1990 219    28     2     2     0.0   68.4   16633   53.3   15.1   6.0   7.5   8.9   6.8   3.8   0.5   1.0   1.0   0.0   0.0   0.1   0.5   1.1   0.7   0.8  1.57  0.83  0.65  0.00  0.00   12.69   22.12    0.00    0.00    0.41
 1990 220    29     2     2     0.0   69.0   16633   54.1   14.9   6.1   7.6   9.0   6.9   3.9   0.5   1.0   1.0   0.0   0.0   0.1   0.4   1.1   0.7   0.7  1.57  0.82  0.63  0.00  0.00   13.28   22.87    0.00    0.00    0.41
 1990 221    30     2     2     0.0   69.6   16632   54.8   14.8   6.3   7.6   9.1   6.9   3.9   0.5   1.0   1.0   0.0   0.0   0.1   0.4   1.1   0.7   0.7  1.57  0.80  0.61  0.00  0.00   13.89   23.63    0.00    0.00    0.42
 1990 222    31     2     2     0.0   70.2   16632   55.5   14.6   6.4   7.7   9.2   7.0   4.0   0.5   1.1   1.1   0.0   0.0   0.1   0.4   1.1   0.7   0.7  1.58  0.79  0.60  0.00  0.00   14.50   24.37    0.00    0.00    0.42
 1990 223    32     2     2     0.0   70.7   16631   56.2   14.5   6.6   7.8   9.3   7.0   4.0   0.6   1.1   1.1   0.0   0.0   0.1   0.4   1.1   0.7   0.7  1.58  0.77  0.58  0.00  0.00   15.09   25.10    0.00    0.00    0.42
 1990 224    33     2     2     0.0   71.3   16630   56.9   14.4   6.7   7.9   9.4   7.1   4.0   0.6   1.1   1.1   0.0   0.0   0.1   0.4   1.1   0.6   0.7  1.58  0.76  0.57  0.00  0.00   15.69   25.82    0.00    0.00    0.42
 1990 225    34     2     2     0.0   71.9   16630   57.6   14.2   6.9   7.9   9.5   7.1   4.1   0.6   1.1   1.1   0.0   0.0   0.1   0.4   1.1   0.6   0.7  1.58  0.75  0.55  0.00  0.00   16.30   26.55    0.00    0.00    0.43
 1990 226    35     2     2     0.0   72.4   16629   58.3   14.1   7.1   8.0   9.6   7.2   4.1   0.6   1.2   1.1   0.0   0.0   0.1   0.4   1.0   0.6   0.7  1.58  0.73  0.54  0.00  0.00   16.91   27.28    0.00    0.00    0.43
 1990 227    36     2     2     0.0   73.1   16628   59.0   14.0   3.7   8.4  10.6   7.2   4.2   0.6   1.2   1.2   0.0   0.0   0.1   0.4   1.0   0.6   0.7  1.59  0.72  0.52  0.00  0.00   17.54   28.03    0.00    0.00    0.43
 1990 228    37     2     2     0.0   73.7   16628   59.6   14.1   3.8   8.2  10.9   7.3   4.2   0.7   1.2   1.2   0.0   0.0   0.1   0.5   1.0   0.6   0.6  1.59  0.71  0.51  0.00  0.00   18.21   28.63    0.00    0.00    0.43
 1990 229    38     2     2     0.0   74.3   16627   60.2   14.1   3.9   8.1  11.0   7.4   4.2   0.7   1.2   1.2   0.0   0.0   0.1   0.6   1.0   0.6   0.6  1.59  0.70  0.49  0.00  0.00   18.85   29.23    0.00    0.00    0.43
 1990 230    39     2     2     0.0   74.8   16627   60.8   14.0   4.1   8.2  11.0   7.5   4.3   0.7   1.3   1.2   0.0   0.0   0.1   0.6   1.1   0.6   0.6  1.59  0.69  0.48  0.00  0.00   19.45   29.91    0.00    0.00    0.44
 1990 231    40     2     2     0.0   75.4   16626   61.4   13.9   4.3   8.3  11.0   7.5   4.3   0.7   1.3   1.2   0.0   0.0   0.1   0.6   1.1   0.6   0.6  1.59  0.68  0.47  0.00  0.00   20.02   30.55    0.00    0.00    0.44
 1990 232    41     2     2     0.0   75.8   16625   62.0   13.9   4.5   8.3  11.1   7.6   4.3   0.7   1.3   1.2   0.0   0.0   0.1   0.5   1.1   0.6   0.6  1.59  0.67  0.46  0.00  0.00   20.57   31.15    0.00    0.00    0.44
 1990 233    42     2     2     0.0   76.3   16625   62.5   13.8   4.7   8.3  11.1   7.7   4.4   0.8   1.3   1.3   0.0   0.0   0.1   0.5   1.1   0.6   0.6  1.60  0.66  0.45  0.00  0.00   21.14   31.78    0.00    0.00    0.45
 1990 234    43     2     2     0.0   76.9   16624   63.1   13.7   4.9   8.4  11.2   7.7   4.4   0.8   1.3   1.3   0.0   0.0   0.1   0.5   1.1   0.6   0.6  1.60  0.65  0.44  0.00  0.00   21.72   32.41    0.00    0.00    0.45
 1990 235    44     2     2     0.0   77.4   16624   63.7   13.7   5.1   8.4  11.2   7.8   4.4   0.8   1.4   1.3   0.0   0.0   0.1   0.5   1.1   0.6   0.6  1.60  0.64  0.43  0.00  0.00   22.28   33.02    0.00    0.00    0.45
 1990 236    45     2     2     0.0   77.9   16623   64.2   13.6   5.2   8.5  11.3   7.8   4.4   0.8   1.4   1.3   0.0   0.0   0.1   0.5   1.1   0.6   0.6  1.60  0.63  0.42  0.00  0.00   22.82   33.60    0.00    0.00    0.45
 1990 237    46     2     2     0.0   78.3   16623   64.8   13.6   5.4   8.5  11.4   7.9   4.5   0.8   1.4   1.3   0.0   0.0   0.1   0.5   1.1   0.6   0.6  1.60  0.62  0.41  0.00  0.00   23.34   34.16    0.00    0.00    0.46
 1990 238    47     2     2     0.0   78.8   16622   65.2   13.5   5.6   8.5  11.4   7.9   4.5   0.8   1.4   1.3   0.0   0.0   0.1   0.5   1.1   0.6   0.6  1.60  0.61  0.40  0.00  0.00   23.87   34.73    0.00    0.00    0.46
 1990 239    48     2     2     0.0   79.2   16622   65.7   13.5   2.3   6.7  11.6   9.4   5.1   0.9   1.4   1.3   0.0   0.0   0.1   0.5   1.1   0.6   0.6  1.60  0.60  0.39  0.00  0.00   24.41   35.31    0.00    0.00    0.46
 1990 240    49     2     2     0.0   79.7   16621   66.0   13.7   2.2   6.6  11.4   9.3   5.5   0.9   1.5   1.3   0.0   0.0   0.2   0.6   1.2   0.6   0.6  1.60  0.60  0.38  0.00  0.00   24.96   35.58    0.00    0.00    0.46
 1990 241    50     2     2     0.0   80.2   16621   66.2   14.0   2.3   6.5  11.3   9.0   5.6   1.1   1.5   1.4   0.0   0.0   0.1   0.6   1.2   0.6   0.6  1.61  0.59  0.37  0.00  0.00   25.48   35.86    0.00    0.00    0.47
 1990 242    51     2     2     0.1   80.6   16620   66.5   14.1   2.6   6.5  11.2   8.9   5.7   1.1   1.5   1.4   0.0   0.0   0.1   0.6   1.3   0.7   0.6  1.62  0.58  0.36  0.00  0.00   26.00   36.19    0.00    0.00    0.47
 1990 243    52     2     2     0.1   81.0   16620   66.6   14.3   2.8   6.5  11.2   8.8   5.7   1.2   1.5   1.4   0.0   0.0   0.1   0.6   1.4   0.7   0.6  1.63  0.59  0.36  0.00  0.00   26.49   36.48    0.00    0.00    0.47
 1990 244    53     2     2     0.1   81.4   16619   67.0   14.4   3.1   6.5  11.2   8.8   5.7   1.2   1.5   1.4   0.0   0.0   0.1   0.6   1.3   0.7   0.7  1.64  0.59  0.35  0.00  0.00   26.92   36.84    0.01    0.00    0.48
 1990 245    54     2     2     0.1   81.7   16619   67.3   14.4   3.3   6.5  11.3   8.8   5.7   1.2   1.5   1.4   0.0   0.0   0.1   0.6   1.3   0.7   0.7  1.66  0.58  0.34  0.00  0.00   27.32   37.21    0.02    0.00    0.48
 1990 246    55     2     2     0.1   82.1   16618   67.6   14.5   3.5   6.5  11.3   8.8   5.7   1.2   1.5   1.4   0.0   0.0   0.1   0.5   1.3   0.7   0.7  1.67  0.58  0.33  0.00  0.00   27.72   37.57    0.03    0.00    0.48
 1990 247    56     2     2     0.1   82.5   16618   68.0   14.5   3.6   6.6  11.4   8.8   5.7   1.2   1.6   1.4   0.0   0.0   0.1   0.5   1.3   0.7   0.7  1.68  0.57  0.33  0.00  0.00   28.13   37.94    0.04    0.00    0.49
 1990 248    57     2     2     0.1   82.9   16618   68.4   14.5   3.8   6.6  11.4   8.9   5.7   1.2   1.6   1.4   0.0   0.0   0.1   0.5   1.3   0.7   0.7  1.69  0.56  0.32  0.00  0.00   28.52   38.33    0.04    0.00    0.49
 1990 249    58     2     2     0.1   83.3   16617   68.8   14.5   4.0   6.7  11.5   8.9   5.8   1.2   1.6   1.5   0.0   0.0   0.1   0.5   1.3   0.7   0.7  1.71  0.56  0.32  0.00  0.00   28.93   38.74    0.04    0.00    0.49
 1990 250    59     2     2     0.1   83.7   16617   69.2   14.5   3.6   7.0  11.6   8.9   5.8   1.2   1.6   1.5   0.0   0.0   0.1   0.5   1.2   0.7   0.8  1.72  0.55  0.31  0.00  0.00   29.39   39.17    0.05    0.00    0.49
 1990 251    60     2     2     0.1   84.2   16616   69.6   14.6   2.2   6.0  11.6   9.6   6.1   1.3   1.6   1.5   0.0   0.0   0.2   0.6   1.2   0.7   0.8  1.73  0.55  0.30  0.00  0.00   29.86   39.52    0.05    0.00    0.50
 1990 252    61     2     2     0.4   84.3   16616   69.4   15.0   2.2   5.9  11.3   9.3   6.2   1.4   1.6   1.5   0.0   0.0   0.2   0.6   1.3   0.7   0.8  1.75  0.55  0.30  0.00  0.00   30.32   39.64    0.08    0.00    0.50
 1990 253    62     2     2     0.5   84.7   16615   69.4   15.3   2.4   5.9  11.1   9.1   6.2   1.5   1.6   1.5   0.0   0.0   0.1   0.7   1.4   0.8   0.8  1.76  0.56  0.31  0.00  0.00   30.83   39.85    0.09    0.00    0.50
 1990 254    63     2     2     0.6   85.2   16615   69.7   15.5   1.6   5.1  10.6   9.3   6.9   1.8   1.6   1.5   0.0   0.0   0.1   0.7   1.4   0.8   0.8  1.77  0.56  0.31  0.00  0.00   31.37   40.18    0.10    0.00    0.51
 1990 255    64     2     2     1.0   85.2   16614   69.4   15.9   1.7   5.0  10.4   9.0   6.8   1.9   1.7   1.5   0.0   0.0   0.1   0.7   1.5   0.8   0.8  1.79  0.57  0.31  0.00  0.00   31.94   40.35    0.17    0.00    0.51
 1990 256    65     2     2     1.2   85.4   16614   69.1   16.2   1.8   5.0  10.2   8.8   6.7   2.1   1.7   1.5   0.0   0.0   0.1   0.8   1.6   0.8   0.9  1.80  0.57  0.31  0.00  0.00   32.51   40.55    0.33    0.00    0.51
 1990 257    66     2     2     1.4   85.7   16613   69.3   16.4   2.0   5.1  10.2   8.7   6.7   2.1   1.7   1.5   0.0   0.0   0.1   0.8   1.7   0.8   0.9  1.82  0.58  0.31  0.00  0.00   33.06   40.91    0.42    0.00    0.52
 1990 258    67     2     2     1.4   86.1   16612   69.7   16.4   2.3   5.1  10.3   8.7   6.7   2.1   1.7   1.5   0.0   0.0   0.1   0.7   1.6   0.9   0.9  1.83  0.59  0.31  0.00  0.00   33.57   41.40    0.45    0.00    0.52
 1990 259    68     2     2     1.4   86.6   16612   70.1   16.5   2.5   5.2  10.4   8.7   6.7   2.2   1.7   1.5   0.0   0.0   0.1   0.7   1.6   0.9   0.9  1.84  0.59  0.31  0.00  0.00   34.03   41.84    0.47    0.00    0.52
 1990 260    69     2     2     1.4   87.0   16612   70.5   16.5   2.7   5.3  10.5   8.7   6.7   2.2   1.7   1.5   0.0   0.0   0.1   0.6   1.5   0.9   0.9  1.86  0.59  0.31  0.00  0.00   34.50   42.26    0.48    0.00    0.52
 1990 261    70     2     2     1.5   87.4   16611   70.9   16.5   1.4   4.3   9.9   8.9   7.4   2.5   1.8   1.6   0.0   0.0   0.1   0.6   1.5   0.9   0.9  1.87  0.60  0.31  0.00  0.00   34.97   42.69    0.49    0.00    0.53
 1990 262    71     2     2     1.9   87.3   16611   70.4   16.9   1.5   4.3   9.7   8.6   7.2   2.6   1.8   1.6   0.0   0.0   0.2   0.7   1.6   0.9   1.0  1.88  0.61  0.31  0.00  0.00   35.47   42.81    0.64    0.00    0.53
 1990 263    72     2     2     2.2   87.5   16610   70.2   17.2   1.6   4.2   9.5   8.4   7.1   2.7   1.9   1.6   0.0   0.0   0.1   0.8   1.6   1.0   1.0  1.90  0.61  0.31  0.00  0.00   35.99   43.03    0.73    0.00    0.53
 1990 264    73     2     2     2.4   87.8   16610   70.4   17.4   1.8   4.3   9.5   8.3   7.1   2.7   1.9   1.6   0.0   0.0   0.1   0.7   1.7   1.0   1.0  1.91  0.62  0.31  0.00  0.00   36.52   43.37    0.78    0.00    0.54
 1990 265    74     2     2     2.4   88.2   16609   70.6   17.6   2.0   4.4   9.5   8.3   7.0   2.8   1.9   1.6   0.0   0.0   0.1   0.7   1.8   1.0   1.0  1.92  0.62  0.31  0.00  0.00   37.04   43.71    0.82    0.00    0.54
 1990 266    75     2     2     2.5   88.7   16608   71.1   17.6   2.2   4.5   9.7   8.3   7.0   2.8   1.9   1.6   0.0   0.0   0.1   0.6   1.7   1.0   1.0  1.94  0.63  0.31  0.00  0.00   37.56   44.23    0.84    0.00    0.54
 1990 267    76     2     2     2.5   89.2   16608   71.6   17.6   2.4   4.5   9.8   8.3   7.1   2.8   1.9   1.6   0.0   0.0   0.1   0.6   1.7   1.0   1.0  1.95  0.63  0.31  0.00  0.00   38.07   44.72    0.85    0.00    0.55
 1990 268    77     2     2     2.5   89.6   16607   72.0   17.6   2.5   4.6   9.9   8.3   7.1   2.8   1.9   1.6   0.0   0.0   0.1   0.6   1.6   1.0   1.0  1.96  0.63  0.31  0.00  0.00   38.57   45.19    0.86    0.00    0.55
 1990 269    78     2     2     2.5   90.1   16607   72.6   17.6   2.7   4.7  10.0   8.4   7.1   2.8   1.9   1.6   0.0   0.0   0.1   0.6   1.6   1.0   1.1  1.97  0.64  0.31  0.00  0.00   39.05   45.72    0.87    0.00    0.55
 1990 270    79     2     2     2.5   90.6   16606   73.1   17.5   2.9   4.8  10.1   8.4   7.1   2.8   1.9   1.6   0.0   0.0   0.1   0.6   1.6   1.0   1.1  1.98  0.64  0.31  0.00  0.00   39.54   46.25    0.87    0.00    0.55
 1990 271    80     2     2     2.5   91.1   16606   73.6   17.5   3.1   4.9  10.2   8.5   7.1   2.8   1.9   1.6   0.0   0.0   0.1   0.6   1.5   1.0   1.1  2.00  0.65  0.32  0.00  0.00   40.05   46.78    0.88    0.00    0.56
 1990 272    81     2     2     2.5   91.6   16605   74.2   17.5   3.2   5.0  10.3   8.5   7.1   2.8   1.9   1.6   0.0   0.0   0.1   0.5   1.5   0.9   1.1  2.01  0.65  0.32  0.00  0.00   40.59   47.34    0.89    0.00    0.56
 1990 273    82     2     2     2.5   92.2   16605   74.7   17.5   3.4   5.1  10.4   8.6   7.1   2.8   1.9   1.6   0.0   0.0   0.1   0.5   1.5   0.9   1.1  2.02  0.66  0.32  0.00  0.00   41.17   47.93    0.90    0.00    0.56
 1990 274    83     2     2     2.5   92.8   16604   75.4   17.4   3.6   5.2  10.5   8.6   7.2   2.8   1.9   1.6   0.0   0.0   0.1   0.5   1.4   0.9   1.1  2.04  0.66  0.32  0.00  0.00   41.78   48.56    0.90    0.00    0.57
 1990 275    84     2     2     2.5   93.4   16604   76.0   17.4   3.8   5.3  10.6   8.7   7.2   2.8   2.0   1.6   0.0   0.0   0.1   0.5   1.4   0.9   1.1  2.05  0.67  0.32  0.00  0.00   42.44   49.23    0.91    0.00    0.57
 1990 276    85     2     2     2.5   94.1   16603   76.7   17.4   4.0   5.4  10.8   8.8   7.2   2.8   2.0   1.6   0.0   0.0   0.1   0.5   1.4   0.8   1.1  2.06  0.67  0.32  0.00  0.00   43.10   49.89    0.92    0.00    0.59
 1990 277    86     2     2     2.5   94.7   16602   77.3   17.4   4.2   5.6  10.9   8.8   7.2   2.8   2.0   1.6   0.0   0.0   0.1   0.5   1.3   0.8   1.2  2.08  0.67  0.32  0.00  0.00   43.79   50.55    0.92    0.00    0.61
 1990 278    87     2     2     2.5   95.4   16602   78.0   17.4   4.4   5.7  11.0   8.9   7.2   2.8   2.0   1.6   0.0   0.0   0.1   0.5   1.3   0.8   1.2  2.09  0.68  0.32  0.00  0.00   44.51   51.27    0.93    0.00    0.63
 1990 279    88     2     2     2.5   96.1   16601   78.8   17.3   2.6   5.6  11.6   9.2   7.4   2.9   2.0   1.7   0.0   0.0   0.1   0.5   1.3   0.8   1.1  2.11  0.68  0.32  0.00  0.00   45.22   52.05    0.93    0.00    0.65
 1990 280    89     2     2     2.5   96.8   16600   79.0   17.7   2.4   5.4  11.4   9.4   7.5   2.9   2.0   1.7   0.0   0.0   0.1   0.6   1.4   0.8   1.1  2.12  0.69  0.32  0.00  0.00   45.89   52.28    0.94    0.00    0.67
 1990 281    90     2     2     3.4   96.5   16599   78.3   18.2   1.0   3.7   9.1   8.5   8.0   4.0   2.6   2.0   0.0   0.0   0.2   0.7   1.5   0.8   1.2  2.13  0.69  0.32  0.00  0.00   46.55   52.46    0.94    0.00    0.69
 1990 282    91     2     2     4.3   96.1   16599   77.5   18.6   1.2   3.7   8.9   8.3   7.8   4.0   2.6   2.0   0.0   0.0   0.1   0.8   1.6   0.9   1.2  2.15  0.70  0.32  0.00  0.00   47.16   52.67    1.03    0.00    0.72
 1990 283    92     2     2     4.8   96.1   16598   77.1   18.9   1.3   3.7   8.8   8.1   7.7   4.0   2.7   2.0   0.0   0.0   0.1   0.9   1.6   0.9   1.2  2.16  0.71  0.32  0.00  0.00   47.76   52.87    1.08    0.00    0.74
 1990 284    93     2     2     5.1   96.2   16598   77.1   19.1   1.5   3.8   8.8   8.0   7.6   4.0   2.7   2.0   0.0   0.0   0.1   0.8   1.7   0.9   1.2  2.18  0.71  0.32  0.00  0.00   48.37   53.29    1.19    0.00    0.76
 1990 285    94     2     2     5.3   96.6   16597   77.5   19.1   0.8   2.9   7.8   7.7   7.9   4.6   3.1   2.1   0.0   0.0   0.1   0.7   1.7   0.9   1.2  2.19  0.71  0.32  0.00  0.00   48.97   53.90    1.24    0.00    0.78
 1990 286    95     2     2     6.2   96.0   16596   76.5   19.5   0.9   2.9   7.6   7.4   7.7   4.6   3.1   2.2   0.0   0.0   0.1   0.8   1.7   1.0   1.2  2.21  0.72  0.33  0.00  0.00   49.55   54.07    1.46    0.00    0.80
 1990 287    96     2     2     6.8   95.9   16596   76.2   19.7   1.1   3.0   7.6   7.3   7.5   4.6   3.1   2.2   0.0   0.0   0.1   0.7   1.8   1.0   1.3  2.22  0.73  0.33  0.00  0.00   50.15   54.46    1.60    0.00    0.82
 1990 288    97     2     2     7.1   96.1   16595   76.2   19.9   1.2   3.1   7.6   7.2   7.5   4.6   3.2   2.3   0.0   0.0   0.1   0.7   1.9   1.0   1.3  2.23  0.73  0.33  0.00  0.00   50.76   54.85    1.68    0.00    0.83
 1990 289    98     2     2     7.3   96.5   16595   76.6   19.8   1.4   3.2   7.8   7.2   7.4   4.6   3.2   2.3   0.0   0.0   0.1   0.6   1.8   1.0   1.3  2.25  0.74  0.33  0.00  0.00   51.36   55.47    1.72    0.00    0.84
 1990 290    99     2     2     7.4   96.9   16594   77.1   19.8   1.6   3.4   7.9   7.2   7.4   4.6   3.2   2.3   0.0   0.0   0.1   0.6   1.8   1.0   1.3  2.26  0.74  0.33  0.00  0.00   51.95   56.08    1.75    0.00    0.84
 1990 291   100     2     2     7.4   97.5   16593   77.7   19.8   1.8   3.5   8.0   7.2   7.4   4.6   3.2   2.3   0.0   0.0   0.1   0.6   1.7   1.1   1.3  2.27  0.74  0.33  0.00  0.00   52.55   56.69    1.77    0.00    0.84
 1990 292   101     2     2     7.4   98.1   16593   78.3   19.8   1.8   3.7   8.2   7.2   7.4   4.6   3.2   2.3   0.0   0.0   0.1   0.6   1.6   1.1   1.3  2.28  0.75  0.33  0.00  0.00   53.16   57.30    1.78    0.00    0.84
 1990 293   102     2     2     7.4   98.7   16592   79.0   19.7   1.8   3.9   8.3   7.3   7.5   4.6   3.2   2.3   0.0   0.0   0.1   0.6   1.6   1.0   1.3  2.30  0.75  0.33  0.00  0.00   53.77   58.00    1.79    0.00    0.85
 1990 294   103     2     2     7.4   99.3   16592   79.7   19.6   1.9   4.0   8.5   7.4   7.5   4.6   3.2   2.3   0.0   0.0   0.1   0.5   1.6   1.0   1.3  2.31  0.75  0.33  0.00  0.00   54.40   58.70    1.80    0.00    0.85
 1990 295   104     2     2     7.4  100.0   16591   80.4   19.6   2.0   4.1   8.6   7.4   7.5   4.6   3.2   2.3   0.0   0.0   0.1   0.5   1.5   1.0   1.3  2.32  0.76  0.33  0.00  0.00   55.05   59.41    1.82    0.00    0.85
 1990 296   105     2     2     7.4  100.6   16590   81.1   19.5   2.2   4.3   8.8   7.5   7.5   4.6   3.2   2.3   0.0   0.0   0.1   0.5   1.5   0.9   1.4  2.33  0.76  0.33  0.00  0.00   55.72   60.13    1.83    0.00    0.85
 1990 297   106     2     2     7.4  101.3   16590   81.8   19.5   2.4   4.4   8.9   7.6   7.5   4.6   3.2   2.3   0.0   0.0   0.1   0.5   1.4   0.9   1.4  2.35  0.77  0.33  0.00  0.00   56.40   60.85    1.84    0.00    0.86
 1990 298   107     2     2     7.4  101.9   16589   82.5   19.4   2.6   4.5   9.1   7.6   7.6   4.6   3.2   2.3   0.0   0.0   0.1   0.5   1.4   0.9   1.4  2.36  0.77  0.33  0.00  0.00   57.07   61.55    1.85    0.00    0.88
 1990 299   108     2     2     7.4  102.5   16588   83.1   19.4   2.7   4.6   9.2   7.7   7.6   4.6   3.2   2.3   0.0   0.0   0.1   0.5   1.4   0.9   1.4  2.37  0.77  0.33  0.00  0.00   57.74   62.22    1.86    0.00    0.90
 1990 300   109     2     2     7.4  103.2   16588   83.8   19.4   2.9   4.8   9.3   7.8   7.6   4.6   3.2   2.3   0.0   0.0   0.1   0.5   1.3   0.8   1.4  2.38  0.78  0.33  0.00  0.00   58.42   62.90    1.87    0.00    0.92
 1990 301   110     2     2     7.4  103.8   16587   84.5   19.4   3.1   4.9   9.5   7.8   7.6   4.6   3.2   2.3   0.0   0.0   0.1   0.5   1.3   0.8   1.4  2.40  0.78  0.33  0.00  0.00   59.12   63.59    1.88    0.00    0.94
 1990 302   111     2     2     7.4  104.5   16586   85.1   19.4   3.1   5.1   9.6   7.9   7.7   4.6   3.3   2.3   0.0   0.0   0.1   0.5   1.3   0.8   1.4  2.41  0.78  0.33  0.00  0.00   59.81   64.26    1.89    0.00    0.96
 1990 303   112     2     2     7.4  105.2   16586   85.8   19.4   1.9   4.7   9.8   8.3   7.8   4.7   3.3   2.3   0.0   0.0   0.1   0.5   1.3   0.8   1.4  2.42  0.79  0.33  0.00  0.00   60.52   64.96    1.90    0.00    0.98
 1990 304   113     2     2     7.8  105.4   16585   85.6   19.8   2.1   4.6   9.6   8.1   7.8   4.7   3.3   2.4   0.0   0.0   0.1   0.6   1.4   0.8   1.4  2.44  0.79  0.33  0.00  0.00   61.23   65.21    1.93    0.00    1.00
 1990 305   114     2     2     7.8  106.1   16584   86.0   20.1   2.3   4.8   9.5   8.1   7.9   4.8   3.4   2.4   0.0   0.0   0.1   0.6   1.5   0.8   1.4  2.45  0.79  0.33  0.00  0.00   61.95   65.66    1.95    0.00    1.02
 1990 306   115     2     2     8.0  106.6   16583   86.3   20.3   2.5   4.9   9.5   8.1   7.8   4.8   3.4   2.4   0.0   0.0   0.1   0.5   1.6   0.9   1.4  2.46  0.80  0.33  0.00  0.00   62.66   66.09    1.97    0.00    1.04
 1990 307   116     2     2     8.0  107.2   16583   86.9   20.3   2.8   5.0   9.7   8.0   7.8   4.8   3.4   2.4   0.0   0.0   0.1   0.5   1.5   0.9   1.4  2.47  0.80  0.33  0.00  0.00   63.38   66.78    1.99    0.00    1.06
 1990 308   117     2     2     8.1  107.8   16582   87.5   20.3   1.5   4.1   9.0   8.1   8.3   5.2   3.6   2.5   0.0   0.0   0.1   0.5   1.5   0.9   1.5  2.49  0.80  0.33  0.00  0.00   64.11   67.47    2.01    0.00    1.08
 1990 309   118     2     2     9.0  107.4   16581   86.6   20.8   1.6   4.0   8.9   7.9   8.0   5.2   3.7   2.6   0.0   0.0   0.1   0.6   1.6   0.9   1.5  2.50  0.81  0.33  0.00  0.00   64.79   67.68    2.23    0.00    1.10
 1990 310   119     2     2     9.5  107.4   16581   86.4   21.0   1.8   4.1   8.8   7.7   7.9   5.2   3.7   2.7   0.0   0.0   0.1   0.6   1.6   1.0   1.5  2.51  0.81  0.33  0.00  0.00   65.45   68.08    2.35    0.00    1.12
 1990 311   120     2     2     9.5  107.9   16580   86.6   21.3   2.0   4.2   8.8   7.6   7.8   5.2   3.8   2.7   0.0   0.0   0.1   0.6   1.7   1.0   1.5  2.53  0.81  0.34  0.00  0.00   66.10   68.48    2.43    0.00    1.13
 1990 312   121     2     2     9.7  108.2   16579   87.0   21.3   2.2   4.3   9.0   7.6   7.8   5.2   3.8   2.7   0.0   0.0   0.1   0.5   1.7   1.0   1.5  2.54  0.82  0.34  0.00  0.00   66.73   69.09    2.49    0.00    1.15
 1990 313   122     2     2     9.9  108.6   16579   87.4   21.3   2.4   4.4   9.1   7.6   7.8   5.2   3.8   2.7   0.0   0.0   0.1   0.5   1.6   1.0   1.5  2.55  0.82  0.34  0.00  0.00   67.32   69.64    2.52    0.00    1.17
 1990 314   123     2     2     9.9  109.2   16578   87.9   21.3   2.6   4.5   9.2   7.6   7.8   5.2   3.8   2.7   0.0   0.0   0.1   0.5   1.6   1.1   1.5  2.56  0.82  0.34  0.00  0.00   67.90   70.19    2.54    0.00    1.19
 1990 315   124     2     2     9.9  109.7   16578   88.4   21.3   2.7   4.6   9.4   7.6   7.8   5.2   3.8   2.7   0.0   0.0   0.1   0.5   1.5   1.1   1.5  2.57  0.83  0.34  0.00  0.00   68.51   70.76    2.56    0.00    1.21
 1990 316   125     2     2     9.9  110.3   16577   89.1   21.2   2.9   4.7   9.5   7.7   7.8   5.2   3.8   2.7   0.0   0.0   0.1   0.5   1.5   1.0   1.5  2.58  0.83  0.34  0.00  0.00   69.14   71.45    2.57    0.00    1.23
 1990 317   126     2     2     9.9  110.9   16576   89.8   21.2   3.1   4.8   9.6   7.8   7.8   5.2   3.8   2.7   0.0   0.0   0.1   0.5   1.5   1.0   1.5  2.60  0.83  0.34  0.00  0.00   69.78   72.13    2.59    0.00    1.25
 1990 318   127     2     2     9.9  111.6   16576   90.5   21.1   3.3   5.0   9.8   7.9   7.9   5.2   3.8   2.7   0.0   0.0   0.1   0.5   1.4   1.0   1.5  2.61  0.83  0.34  0.00  0.00   70.51   72.91    2.60    0.00    1.27
 1990 319   128     2     2     9.9  112.3   16575   91.3   21.0   3.5   5.1   9.9   7.9   7.9   5.2   3.8   2.8   0.0   0.0   0.1   0.5   1.4   0.9   1.6  2.62  0.84  0.34  0.00  0.00   71.28   73.76    2.62    0.00    1.29
 1990 320   129     2     2    10.7  112.3   16574   91.3   20.9   1.4   3.6   8.3   7.7   8.1   6.0   4.5   3.2   0.0   0.0   0.1   0.5   1.3   0.9   1.6  2.63  0.84  0.34  0.00  0.00   72.05   74.57    2.63    0.00    1.31
 1990 321   130     2     2    12.1  111.3   16573   89.8   21.4   1.5   3.5   8.1   7.5   7.9   5.9   4.5   3.3   0.0   0.0   0.1   0.6   1.4   0.9   1.6  2.65  0.85  0.34  0.00  0.00   72.77   74.78    2.84    0.00    1.33
 1990 322   131     2     2    13.0  111.0   16573   89.3   21.7   1.7   3.7   8.1   7.4   7.7   5.8   4.5   3.3   0.0   0.0   0.1   0.6   1.5   1.0   1.6  2.66  0.85  0.34  0.00  0.00   73.52   75.24    2.97    0.00    1.35
 1990 323   132     2     2    13.5  111.1   16572   89.2   22.0   1.9   3.8   8.1   7.3   7.7   5.8   4.5   3.3   0.0   0.0   0.1   0.5   1.6   1.0   1.6  2.68  0.86  0.34  0.00  0.00   74.25   75.69    3.04    0.00    1.36
 1990 324   133     2     2    13.8  111.5   16571   89.6   21.9   2.1   3.9   8.3   7.3   7.6   5.7   4.5   3.3   0.0   0.0   0.1   0.5   1.6   1.0   1.6  2.69  0.86  0.34  0.00  0.00   74.99   76.43    3.09    0.00    1.39
 1990 325   134     2     2    13.9  112.2   16570   90.2   21.9   2.4   4.0   8.5   7.3   7.7   5.7   4.5   3.3   0.0   0.0   0.1   0.5   1.5   1.0   1.6  2.70  0.86  0.34  0.00  0.00   75.76   77.18    3.12    0.00    1.40
 1990 326   135     2     2    13.9  112.8   16569   90.9   21.9   2.6   4.2   8.6   7.3   7.7   5.7   4.5   3.3   0.0   0.0   0.1   0.5   1.4   1.0   1.6  2.71  0.86  0.34  0.00  0.00   76.56   77.99    3.15    0.00    1.42
 1990 327   136     2     2    13.9  113.6   16569   91.7   21.9   2.8   4.3   8.8   7.4   7.7   5.7   4.5   3.3   0.0   0.0   0.1   0.5   1.4   1.1   1.6  2.73  0.87  0.34  0.00  0.00   77.38   78.78    3.16    0.00    1.44
 1990 328   137     2     2    13.9  114.4   16568   92.6   21.8   3.0   4.5   9.0   7.5   7.7   5.8   4.5   3.3   0.0   0.0   0.1   0.5   1.3   1.0   1.6  2.74  0.87  0.34  0.00  0.00   78.19   79.69    3.18    0.00    1.46
 1990 329   138     2     2    13.9  115.1   16567   93.4   21.7   3.2   4.7   9.1   7.5   7.8   5.8   4.5   3.3   0.0   0.0   0.1   0.5   1.3   1.0   1.6  2.75  0.87  0.34  0.00  0.00   78.98   80.53    3.20    0.00    1.48
 1990 330   139     2     2    14.0  115.8   16566   94.2   21.6   2.2   4.6   9.5   7.8   7.8   5.8   4.5   3.3   0.0   0.0   0.1   0.5   1.3   0.9   1.6  2.76  0.88  0.34  0.00  0.00   79.77   81.37    3.21    0.00    1.50
 1990 331   140     2     2    14.4  116.1   16566   94.0   22.1   2.3   4.6   9.4   7.7   7.8   5.8   4.5   3.4   0.0   0.0   0.1   0.6   1.4   1.0   1.6  2.77  0.88  0.34  0.00  0.00   80.53   81.67    3.24    0.00    1.52
 1990 332   141     2     2    14.5  116.7   16565   94.3   22.3   2.5   4.7   9.3   7.7   7.8   5.8   4.6   3.4   0.0   0.0   0.1   0.5   1.5   1.0   1.6  2.78  0.88  0.34  0.00  0.00   81.26   82.15    3.25    0.00    1.54
 1990 333   142     2     2    14.6  117.3   16564   94.8   22.5   2.8   4.7   9.3   7.7   7.9   5.8   4.6   3.4   0.0   0.0   0.1   0.5   1.6   1.0   1.6  2.80  0.88  0.34  0.00  0.00   81.98   82.62    3.27    0.00    1.55
 1990 334   143     2     2    14.6  118.0   16563   95.4   22.5   3.0   4.8   9.5   7.7   7.9   5.9   4.6   3.4   0.0   0.0   0.1   0.5   1.5   1.0   1.7  2.81  0.88  0.34  0.00  0.00   82.69   83.33    3.29    0.00    1.58
 1990 335   144     2     2    14.6  118.6   16563   96.1   22.5   3.3   4.9   9.6   7.8   7.9   5.9   4.6   3.4   0.0   0.0   0.1   0.5   1.5   1.0   1.7  2.82  0.89  0.34  0.00  0.00   83.39   83.99    3.31    0.00    1.59
 1990 336   145     2     2    14.6  119.3   16562   96.7   22.6   3.5   5.1   9.7   7.8   7.9   5.9   4.6   3.4   0.0   0.0   0.1   0.5   1.4   1.1   1.7  2.83  0.89  0.34  0.00  0.00   84.09   84.66    3.33    0.00    1.61
 1990 337   146     2     2    14.6  119.9   16561   97.5   22.5   3.1   5.4   9.9   7.9   8.0   5.9   4.6   3.4   0.0   0.0   0.1   0.5   1.4   1.0   1.7  2.84  0.89  0.34  0.00  0.00   84.80   85.43    3.34    0.00    1.63
 1990 338   147     2     2    14.6  120.6   16561   98.1   22.5   3.2   5.5  10.1   7.9   8.0   5.9   4.6   3.4   0.0   0.0   0.1   0.6   1.4   1.0   1.7  2.85  0.89  0.34  0.00  0.00   85.50   86.06    3.36    0.00    1.65
 1990 339   148     2     2    14.6  121.3   16560   98.8   22.4   3.4   5.6  10.2   8.0   8.0   5.9   4.6   3.4   0.0   0.0   0.1   0.6   1.3   1.0   1.7  2.86  0.90  0.34  0.00  0.00   86.20   86.83    3.37    0.00    1.67
 1990 340   149     2     2    14.8  121.7   16559   99.3   22.4   1.5   4.2   9.0   8.1   8.4   6.5   5.2   3.7   0.0   0.0   0.1   0.5   1.3   0.9   1.7  2.87  0.90  0.34  0.00  0.00   86.93   87.61    3.39    0.00    1.69
 1990 341   150     2     2    23.0  114.0   16558   91.1   22.8   0.6   2.4   6.3   6.5   7.4   6.6   5.7   4.5   0.0   0.0   0.1   0.6   1.4   1.0   1.7  2.89  0.90  0.35  0.00  0.00   87.63   87.83    3.61    0.00    1.71
 1990 342   151     2     2    25.0  112.4   16558   89.1   23.3   0.7   2.4   6.2   6.3   7.1   6.4   5.6   4.5   0.0   0.0   0.1   0.8   1.5   1.0   1.7  2.90  0.91  0.35  0.00  0.00   88.35   88.06    3.84    0.00    1.73
 1990 343   152     2     2    26.2  111.8   16557   88.3   23.5   0.9   2.6   6.2   6.2   7.0   6.3   5.5   4.5   0.0   0.0   0.1   0.7   1.6   1.0   1.7  2.92  0.91  0.35  0.00  0.00   89.10   88.58    3.97    0.00    1.75
 1990 344   153     2     2    32.5  106.1   16556   82.4   23.7   0.4   1.5   4.3   5.0   6.2   6.4   5.9   5.1   0.0   0.0   0.1   0.6   1.7   1.0   1.7  2.93  0.92  0.35  0.00  0.00   89.81   89.07    4.05    0.00    1.77
 1990 345   154     2     2    34.8  104.1   16556   80.0   24.1   0.4   1.5   4.2   4.8   5.9   6.2   5.8   5.0   0.0   0.0   0.2   0.7   1.8   1.1   1.7  2.94  0.92  0.35  0.00  0.00   90.45   89.24    4.37    0.00    1.79
 1990 346   155     2     2    36.2  103.2   16555   78.7   24.5   0.6   1.5   4.2   4.7   5.8   6.0   5.7   5.0   0.0   0.0   0.1   0.8   1.9   1.1   1.8  2.96  0.93  0.35  0.00  0.00   91.09   89.54    4.55    0.00    1.79
 1990 347   156     2     2    36.9  103.0   16554   78.3   24.6   0.8   1.7   4.2   4.6   5.7   6.0   5.6   4.9   0.0   0.0   0.1   0.7   1.9   1.1   1.8  2.97  0.93  0.35  0.00  0.00   91.71   90.02    4.65    0.00    1.80
 1990 348   157     2     2    37.3  103.1   16554   78.6   24.5   0.9   1.8   4.4   4.6   5.7   5.9   5.6   4.9   0.0   0.0   0.1   0.7   1.9   1.1   1.8  2.98  0.93  0.35  0.00  0.00   92.33   90.72    4.70    0.00    1.80
 1990 349   158     2     2    37.6  103.4   16553   79.0   24.4   1.1   2.0   4.5   4.6   5.7   5.9   5.6   4.9   0.0   0.0   0.1   0.6   1.8   1.1   1.8  2.99  0.93  0.35  0.00  0.00   92.96   91.43    4.73    0.00    1.80
 1990 350   159     2     2    37.6  104.1   16552   79.7   24.4   1.3   2.1   4.7   4.6   5.7   5.9   5.6   4.9   0.0   0.0   0.1   0.6   1.7   1.2   1.8  3.00  0.94  0.35  0.00  0.00   93.63   92.18    4.75    0.00    1.80
 1990 351   160     2     2    37.6  104.7   16552   80.5   24.3   1.5   2.3   4.9   4.7   5.8   5.9   5.6   4.9   0.0   0.0   0.1   0.6   1.6   1.2   1.8  3.01  0.94  0.35  0.00  0.00   94.33   92.95    4.77    0.00    1.81
 1990 352   161     2     2    37.7  105.3   16551   81.2   24.1   0.8   2.0   4.6   4.7   5.9   6.2   5.8   5.0   0.0   0.0   0.1   0.5   1.6   1.1   1.8  3.02  0.94  0.35  0.00  0.00   95.07   93.88    4.78    0.00    1.81
 1990 353   162     2     2    39.4  104.2   16550   79.7   24.5   1.0   2.0   4.6   4.6   5.7   6.0   5.7   5.0   0.0   0.0   0.1   0.7   1.7   1.2   1.8  3.03  0.94  0.35  0.00  0.00   95.80   94.15    4.92    0.00    1.81
 1990 354   163     2     2    40.3  104.0   16549   79.2   24.8   1.2   2.1   4.6   4.5   5.5   5.9   5.7   5.0   0.0   0.0   0.1   0.6   1.8   1.2   1.8  3.05  0.95  0.35  0.00  0.00   96.57   94.70    5.01    0.00    1.81
 1990 355   164     2     2    40.8  104.2   16549   79.3   25.0   1.4   2.3   4.6   4.5   5.5   5.9   5.6   5.0   0.0   0.0   0.1   0.5   1.9   1.2   1.8  3.06  0.95  0.35  0.00  0.00   97.35   95.27    5.05    0.00    1.82
 1990 356   165     2     2    40.9  104.8   16548   80.0   24.9   0.9   2.1   4.6   4.5   5.6   6.0   5.7   5.1   0.0   0.0   0.1   0.5   1.8   1.2   1.8  3.07  0.95  0.35  0.00  0.00   98.12   96.15    5.08    0.00    1.82
 1990 357   166     2     2    42.4  103.9   16547   78.6   25.3   1.1   2.1   4.5   4.4   5.4   5.9   5.7   5.1   0.0   0.0   0.1   0.6   1.9   1.2   1.8  3.08  0.95  0.35  0.00  0.00   98.86   96.44    5.24    0.00    1.82
 1990 358   167     2     2    42.6  104.4   16546   78.7   25.7   0.9   2.1   4.5   4.4   5.5   5.9   5.7   5.1   0.0   0.0   0.1   0.7   2.0   1.3   1.8  3.09  0.96  0.35  0.00  0.00   99.62   96.81    5.34    0.00    1.82
 1990 359   168     2     2    44.0  103.6   16546   77.5   26.1   1.1   2.1   4.4   4.3   5.3   5.8   5.7   5.1   0.0   0.0   0.1   0.9   2.1   1.3   1.8  3.11  0.96  0.35  0.00  0.00  100.36   97.12    5.47    0.00    1.83
 1990 360   169     2     2    44.7  103.5   16545   77.1   26.4   1.3   2.1   4.4   4.2   5.2   5.7   5.6   5.1   0.0   0.0   0.1   0.9   2.1   1.3   1.9  3.12  0.96  0.35  0.00  0.00  101.09   97.51    5.55    0.00    1.83
 1990 361   170     2     2    45.1  103.8   16544   77.3   26.5   1.5   2.4   4.4   4.2   5.1   5.7   5.6   5.1   0.0   0.0   0.1   0.8   2.2   1.3   1.9  3.13  0.96  0.35  0.00  0.00  101.85   98.20    5.61    0.00    1.83
 1990 362   171     2     2    45.2  104.4   16543   78.2   26.2   1.7   2.6   4.7   4.2   5.1   5.7   5.6   5.1   0.0   0.0   0.1   0.7   2.1   1.4   1.9  3.14  0.96  0.35  0.00  0.00  102.63   99.29    5.64    0.00    1.83
 1990 363   172     2     2    45.3  105.1   16543   79.1   26.0   1.9   2.8   4.9   4.2   5.2   5.7   5.6   5.1   0.0   0.0   0.1   0.6   1.9   1.4   1.9  3.15  0.96  0.35  0.00  0.00  103.39  100.26    5.66    0.00    1.84
 1990 364   173     2     2    45.3  105.8   16542   80.0   25.8   2.2   3.0   5.2   4.2   5.2   5.7   5.6   5.1   0.0   0.0   0.1   0.6   1.8   1.4   1.9  3.16  0.97  0.35  0.00  0.00  104.15  101.19    5.67    0.00    1.84
 1990 365   174     2     2    45.3  106.6   16541   80.9   25.7   2.4   3.1   5.4   4.3   5.2   5.7   5.7   5.1   0.0   0.0   0.1   0.5   1.7   1.4   1.9  3.17  0.97  0.35  0.00  0.00  104.92  102.08    5.69    0.00    1.84
 1991 001   175     2     2    45.3  107.3   16540   81.9   25.4   2.6   3.3   5.6   4.4   5.3   5.7   5.7   5.1   0.0   0.0   0.1   0.5   1.7   1.3   1.9  3.18  0.97  0.35  0.00  0.00  105.68  103.09    5.70    0.00    1.85
 1991 002   176     2     2    45.3  108.1   16540   82.8   25.2   2.8   3.4   5.8   4.5   5.3   5.8   5.7   5.1   0.0   0.0   0.1   0.5   1.6   1.2   1.9  3.19  0.97  0.35  0.00  0.00  106.43  104.05    5.72    0.00    1.85
 1991 003   177     2     2    45.3  108.8   16539   83.8   25.0   3.0   3.6   6.0   4.6   5.3   5.8   5.7   5.1   0.0   0.0   0.1   0.5   1.5   1.2   1.9  3.20  0.97  0.35  0.00  0.00  107.22  105.05    5.73    0.00    1.85
 1991 004   178     2     2    45.3  109.6   16538   84.8   24.8   3.3   3.8   6.2   4.7   5.4   5.8   5.7   5.1   0.0   0.0   0.1   0.5   1.4   1.1   1.9  3.21  0.97  0.35  0.00  0.00  108.04  106.06    5.74    0.00    1.85
 1991 005   179     2     2    45.3  110.4   16537   85.8   24.6   3.5   3.9   6.4   4.8   5.4   5.8   5.7   5.2   0.0   0.0   0.1   0.5   1.4   1.1   1.9  3.22  0.97  0.35  0.00  0.00  108.87  107.06    5.76    0.00    1.87
 1991 006   180     2     2    45.3  111.2   16536   86.7   24.5   3.7   4.1   6.6   4.9   5.5   5.8   5.7   5.2   0.0   0.0   0.1   0.4   1.3   1.0   1.9  3.23  0.98  0.35  0.00  0.00  109.70  107.99    5.77    0.00    1.89
 1991 007   181     2     2    45.3  112.0   16536   87.6   24.4   3.9   4.2   6.8   5.0   5.5   5.8   5.7   5.2   0.0   0.0   0.1   0.4   1.3   1.0   1.9  3.24  0.98  0.35  0.00  0.00  110.52  108.92    5.78    0.00    1.91
 1991 008   182     2     2    45.3  112.8   16535   88.5   24.3   4.1   4.4   6.9   5.1   5.5   5.8   5.7   5.2   0.0   0.0   0.1   0.4   1.3   0.9   1.9  3.25  0.98  0.35  0.00  0.00  111.35  109.83    5.79    0.00    1.93
 1991 009   183     2     2    45.3  113.6   16534   89.7   24.0   4.3   4.6   7.1   5.2   5.7   5.8   5.7   5.2   0.0   0.0   0.1   0.4   1.2   0.9   1.8  3.26  0.98  0.35  0.00  0.00  112.22  110.99    5.80    0.00    1.95
 1991 010   184     2     2    45.3  114.5   16533   90.7   23.7   4.3   4.8   7.3   5.3   5.8   5.8   5.7   5.2   0.0   0.0   0.1   0.4   1.2   0.9   1.7  3.27  0.98  0.35  0.00  0.00  113.06  112.04    5.82    0.00    1.96
 1991 011   185     2     2    45.3  115.3   16532   91.8   23.5   4.5   5.0   7.5   5.3   5.9   5.9   5.8   5.2   0.0   0.0   0.1   0.4   1.2   0.8   1.6  3.28  0.98  0.35  0.00  0.00  113.92  113.13    5.83    0.00    1.99
 1991 012   186     2     2    45.3  116.1   16531   92.8   23.3   4.7   5.2   7.6   5.4   6.0   5.9   5.8   5.2   0.0   0.0   0.1   0.4   1.1   0.8   1.5  3.29  0.98  0.35  0.00  0.00  114.76  114.11    5.84    0.00    2.00
 1991 013   187     2     2    45.3  116.9   16530   93.7   23.2   4.9   5.3   7.8   5.5   6.2   5.9   5.8   5.2   0.0   0.0   0.1   0.4   1.1   0.8   1.4  3.30  0.99  0.35  0.00  0.00  115.58  115.09    5.85    0.00    2.02
 1991 014   188     2     2    45.3  117.6   16530   94.6   23.1   5.1   5.5   7.9   5.5   6.3   5.9   5.8   5.2   0.0   0.0   0.1   0.4   1.1   0.8   1.4  3.31  0.99  0.35  0.00  0.00  116.35  115.94    5.86    0.00    2.03
 1991 015   189     2     2    45.3  118.4   16529   95.5   22.9   5.3   5.6   8.0   5.6   6.3   5.9   5.8   5.2   0.0   0.0   0.1   0.4   1.1   0.7   1.3  3.32  0.99  0.35  0.00  0.00  117.14  116.84    5.87    0.00    2.06
 1991 016   190     2     2    45.3  119.2   16528   96.3   22.8   5.4   5.8   8.2   5.7   6.4   5.9   5.8   5.2   0.0   0.0   0.1   0.4   1.1   0.7   1.3  3.33  0.99  0.35  0.00  0.00  117.93  117.71    5.88    0.00    2.07

*DSSAT Cropping System Model Ver. 4.0.2.000               Aug 12, 2016; 09:16:44

*RUN   2        : UYSB                    
 MODEL          : CRGRO040 - Soybean         
 EXPERIMENT     : UYSB0192 SB    late to create DSS                             
 TREATMENT  1   : UYSB                    

@YEAR DOY   DAS  NAPC  NI#M    NLCC   NIAD    NOAD   NITD   NHTD  NI1D  NI2D  NI3D  NI4D  NI5D  NI6D  NI7D  NI8D  NI9D  NI10  NH1D  NH2D  NH3D  NH4D  NH5D  NH6D  NH7D  NH8D  NH9D  NH10    NMNC    NITC    NDNC    NIMC    AMLC
 1991 191     0     0     0     0.0   54.9   16645   32.3   22.5   5.3   5.9   5.2   4.7   2.6   0.0   0.1   0.1   0.0   0.0   0.3   1.3   1.5   1.4   1.4  1.50  1.46  1.45  0.00  0.00    0.64    2.07    0.00    0.00    0.00
 1991 192     1     0     0     0.0   55.5   16645   33.6   21.9   5.2   6.2   5.3   4.8   2.7   0.0   0.1   0.1   0.0   0.0   0.2   1.1   1.4   1.4   1.4  1.51  1.43  1.41  0.00  0.00    1.24    3.34    0.00    0.00    0.00
 1991 193     2     0     0     0.0   56.0   16644   34.7   21.3   5.3   6.4   5.5   4.9   2.7   0.1   0.2   0.2   0.0   0.0   0.1   1.0   1.4   1.3   1.3  1.51  1.39  1.36  0.00  0.00    1.77    4.40    0.00    0.00    0.00
 1991 194     3     0     0     0.0   56.5   16644   35.6   20.9   2.5   6.0   6.9   5.0   2.8   0.1   0.2   0.2   0.0   0.0   0.1   0.9   1.4   1.3   1.3  1.51  1.36  1.32  0.00  0.00    2.24    5.31    0.00    0.00    0.00
 1991 195     4     2     2     0.0   58.8   16643   37.3   21.5   4.4   5.8   7.0   5.1   2.9   0.1   0.2   0.2   0.0   0.0   1.8   1.0   1.4   1.2   1.3  1.51  1.33  1.28  0.00  0.00    2.63    5.99    0.00    0.00    0.07
 1991 196     5     2     2     0.0   59.0   16643   38.2   20.8   5.0   5.8   7.1   5.2   2.9   0.1   0.3   0.3   0.0   0.0   1.1   1.0   1.3   1.2   1.2  1.52  1.31  1.25  0.00  0.00    2.96    6.95    0.00    0.00    0.14
 1991 197     6     2     2     0.0   59.3   16643   39.1   20.2   5.4   5.9   7.1   5.2   2.9   0.1   0.3   0.3   0.0   0.0   0.6   0.9   1.3   1.2   1.2  1.52  1.28  1.21  0.00  0.00    3.27    7.82    0.00    0.00    0.21
 1991 198     7     2     2     0.0   59.6   16642   39.9   19.7   5.6   6.0   7.2   5.3   3.0   0.1   0.3   0.4   0.0   0.0   0.3   0.9   1.3   1.1   1.2  1.52  1.25  1.18  0.00  0.00    3.61    8.61    0.00    0.00    0.27
 1991 199     8     2     2     0.0   59.9   16642   40.7   19.2   1.9   4.3   6.6   6.1   4.6   0.4   0.4   0.4   0.0   0.0   0.1   0.8   1.3   1.1   1.1  1.52  1.23  1.14  0.00  0.00    4.01    9.39    0.00    0.00    0.34
 1991 200     9     2     2     0.0   60.3   16642   40.8   19.5   1.4   4.0   6.5   6.0   4.7   0.6   0.4   0.4   0.0   0.0   0.1   0.9   1.4   1.1   1.2  1.54  1.23  1.13  0.00  0.00    4.45    9.54    0.00    0.00    0.38
 1991 201    10     2     2     0.0   60.7   16641   40.9   19.8   1.4   3.9   6.4   5.9   4.8   0.7   0.4   0.4   0.0   0.0   0.1   0.9   1.4   1.2   1.2  1.55  1.23  1.13  0.00  0.00    4.92    9.70    0.00    0.00    0.40
 1991 202    11     2     2     1.1   60.2   16641   40.1   20.1   0.4   2.0   4.5   4.8   4.7   2.0   1.1   0.5   0.0   0.0   0.1   1.0   1.5   1.2   1.2  1.57  1.23  1.12  0.00  0.00    5.45    9.88    0.00    0.00    0.41
 1991 203    12     2     2     2.2   59.6   16640   39.1   20.5   0.2   1.2   3.4   3.8   4.2   2.5   1.6   1.0   0.0   0.0   0.1   1.0   1.6   1.2   1.2  1.59  1.24  1.12  0.00  0.00    5.97    9.99    0.00    0.00    0.43
 1991 204    13     2     2     3.2   58.9   16640   38.1   20.8   0.1   0.9   2.8   3.4   3.9   2.7   1.9   1.2   0.0   0.0   0.1   1.1   1.6   1.2   1.2  1.60  1.24  1.11  0.00  0.00    6.44   10.12    0.17    0.00    0.45
 1991 205    14     2     2     3.8   58.6   16639   37.5   21.1   0.2   0.9   2.7   3.2   3.8   2.7   1.9   1.3   0.0   0.0   0.1   1.1   1.7   1.3   1.3  1.62  1.24  1.11  0.00  0.00    6.88   10.28    0.33    0.00    0.45
 1991 206    15     2     2     4.1   58.5   16639   37.2   21.3   0.2   0.9   2.7   3.1   3.7   2.7   1.9   1.3   0.0   0.0   0.1   1.2   1.7   1.3   1.3  1.64  1.25  1.11  0.00  0.00    7.32   10.48    0.42    0.00    0.46
 1991 207    16     2     2     4.3   58.7   16638   37.3   21.4   0.3   1.0   2.7   3.1   3.7   2.6   1.9   1.3   0.0   0.0   0.1   1.1   1.8   1.3   1.3  1.65  1.25  1.10  0.00  0.00    7.73   10.83    0.47    0.00    0.46
 1991 208    17     2     2     4.5   59.0   16638   37.5   21.4   0.4   1.2   2.7   3.1   3.7   2.6   1.9   1.3   0.0   0.0   0.1   1.0   1.8   1.3   1.3  1.66  1.25  1.09  0.00  0.00    8.18   11.22    0.49    0.00    0.46
 1991 209    18     2     2     4.5   59.4   16637   38.1   21.3   0.5   1.3   2.9   3.1   3.7   2.6   2.0   1.4   0.0   0.0   0.1   0.9   1.8   1.3   1.3  1.68  1.25  1.08  0.00  0.00    8.71   11.85    0.51    0.00    0.47
 1991 210    19     2     2     4.5   60.0   16637   38.8   21.2   0.6   1.5   3.0   3.2   3.7   2.6   2.0   1.4   0.0   0.0   0.1   0.8   1.7   1.3   1.3  1.69  1.24  1.07  0.00  0.00    9.31   12.56    0.52    0.00    0.47
 1991 211    20     2     2     4.5   60.7   16636   39.5   21.1   0.8   1.7   3.2   3.2   3.7   2.6   2.0   1.4   0.0   0.0   0.1   0.8   1.7   1.3   1.3  1.71  1.24  1.06  0.00  0.00    9.97   13.32    0.52    0.00    0.47
 1991 212    21     2     2     4.5   61.3   16635   40.4   20.9   0.6   1.6   3.3   3.4   3.8   2.7   2.0   1.4   0.0   0.0   0.1   0.7   1.6   1.3   1.3  1.73  1.24  1.05  0.00  0.00   10.65   14.20    0.53    0.00    0.47
 1991 213    22     2     2     4.8   61.6   16635   40.3   21.3   0.7   1.6   3.2   3.3   3.7   2.7   2.0   1.5   0.0   0.0   0.1   0.8   1.7   1.3   1.3  1.74  1.24  1.05  0.00  0.00   11.27   14.47    0.56    0.00    0.48
 1991 214    23     2     2     5.0   62.0   16634   40.4   21.5   0.8   1.6   3.2   3.3   3.7   2.7   2.1   1.5   0.0   0.0   0.1   0.8   1.8   1.3   1.4  1.76  1.24  1.04  0.00  0.00   11.82   14.74    0.57    0.00    0.48
 1991 215    24     2     2     5.0   62.4   16634   40.7   21.6   0.5   1.5   3.0   3.2   3.8   2.9   2.2   1.5   0.0   0.0   0.1   0.8   1.8   1.3   1.4  1.77  1.24  1.03  0.00  0.00   12.28   15.10    0.58    0.00    0.48
 1991 216    25     2     2     5.8   61.9   16633   40.0   21.8   0.3   1.1   2.6   2.9   3.5   3.0   2.4   1.8   0.0   0.0   0.1   0.8   1.8   1.3   1.4  1.78  1.24  1.02  0.00  0.00   12.66   15.27    0.64    0.00    0.49
 1991 217    26     2     2     6.7   61.2   16633   39.2   22.1   0.3   1.1   2.5   2.8   3.4   2.9   2.4   1.8   0.0   0.0   0.1   0.9   1.9   1.4   1.4  1.80  1.24  1.02  0.00  0.00   12.99   15.38    0.78    0.00    0.49
 1991 218    27     2     2     7.2   60.9   16633   38.7   22.2   0.4   1.1   2.5   2.7   3.3   2.9   2.4   1.8   0.0   0.0   0.1   0.9   1.9   1.4   1.4  1.81  1.25  1.01  0.00  0.00   13.33   15.56    0.86    0.00    0.49
 1991 219    28     2     2     7.5   60.9   16632   38.7   22.3   0.4   1.2   2.5   2.7   3.3   2.8   2.4   1.8   0.0   0.0   0.1   0.8   1.9   1.4   1.4  1.82  1.25  1.01  0.00  0.00   13.68   15.85    0.91    0.00    0.49
 1991 220    29     2     2     7.7   61.1   16632   38.8   22.3   0.5   1.3   2.5   2.7   3.3   2.8   2.4   1.9   0.0   0.0   0.1   0.8   2.0   1.4   1.4  1.84  1.25  1.00  0.00  0.00   14.04   16.15    0.93    0.00    0.50
 1991 221    30     2     2     7.8   61.4   16632   39.1   22.2   0.6   1.3   2.6   2.7   3.3   2.8   2.4   1.9   0.0   0.0   0.1   0.7   1.9   1.4   1.4  1.85  1.25  0.99  0.00  0.00   14.43   16.62    0.95    0.00    0.50
 1991 222    31     2     2     7.8   61.8   16631   39.6   22.2   0.6   1.4   2.7   2.7   3.3   2.8   2.4   1.9   0.0   0.0   0.1   0.7   1.9   1.4   1.4  1.86  1.24  0.99  0.00  0.00   14.85   17.10    0.96    0.00    0.50
 1991 223    32     2     2     7.8   62.2   16631   40.1   22.1   0.7   1.5   2.8   2.7   3.3   2.8   2.4   1.9   0.0   0.0   0.1   0.7   1.8   1.4   1.4  1.87  1.24  0.98  0.00  0.00   15.26   17.57    0.96    0.00    0.50
 1991 224    33     2     2     7.8   62.6   16630   40.5   22.0   0.8   1.6   3.0   2.8   3.3   2.8   2.4   1.9   0.0   0.0   0.1   0.6   1.8   1.4   1.4  1.89  1.24  0.97  0.00  0.00   15.69   18.05    0.97    0.00    0.50
 1991 225    34     2     2     7.8   63.0   16630   41.1   21.9   0.9   1.7   3.1   2.8   3.3   2.8   2.4   1.9   0.0   0.0   0.1   0.6   1.7   1.4   1.4  1.90  1.24  0.96  0.00  0.00   16.12   18.62    0.98    0.00    0.51
 1991 226    35     2     2     7.8   63.4   16629   41.6   21.8   0.9   1.7   3.2   2.9   3.4   2.8   2.4   1.9   0.0   0.0   0.1   0.6   1.7   1.3   1.5  1.91  1.24  0.96  0.00  0.00   16.56   19.19    0.99    0.00    0.51
 1991 227    36     2     2     7.8   63.9   16629   42.2   21.6   1.0   1.8   3.3   3.0   3.4   2.9   2.5   1.9   0.0   0.0   0.1   0.6   1.6   1.3   1.5  1.92  1.24  0.95  0.00  0.00   17.04   19.78    0.99    0.00    0.51
 1991 228    37     2     2     7.8   64.4   16628   42.8   21.5   1.2   1.9   3.4   3.1   3.4   2.9   2.5   1.9   0.0   0.0   0.1   0.6   1.6   1.2   1.5  1.94  1.24  0.94  0.00  0.00   17.58   20.44    1.00    0.00    0.51
 1991 229    38     2     2     7.8   64.9   16628   43.5   21.4   1.3   2.0   3.5   3.1   3.4   2.9   2.5   2.0   0.0   0.0   0.1   0.5   1.5   1.2   1.5  1.95  1.24  0.94  0.00  0.00   18.20   21.16    1.01    0.00    0.52
 1991 230    39     2     2     7.8   65.6   16627   44.3   21.3   1.4   2.1   3.7   3.2   3.4   2.9   2.5   2.0   0.0   0.0   0.1   0.5   1.5   1.1   1.5  1.97  1.23  0.93  0.00  0.00   18.86   21.94    1.01    0.00    0.52
 1991 231    40     2     2     7.8   66.2   16626   45.1   21.2   1.6   2.3   3.8   3.3   3.5   2.9   2.5   2.0   0.0   0.0   0.1   0.5   1.5   1.1   1.5  1.98  1.23  0.92  0.00  0.00   19.55   22.75    1.02    0.00    0.52
 1991 232    41     2     2     7.8   66.9   16626   45.8   21.0   1.8   2.4   4.0   3.4   3.5   2.9   2.5   2.0   0.0   0.0   0.1   0.5   1.4   1.0   1.5  2.00  1.23  0.91  0.00  0.00   20.24   23.53    1.03    0.00    0.53
 1991 233    42     2     2     7.8   67.5   16625   46.6   21.0   1.9   2.5   4.1   3.5   3.5   2.9   2.5   2.0   0.0   0.0   0.1   0.5   1.4   1.0   1.5  2.01  1.23  0.91  0.00  0.00   20.93   24.30    1.03    0.00    0.53
 1991 234    43     2     2     7.8   68.1   16624   47.4   20.8   2.1   2.6   4.2   3.5   3.6   2.9   2.5   2.0   0.0   0.0   0.1   0.5   1.4   1.0   1.4  2.02  1.23  0.90  0.00  0.00   21.62   25.17    1.04    0.00    0.53
 1991 235    44     2     2     7.8   68.7   16624   48.2   20.6   2.2   2.8   4.3   3.6   3.7   2.9   2.5   2.0   0.0   0.0   0.1   0.5   1.3   0.9   1.4  2.04  1.23  0.89  0.00  0.00   22.31   26.03    1.05    0.00    0.53
 1991 236    45     2     2     7.8   69.3   16623   49.0   20.4   2.4   2.9   4.5   3.7   3.8   2.9   2.6   2.0   0.0   0.0   0.1   0.5   1.3   0.9   1.3  2.05  1.23  0.88  0.00  0.00   22.99   26.87    1.05    0.00    0.54
 1991 237    46     2     2     7.8   69.9   16622   49.7   20.2   2.6   3.0   4.6   3.7   3.9   2.9   2.6   2.0   0.0   0.0   0.1   0.5   1.3   0.9   1.3  2.07  1.23  0.88  0.00  0.00   23.66   27.67    1.06    0.00    0.54
 1991 238    47     2     2     7.8   70.5   16622   50.4   20.1   2.7   3.1   4.7   3.8   3.9   2.9   2.6   2.1   0.0   0.0   0.1   0.5   1.3   0.9   1.2  2.08  1.22  0.87  0.00  0.00   24.32   28.44    1.06    0.00    0.54
 1991 239    48     2     2     7.8   71.1   16621   51.1   20.0   2.9   3.2   4.8   3.8   4.0   2.9   2.6   2.1   0.0   0.0   0.1   0.5   1.2   0.8   1.2  2.09  1.22  0.86  0.00  0.00   24.94   29.16    1.07    0.00    0.54
 1991 240    49     2     2     7.8   71.6   16621   51.7   19.9   3.0   3.3   4.9   3.9   4.1   2.9   2.6   2.1   0.0   0.0   0.1   0.5   1.2   0.8   1.2  2.10  1.22  0.86  0.00  0.00   25.51   29.81    1.07    0.00    0.57
 1991 241    50     2     2     7.8   72.1   16620   52.3   19.8   3.1   3.4   5.0   3.9   4.1   2.9   2.6   2.1   0.0   0.0   0.1   0.5   1.2   0.8   1.1  2.12  1.22  0.85  0.00  0.00   26.08   30.42    1.08    0.00    0.59
 1991 242    51     2     2     7.8   72.5   16619   52.8   19.7   3.2   3.5   5.1   4.0   4.2   2.9   2.6   2.1   0.0   0.0   0.1   0.5   1.2   0.8   1.1  2.13  1.22  0.84  0.00  0.00   26.65   31.04    1.08    0.00    0.61
 1991 243    52     2     2     7.8   73.0   16619   53.4   19.6   3.2   3.5   5.1   4.0   4.3   2.9   2.6   2.1   0.0   0.0   0.1   0.5   1.2   0.8   1.1  2.14  1.22  0.84  0.00  0.00   27.22   31.65    1.09    0.00    0.62
 1991 244    53     2     2     7.8   73.5   16618   53.9   19.6   2.3   3.9   5.4   4.1   4.3   2.9   2.6   2.1   0.0   0.0   0.1   0.5   1.2   0.8   1.0  2.15  1.22  0.83  0.00  0.00   27.78   32.25    1.09    0.00    0.64
 1991 245    54     2     2     7.8   73.9   16618   54.3   19.6   2.4   3.8   5.5   4.1   4.4   3.0   2.7   2.1   0.0   0.0   0.1   0.6   1.2   0.7   1.0  2.16  1.21  0.83  0.00  0.00   28.34   32.75    1.10    0.00    0.66
 1991 246    55     2     2     7.8   74.4   16617   54.8   19.6   2.4   3.8   5.6   4.2   4.4   3.0   2.7   2.1   0.0   0.0   0.1   0.6   1.2   0.7   1.0  2.17  1.21  0.82  0.00  0.00   28.89   33.24    1.10    0.00    0.68
 1991 247    56     2     2     7.8   74.8   16617   55.3   19.5   2.5   3.8   5.7   4.2   4.5   3.0   2.7   2.1   0.0   0.0   0.1   0.6   1.2   0.7   0.9  2.18  1.21  0.81  0.00  0.00   29.44   33.83    1.11    0.00    0.70
 1991 248    57     2     2     7.8   75.1   16616   55.7   19.4   2.6   3.9   5.8   4.3   4.5   3.0   2.7   2.2   0.0   0.0   0.1   0.6   1.2   0.7   0.9  2.19  1.21  0.81  0.00  0.00   29.99   34.42    1.11    0.00    0.72
 1991 249    58     2     2     7.8   75.5   16615   56.1   19.3   2.7   4.0   5.8   4.3   4.5   3.0   2.7   2.2   0.0   0.0   0.1   0.6   1.1   0.7   0.9  2.20  1.21  0.80  0.00  0.00   30.60   35.05    1.11    0.00    0.74
 1991 250    59     2     2     7.8   76.0   16615   56.7   19.3   2.5   4.2   5.9   4.3   4.6   3.0   2.7   2.2   0.0   0.0   0.1   0.5   1.1   0.7   0.9  2.21  1.21  0.80  0.00  0.00   31.23   35.71    1.12    0.00    0.76
 1991 251    60     2     2     7.8   76.5   16614   57.1   19.4   2.5   4.2   6.1   4.4   4.6   3.0   2.7   2.2   0.0   0.0   0.2   0.6   1.1   0.7   0.9  2.23  1.20  0.79  0.00  0.00   31.88   36.21    1.12    0.00    0.78
 1991 252    61     2     2     7.8   77.0   16614   57.7   19.3   2.6   4.3   6.2   4.4   4.7   3.0   2.7   2.2   0.0   0.0   0.1   0.6   1.1   0.7   0.8  2.24  1.20  0.79  0.00  0.00   32.49   36.89    1.13    0.00    0.81
 1991 253    62     2     2     7.8   77.4   16613   58.2   19.2   2.7   4.4   6.2   4.5   4.7   3.0   2.7   2.2   0.0   0.0   0.1   0.6   1.1   0.7   0.8  2.25  1.20  0.78  0.00  0.00   33.07   37.48    1.13    0.00    0.83
 1991 254    63     2     2     7.8   77.6   16612   58.5   19.1   2.8   4.4   6.3   4.5   4.8   3.0   2.7   2.2   0.0   0.0   0.1   0.6   1.1   0.7   0.8  2.25  1.20  0.77  0.00  0.00   33.63   38.04    1.13    0.00    0.84
 1991 255    64     2     2     7.8   77.8   16612   58.8   19.0   2.9   4.4   6.3   4.5   4.8   3.0   2.8   2.2   0.0   0.0   0.1   0.5   1.1   0.6   0.8  2.26  1.19  0.77  0.00  0.00   34.20   38.60    1.14    0.00    0.86
 1991 256    65     2     2     7.8   78.0   16611   59.1   19.0   3.0   4.5   6.3   4.6   4.8   3.0   2.8   2.2   0.0   0.0   0.1   0.5   1.1   0.6   0.8  2.27  1.19  0.76  0.00  0.00   34.81   39.20    1.14    0.00    0.88
 1991 257    66     2     2     7.8   78.3   16611   59.5   18.8   3.2   4.6   6.4   4.6   4.8   3.0   2.8   2.2   0.0   0.0   0.1   0.5   1.1   0.6   0.8  2.25  1.19  0.76  0.00  0.00   35.50   39.94    1.14    0.00    0.90
 1991 258    67     2     2     7.8   78.8   16610   60.1   18.7   2.2   4.6   6.7   4.7   4.9   3.0   2.8   2.2   0.0   0.0   0.1   0.5   1.1   0.6   0.7  2.24  1.19  0.75  0.00  0.00   36.18   40.67    1.14    0.00    0.92
 1991 259    68     2     2     7.8   79.3   16609   60.4   18.9   2.1   4.6   6.7   4.8   4.9   3.0   2.8   2.2   0.0   0.0   0.2   0.6   1.2   0.6   0.7  2.23  1.18  0.74  0.00  0.00   36.81   41.06    1.14    0.00    0.94
 1991 260    69     2     2     7.8   79.5   16609   60.5   19.0   1.6   4.1   6.5   5.1   5.2   3.1   2.8   2.3   0.0   0.0   0.1   0.7   1.2   0.6   0.7  2.22  1.18  0.74  0.00  0.00   37.43   41.46    1.15    0.00    0.98
 1991 261    70     2     2    10.9   76.7   16608   57.4   19.3   0.5   2.3   4.9   4.4   4.8   3.6   3.2   2.7   0.0   0.0   0.1   0.8   1.3   0.7   0.7  2.22  1.18  0.73  0.00  0.00   38.01   41.62    1.15    0.00    0.99
 1991 262    71     2     2    12.1   75.5   16608   55.9   19.6   0.6   2.3   4.7   4.3   4.6   3.6   3.1   2.7   0.0   0.0   0.1   0.8   1.4   0.7   0.8  2.23  1.18  0.73  0.00  0.00   38.53   41.78    1.18    0.00    1.02
 1991 263    72     2     2    12.8   74.8   16607   55.1   19.6   0.7   2.3   4.6   4.2   4.5   3.5   3.1   2.6   0.0   0.0   0.1   0.7   1.4   0.7   0.8  2.24  1.18  0.73  0.00  0.00   39.07   42.10    1.24    0.00    1.04
 1991 264    73     2     2    13.2   74.4   16606   54.7   19.7   0.8   2.4   4.5   4.1   4.5   3.5   3.1   2.6   0.0   0.0   0.1   0.7   1.5   0.7   0.8  2.24  1.17  0.72  0.00  0.00   39.65   42.46    1.28    0.00    1.06
 1991 265    74     2     2    13.4   74.2   16606   54.6   19.6   1.0   2.5   4.5   4.1   4.4   3.5   3.1   2.6   0.0   0.0   0.1   0.6   1.4   0.8   0.8  2.24  1.17  0.72  0.00  0.00   40.24   42.99    1.31    0.00    1.06
 1991 266    75     2     2    13.5   73.9   16605   54.4   19.5   1.1   2.5   4.5   4.1   4.4   3.4   3.0   2.6   0.0   0.0   0.1   0.6   1.3   0.8   0.8  2.24  1.16  0.71  0.00  0.00   40.83   43.53    1.33    0.00    1.06
 1991 267    76     2     2    13.5   73.9   16605   54.5   19.4   1.3   2.6   4.6   4.0   4.4   3.4   3.0   2.6   0.0   0.0   0.1   0.6   1.3   0.8   0.8  2.24  1.16  0.71  0.00  0.00   41.41   44.03    1.33    0.00    1.06
 1991 268    77     2     2    13.5   73.8   16604   54.6   19.2   1.4   2.6   4.6   4.0   4.3   3.4   3.0   2.6   0.0   0.0   0.1   0.5   1.2   0.8   0.8  2.24  1.15  0.70  0.00  0.00   41.99   44.60    1.34    0.00    1.07
 1991 269    78     2     2    13.5   73.5   16603   54.5   19.0   1.5   2.7   4.5   4.0   4.3   3.4   3.0   2.6   0.0   0.0   0.1   0.5   1.2   0.7   0.8  2.23  1.15  0.69  0.00  0.00   42.57   45.15    1.34    0.00    1.07
 1991 270    79     2     2    13.5   73.1   16603   54.3   18.8   1.7   2.7   4.5   4.0   4.3   3.4   3.0   2.6   0.0   0.0   0.1   0.5   1.1   0.7   0.8  2.22  1.14  0.69  0.00  0.00   43.14   45.74    1.35    0.00    1.07
 1991 271    80     2     2    13.5   72.5   16602   54.1   18.4   1.8   2.7   4.4   4.0   4.3   3.3   3.0   2.6   0.0   0.0   0.1   0.5   1.1   0.7   0.8  2.18  1.13  0.68  0.00  0.00   43.73   46.41    1.35    0.00    1.07
 1991 272    81     2     2    13.5   72.2   16602   54.0   18.1   1.9   2.7   4.4   4.0   4.3   3.3   3.0   2.6   0.0   0.0   0.1   0.5   1.1   0.7   0.8  2.16  1.12  0.67  0.00  0.00   44.33   47.07    1.35    0.00    1.08
 1991 273    82     2     2    13.5   71.7   16601   53.9   17.8   2.0   2.8   4.3   4.0   4.2   3.3   3.0   2.6   0.0   0.0   0.1   0.5   1.0   0.7   0.7  2.13  1.11  0.67  0.00  0.00   44.92   47.71    1.35    0.00    1.08
 1991 274    83     2     2    13.5   71.1   16601   53.7   17.4   2.1   2.8   4.3   4.0   4.2   3.3   3.0   2.6   0.0   0.0   0.1   0.5   1.0   0.6   0.7  2.09  1.07  0.66  0.00  0.00   45.51   48.40    1.35    0.00    1.08
 1991 275    84     2     2    13.5   70.6   16600   53.5   17.1   2.2   2.8   4.2   3.9   4.2   3.3   3.0   2.6   0.0   0.0   0.1   0.5   1.0   0.6   0.7  2.06  1.04  0.65  0.00  0.00   46.07   49.04    1.35    0.00    1.09
 1991 276    85     2     2    13.5   70.0   16599   53.3   16.8   2.3   2.8   4.1   3.9   4.2   3.3   3.0   2.6   0.0   0.0   0.1   0.5   0.9   0.6   0.7  2.03  1.01  0.65  0.00  0.00   46.58   49.63    1.35    0.00    1.09
 1991 277    86     2     2    13.5   69.3   16599   52.9   16.4   2.4   2.8   4.1   3.9   4.1   3.2   3.0   2.6   0.0   0.0   0.1   0.5   0.9   0.6   0.6  1.99  0.98  0.64  0.00  0.00   47.11   50.22    1.35    0.00    1.09
 1991 278    87     2     2    13.5   68.5   16598   52.4   16.1   2.5   2.8   4.0   3.8   4.1   3.2   3.0   2.6   0.0   0.0   0.1   0.5   0.9   0.6   0.6  1.96  0.95  0.63  0.00  0.00   47.64   50.81    1.35    0.00    1.09
 1991 279    88     2     2    13.5   68.5   16598   52.6   15.9   1.4   2.9   4.3   3.9   4.1   3.2   3.0   2.6   0.0   0.0   0.1   0.5   0.9   0.6   0.6  1.94  0.92  0.62  0.00  0.00   48.15   51.36    1.35    0.00    1.10
 1991 280    89     2     2    13.5   68.3   16597   52.4   15.9   0.8   2.4   3.9   4.0   4.4   3.3   3.0   2.6   0.0   0.0   0.1   0.5   0.9   0.6   0.6  1.92  0.90  0.62  0.00  0.00   48.64   51.72    1.35    0.00    1.10
 1991 281    90     2     2    14.1   67.5   16597   51.5   16.0   0.9   2.3   3.8   3.8   4.2   3.3   3.0   2.6   0.0   0.0   0.1   0.6   1.0   0.6   0.6  1.91  0.89  0.61  0.00  0.00   49.10   51.87    1.35    0.00    1.10
 1991 282    91     2     2    14.4   66.4   16596   50.5   15.9   0.9   2.2   3.6   3.7   4.1   3.2   3.0   2.6   0.0   0.0   0.1   0.6   1.0   0.6   0.6  1.89  0.88  0.59  0.00  0.00   49.55   52.06    1.35    0.00    1.10
 1991 283    92     2     2    14.5   65.1   16596   49.4   15.7   1.0   2.1   3.4   3.6   4.0   3.2   3.0   2.6   0.0   0.0   0.1   0.6   1.0   0.6   0.6  1.86  0.87  0.57  0.00  0.00   50.00   52.34    1.35    0.00    1.11
 1991 284    93     2     2    14.6   63.5   16596   48.2   15.3   1.1   2.0   3.2   3.5   3.9   3.1   2.9   2.6   0.0   0.0   0.1   0.5   0.9   0.6   0.6  1.83  0.86  0.55  0.00  0.00   50.50   52.72    1.35    0.00    1.11
 1991 285    94     2     2    14.6   61.6   16595   46.8   14.8   1.2   1.9   2.9   3.4   3.8   3.0   2.9   2.6   0.0   0.0   0.1   0.5   0.8   0.6   0.6  1.77  0.84  0.53  0.00  0.00   51.05   53.19    1.35    0.00    1.11
 1991 286    95     2     2    14.6   59.3   16594   45.2   14.1   1.3   1.8   2.6   3.3   3.6   2.9   2.8   2.6   0.0   0.0   0.1   0.5   0.7   0.6   0.6  1.70  0.80  0.51  0.00  0.00   51.67   53.80    1.35    0.00    1.11
 1991 287    96     2     2    14.6   57.1   16594   43.7   13.5   1.4   1.8   2.4   3.1   3.5   2.8   2.8   2.6   0.0   0.0   0.1   0.5   0.7   0.5   0.6  1.63  0.76  0.49  0.00  0.00   52.38   54.52    1.35    0.00    1.12
 1991 288    97     2     2    14.6   55.8   16593   42.7   13.0   0.5   1.5   2.2   2.9   3.5   2.9   2.8   2.6   0.0   0.0   0.1   0.5   0.7   0.5   0.6  1.58  0.73  0.48  0.00  0.00   53.15   55.27    1.35    0.00    1.12
 1991 289    98     2     2    19.2   50.3   16592   37.1   13.2   0.2   0.8   1.5   2.1   2.8   2.8   2.8   2.7   0.0   0.0   0.1   0.6   0.8   0.5   0.6  1.54  0.71  0.48  0.00  0.00   53.87   55.47    1.35    0.00    1.12
 1991 290    99     2     2    20.6   48.6   16592   35.1   13.5   0.2   0.7   1.4   1.9   2.5   2.6   2.6   2.6   0.0   0.0   0.2   0.6   0.8   0.6   0.6  1.53  0.70  0.48  0.00  0.00   54.53   55.56    1.35    0.00    1.13
 1991 291   100     2     2    21.4   46.5   16591   33.3   13.2   0.5   0.6   1.3   1.8   2.3   2.5   2.5   2.5   0.0   0.0   0.1   0.6   0.9   0.6   0.6  1.48  0.69  0.48  0.00  0.00   55.20   55.82    1.35    0.00    1.13
 1991 292   101     2     2    21.8   43.5   16590   31.0   12.5   0.6   0.5   1.1   1.7   2.1   2.3   2.4   2.4   0.0   0.0   0.1   0.5   0.8   0.6   0.6  1.40  0.66  0.48  0.00  0.00   55.83   56.13    1.35    0.00    1.13
 1991 293   102     2     2    22.0   39.8   16590   28.4   11.5   0.6   0.5   0.8   1.6   1.9   2.1   2.3   2.4   0.0   0.0   0.1   0.5   0.6   0.6   0.5  1.29  0.63  0.48  0.00  0.00   56.41   56.50    1.37    0.00    1.14
 1991 294   103     2     2    22.0   36.3   16589   25.6   10.7   0.6   0.6   0.6   1.4   1.6   1.9   2.1   2.3   0.0   0.0   0.1   0.5   0.6   0.5   0.5  1.16  0.58  0.47  0.00  0.00   57.01   56.84    1.37    0.00    1.14
 1991 295   104     2     2    22.0   32.7   16588   22.8    9.9   0.7   0.5   0.4   1.2   1.4   1.6   1.9   2.2   0.0   0.0   0.1   0.5   0.6   0.5   0.5  1.01  0.53  0.47  0.00  0.00   57.65   57.34    1.37    0.00    1.14
 1991 296   105     2     2    22.0   29.3   16588   20.1    9.2   0.7   0.6   0.5   0.9   1.1   1.4   1.7   2.0   0.0   0.0   0.1   0.5   0.6   0.5   0.5  0.84  0.49  0.47  0.00  0.00   58.37   57.92    1.37    0.00    1.14
 1991 297   106     2     2    22.0   28.0   16587   19.1    8.9   0.7   0.7   0.5   0.9   1.0   1.3   1.6   2.0   0.0   0.0   0.1   0.5   0.6   0.5   0.5  0.77  0.49  0.47  0.00  0.00   59.09   58.47    1.37    0.00    1.15
 1991 298   107     2     2    22.0   27.0   16586   18.3    8.7   0.8   0.7   0.5   0.8   1.0   1.2   1.5   1.9   0.0   0.0   0.1   0.5   0.6   0.5   0.5  0.73  0.49  0.47  0.00  0.00   59.77   58.99    1.37    0.00    1.15
 1991 299   108     2     2    22.0   25.7   16586   17.2    8.4   0.8   0.7   0.5   0.8   0.9   1.1   1.4   1.9   0.0   0.0   0.1   0.5   0.6   0.5   0.5  0.67  0.48  0.47  0.00  0.00   60.42   59.49    1.37    0.00    1.15
 1991 300   109     2     2    22.0   22.3   16585   14.4    7.9   0.7   0.5   0.3   0.6   0.7   0.9   1.2   1.7   0.0   0.0   0.1   0.5   0.6   0.5   0.5  0.54  0.48  0.45  0.00  0.00   61.04   59.99    1.37    0.00    1.15
 1991 301   110     2     2    22.0   20.3   16585   12.6    7.7   0.7   0.6   0.4   0.5   0.5   0.7   1.0   1.6   0.0   0.0   0.1   0.5   0.6   0.5   0.5  0.51  0.47  0.44  0.00  0.00   61.63   60.45    1.37    0.00    1.16
 1991 302   111     2     2    22.0   18.8   16584   11.1    7.7   0.7   0.5   0.4   0.5   0.4   0.5   0.9   1.5   0.0   0.0   0.1   0.5   0.6   0.5   0.5  0.51  0.47  0.43  0.00  0.00   62.21   60.90    1.37    0.00    1.16
 1991 303   112     2     2    22.0   18.0   16583   10.4    7.7   0.5   0.7   0.5   0.5   0.4   0.4   0.8   1.4   0.0   0.0   0.1   0.5   0.6   0.5   0.5  0.51  0.47  0.42  0.00  0.00   62.80   61.36    1.37    0.00    1.16
 1991 304   113     2     2    22.0   17.2   16583    9.4    7.8   0.5   0.3   0.5   0.4   0.5   0.4   0.6   1.3   0.0   0.0   0.2   0.6   0.6   0.5   0.5  0.51  0.46  0.41  0.00  0.00   63.41   61.68    1.37    0.00    1.17
 1991 305   114     2     2    22.0   16.5   16582    8.8    7.7   0.5   0.4   0.3   0.5   0.5   0.4   0.5   1.2   0.0   0.0   0.3   0.5   0.6   0.5   0.5  0.51  0.46  0.41  0.00  0.00   63.98   62.09    1.37    0.00    1.17
 1991 306   115     2     2    22.0   16.5   16582    8.9    7.6   0.7   0.5   0.3   0.5   0.5   0.4   0.5   1.1   0.0   0.0   0.1   0.5   0.6   0.5   0.5  0.51  0.46  0.40  0.00  0.00   64.55   62.59    1.37    0.00    1.17
 1991 307   116     2     2    22.0   16.3   16581    8.7    7.6   0.6   0.6   0.4   0.5   0.4   0.4   0.5   1.0   0.0   0.0   0.1   0.5   0.6   0.5   0.5  0.51  0.46  0.39  0.00  0.00   65.14   63.04    1.37    0.00    1.18
 1991 308   117     2     2    22.0   15.8   16581    8.2    7.6   0.5   0.4   0.4   0.4   0.4   0.5   0.5   0.9   0.0   0.0   0.1   0.5   0.6   0.5   0.5  0.51  0.45  0.38  0.00  0.00   65.75   63.51    1.37    0.00    1.18
 1991 309   118     2     2    22.0   16.1   16580    8.5    7.5   0.6   0.5   0.5   0.5   0.5   0.5   0.5   0.8   0.0   0.0   0.1   0.5   0.6   0.5   0.5  0.51  0.45  0.37  0.00  0.00   66.38   64.00    1.37    0.00    1.19
 1991 310   119     2     2    22.0   16.3   16579    8.8    7.5   0.6   0.6   0.5   0.5   0.5   0.5   0.5   0.8   0.0   0.0   0.1   0.5   0.6   0.5   0.5  0.51  0.45  0.36  0.00  0.00   67.02   64.51    1.37    0.00    1.19
 1991 311   120     2     2    22.0   15.4   16579    7.9    7.5   0.2   0.5   0.3   0.5   0.5   0.5   0.4   0.7   0.0   0.0   0.2   0.5   0.6   0.5   0.5  0.51  0.44  0.36  0.00  0.00   67.68   64.97    1.37    0.00    1.19
 1991 312   121     2     2    22.0   15.3   16578    7.8    7.4   0.5   0.6   0.4   0.5   0.4   0.5   0.5   0.7   0.0   0.0   0.1   0.5   0.6   0.5   0.5  0.51  0.44  0.35  0.00  0.00   68.35   65.54    1.37    0.00    1.19
 1991 313   122     2     2    22.0   15.3   16578    7.9    7.4   0.6   0.4   0.4   0.5   0.5   0.5   0.5   0.6   0.0   0.0   0.1   0.5   0.6   0.5   0.5  0.51  0.44  0.34  0.00  0.00   69.00   66.05    1.37    0.00    1.20
 1991 314   123     2     2    22.0   15.6   16577    8.2    7.4   0.7   0.6   0.5   0.5   0.5   0.5   0.5   0.6   0.0   0.0   0.1   0.5   0.5   0.5   0.5  0.51  0.44  0.33  0.00  0.00   69.61   66.55    1.37    0.00    1.20
 1991 315   124     2     2    22.0   15.5   16576    8.2    7.3   0.7   0.5   0.5   0.5   0.5   0.5   0.5   0.5   0.0   0.0   0.1   0.5   0.5   0.5   0.5  0.51  0.43  0.33  0.00  0.00   70.21   67.03    1.37    0.00    1.20
 1991 316   125     2     2    22.0   15.2   16576    7.9    7.3   0.4   0.7   0.5   0.5   0.4   0.5   0.5   0.5   0.0   0.0   0.1   0.4   0.5   0.5   0.5  0.51  0.43  0.32  0.00  0.00   70.77   67.48    1.37    0.00    1.21
 1991 317   126     2     2    22.0   15.2   16575    7.8    7.4   0.5   0.4   0.5   0.5   0.5   0.5   0.4   0.5   0.0   0.0   0.1   0.5   0.6   0.5   0.5  0.51  0.43  0.31  0.00  0.00   71.39   67.83    1.37    0.00    1.21
 1991 318   127     2     2    22.0   14.9   16575    7.6    7.3   0.6   0.5   0.3   0.5   0.5   0.5   0.5   0.5   0.0   0.0   0.1   0.5   0.6   0.5   0.5  0.51  0.43  0.31  0.00  0.00   72.01   68.30    1.37    0.00    1.21
 1991 319   128     2     2    22.0   14.5   16574    7.1    7.3   0.4   0.4   0.4   0.5   0.5   0.4   0.5   0.5   0.0   0.0   0.1   0.5   0.6   0.5   0.5  0.51  0.43  0.30  0.00  0.00   72.60   68.75    1.37    0.00    1.21
 1991 320   129     2     2    22.0   14.5   16574    7.3    7.3   0.5   0.4   0.4   0.5   0.4   0.4   0.5   0.5   0.0   0.0   0.1   0.5   0.6   0.5   0.5  0.51  0.43  0.30  0.00  0.00   73.17   69.18    1.37    0.00    1.22
 1991 321   130     2     2    22.0   14.8   16573    7.5    7.3   0.6   0.6   0.4   0.5   0.5   0.4   0.5   0.5   0.0   0.0   0.1   0.5   0.6   0.5   0.5  0.51  0.42  0.29  0.00  0.00   73.76   69.62    1.37    0.00    1.22
 1991 322   131     2     2    22.0   14.8   16572    7.6    7.2   0.6   0.4   0.5   0.5   0.5   0.4   0.5   0.5   0.0   0.0   0.1   0.5   0.6   0.5   0.5  0.51  0.42  0.29  0.00  0.00   74.35   70.08    1.37    0.00    1.22
 1991 323   132     2     2    22.0   15.2   16572    8.0    7.2   0.6   0.5   0.5   0.5   0.5   0.4   0.5   0.5   0.0   0.0   0.1   0.5   0.6   0.5   0.5  0.51  0.42  0.28  0.00  0.00   74.95   70.56    1.37    0.00    1.22
 1991 324   133     2     2    22.0   14.6   16571    7.4    7.2   0.6   0.6   0.3   0.5   0.4   0.4   0.5   0.5   0.0   0.0   0.1   0.5   0.5   0.5   0.5  0.51  0.42  0.28  0.00  0.00   75.54   71.04    1.37    0.00    1.23
 1991 325   134     2     2    22.0   14.7   16571    7.6    7.1   0.7   0.5   0.4   0.5   0.5   0.5   0.5   0.5   0.0   0.0   0.1   0.5   0.5   0.5   0.5  0.51  0.42  0.27  0.00  0.00   76.13   71.53    1.37    0.00    1.23
 1991 326   135     2     2    22.0   15.0   16570    7.9    7.1   0.4   0.6   0.5   0.5   0.5   0.5   0.5   0.5   0.0   0.0   0.1   0.4   0.5   0.5   0.5  0.51  0.42  0.27  0.00  0.00   76.72   72.04    1.37    0.00    1.23
 1991 327   136     2     2    22.0   14.5   16569    7.2    7.2   0.5   0.3   0.3   0.5   0.5   0.5   0.5   0.5   0.0   0.0   0.1   0.6   0.6   0.5   0.5  0.52  0.41  0.26  0.00  0.00   77.46   72.45    1.37    0.00    1.23
 1991 328   137     2     2    22.0   15.0   16569    7.9    7.1   0.7   0.5   0.4   0.5   0.5   0.5   0.5   0.5   0.0   0.0   0.1   0.5   0.6   0.5   0.5  0.52  0.41  0.26  0.00  0.00   78.25   73.13    1.37    0.00    1.24
 1991 329   138     2     2    22.0   14.9   16568    7.8    7.1   0.0   0.2   0.5   0.4   0.6   0.6   0.6   0.5   0.0   0.0   0.1   0.5   0.6   0.5   0.5  0.52  0.41  0.25  0.00  0.00   79.02   73.73    1.37    0.00    1.24
 1991 330   139     2     2    22.3   14.6   16567    7.0    7.6   0.0   0.2   0.4   0.4   0.5   0.5   0.5   0.5   0.0   0.0   0.2   0.6   0.6   0.5   0.5  0.52  0.42  0.25  0.00  0.00   79.77   73.83    1.37    0.00    1.24
 1991 331   140     2     2    22.4   14.5   16567    7.0    7.5   0.3   0.2   0.4   0.4   0.5   0.5   0.5   0.5   0.0   0.0   0.1   0.6   0.6   0.5   0.5  0.52  0.43  0.25  0.00  0.00   80.47   74.08    1.37    0.00    1.24
 1991 332   141     2     2    22.6   14.5   16566    6.9    7.5   0.4   0.2   0.4   0.4   0.5   0.5   0.5   0.5   0.0   0.0   0.1   0.6   0.6   0.5   0.5  0.52  0.44  0.25  0.00  0.00   81.14   74.21    1.37    0.00    1.25
 1991 333   142     2     2    22.6   14.6   16565    7.2    7.4   0.5   0.4   0.4   0.4   0.5   0.5   0.5   0.5   0.0   0.0   0.1   0.5   0.6   0.5   0.5  0.52  0.45  0.26  0.00  0.00   81.79   74.50    1.37    0.00    1.25
 1991 334   143     2     2    22.7   14.8   16565    7.3    7.5   0.6   0.4   0.4   0.4   0.5   0.5   0.5   0.5   0.0   0.0   0.1   0.6   0.6   0.5   0.5  0.52  0.45  0.26  0.00  0.00   82.46   74.67    1.38    0.00    1.25
 1991 335   144     2     2    22.7   14.9   16564    7.5    7.4   0.5   0.5   0.5   0.4   0.5   0.5   0.5   0.5   0.0   0.0   0.1   0.5   0.6   0.5   0.5  0.52  0.46  0.26  0.00  0.00   83.19   75.11    1.38    0.00    1.26
 1991 336   145     2     2    22.7   15.0   16563    7.7    7.3   0.7   0.4   0.6   0.4   0.5   0.5   0.5   0.5   0.0   0.0   0.1   0.5   0.6   0.5   0.5  0.52  0.47  0.26  0.00  0.00   83.95   75.62    1.38    0.00    1.26
 1991 337   146     2     2    22.7   15.0   16562    7.6    7.3   0.6   0.6   0.3   0.5   0.5   0.5   0.5   0.5   0.0   0.0   0.1   0.5   0.6   0.5   0.5  0.52  0.47  0.26  0.00  0.00   84.75   76.21    1.38    0.00    1.26
 1991 338   147     2     2    22.7   14.7   16562    7.4    7.3   0.6   0.4   0.4   0.5   0.3   0.5   0.5   0.5   0.0   0.0   0.1   0.5   0.6   0.5   0.5  0.52  0.47  0.27  0.00  0.00   85.54   76.80    1.38    0.00    1.27
 1991 339   148     2     2    22.7   14.8   16561    7.5    7.3   0.5   0.6   0.5   0.4   0.4   0.5   0.5   0.5   0.0   0.0   0.1   0.5   0.6   0.5   0.5  0.52  0.47  0.27  0.00  0.00   86.35   77.42    1.38    0.00    1.27
 1991 340   149     2     2    22.7   15.0   16560    7.5    7.5   0.5   0.3   0.6   0.4   0.4   0.5   0.5   0.5   0.0   0.0   0.2   0.6   0.6   0.5   0.5  0.52  0.47  0.27  0.00  0.00   87.17   77.83    1.38    0.00    1.27
 1991 341   150     2     2    22.7   14.8   16559    7.5    7.2   0.9   0.5   0.3   0.5   0.4   0.5   0.4   0.5   0.0   0.0   0.0   0.5   0.6   0.5   0.5  0.52  0.46  0.26  0.00  0.00   88.01   78.65    1.38    0.00    1.27
 1991 342   151     2     2    22.7   15.2   16559    7.9    7.3   0.6   0.6   0.4   0.5   0.5   0.5   0.4   0.5   0.0   0.0   0.1   0.5   0.6   0.5   0.5  0.52  0.46  0.26  0.00  0.00   88.84   79.22    1.38    0.00    1.28
 1991 343   152     2     2    22.7   14.6   16558    7.4    7.2   0.5   0.5   0.5   0.6   0.5   0.4   0.4   0.5   0.0   0.0   0.1   0.5   0.6   0.5   0.5  0.52  0.46  0.26  0.00  0.00   89.67   79.91    1.38    0.00    1.28
 1991 344   153     2     2    22.7   14.7   16557    7.2    7.4   0.3   0.5   0.6   0.5   0.4   0.4   0.5   0.5   0.0   0.0   0.2   0.6   0.6   0.5   0.5  0.52  0.45  0.25  0.00  0.00   90.47   80.30    1.38    0.00    1.28
 1991 345   154     2     2    22.7   15.0   16556    7.4    7.5   0.6   0.5   0.5   0.5   0.5   0.4   0.5   0.5   0.0   0.0   0.1   0.6   0.6   0.5   0.5  0.52  0.45  0.25  0.00  0.00   91.26   80.69    1.38    0.00    1.28
 1991 346   155     2     2    22.7   15.0   16556    7.7    7.3   0.4   0.7   0.5   0.5   0.5   0.4   0.5   0.5   0.0   0.0   0.1   0.5   0.6   0.5   0.5  0.52  0.45  0.24  0.00  0.00   92.04   81.15    1.38    0.00    1.29
 1991 347   156     2     2    22.7   14.8   16555    7.5    7.3   0.5   0.4   0.5   0.5   0.4   0.4   0.5   0.5   0.0   0.0   0.1   0.5   0.6   0.5   0.5  0.52  0.45  0.24  0.00  0.00   92.80   81.59    1.38    0.00    1.29
 1991 348   157     2     2    22.7   14.7   16554    7.4    7.4   0.5   0.5   0.3   0.5   0.5   0.4   0.5   0.5   0.0   0.0   0.1   0.6   0.6   0.5   0.5  0.52  0.44  0.24  0.00  0.00   93.55   81.98    1.38    0.00    1.29
 1991 349   158     2     2    22.7   14.7   16553    7.2    7.6   0.5   0.5   0.3   0.4   0.5   0.4   0.4   0.5   0.0   0.0   0.2   0.6   0.6   0.5   0.5  0.52  0.44  0.23  0.00  0.00   94.28   82.15    1.39    0.00    1.30
[...]
 1993 298   107     2     2     2.0   72.3   16588   60.1   12.2   1.0   3.1   6.1   7.3   6.5   2.7   2.0   1.7   0.0   0.0   0.1   0.8   1.0   0.7   0.6  1.35  0.47  0.19  0.00  0.00   58.06   63.92    0.35    0.00    1.23
 1993 299   108     2     2     2.0   70.8   16587   58.6   12.2   1.1   2.9   5.8   7.1   6.4   2.7   1.9   1.7   0.0   0.0   0.1   0.8   1.1   0.7   0.6  1.34  0.48  0.20  0.00  0.00   58.61   64.09    0.37    0.00    1.23
 1993 300   109     2     2     2.0   68.1   16587   56.3   11.8   1.1   2.7   5.3   6.9   6.2   2.6   1.9   1.7   0.0   0.0   0.1   0.6   0.9   0.7   0.6  1.31  0.48  0.20  0.00  0.00   59.12   64.49    0.37    0.00    1.23
 1993 301   110     2     2     2.0   65.0   16586   53.8   11.1   1.2   2.5   4.7   6.6   6.0   2.5   1.9   1.7   0.0   0.0   0.1   0.5   0.8   0.6   0.6  1.27  0.48  0.20  0.00  0.00   59.65   65.03    0.37    0.00    1.23
 1993 302   111     2     2     2.0   60.5   16586   50.1   10.4   1.3   2.3   4.0   6.2   5.6   2.4   1.8   1.6   0.0   0.0   0.1   0.5   0.7   0.6   0.5  1.20  0.48  0.20  0.00  0.00   60.23   65.56    0.37    0.00    1.23
 1993 303   112     2     2     2.0   57.3   16585   47.5    9.9   1.1   2.2   3.5   5.9   5.4   2.3   1.8   1.6   0.0   0.0   0.1   0.5   0.6   0.5   0.5  1.14  0.47  0.20  0.00  0.00   60.87   66.10    0.37    0.00    1.24
 1993 304   113     2     2     2.0   55.6   16585   45.8    9.8   1.0   2.1   3.2   5.7   5.2   2.2   1.7   1.6   0.0   0.0   0.2   0.6   0.6   0.5   0.5  1.11  0.47  0.20  0.00  0.00   61.54   66.48    0.37    0.00    1.24
 1993 305   114     2     2     2.0   54.1   16584   44.4    9.7   0.6   1.3   2.7   4.9   5.4   2.6   1.8   1.6   0.0   0.0   0.1   0.6   0.6   0.5   0.5  1.09  0.46  0.20  0.00  0.00   62.22   66.99    0.37    0.00    1.24
 1993 306   115     2     2     2.5   50.4   16583   40.9    9.6   0.4   1.0   2.3   4.5   5.0   2.5   1.7   1.5   0.0   0.0   0.1   0.6   0.6   0.5   0.5  1.04  0.47  0.20  0.00  0.00   62.88   67.14    0.37    0.00    1.25
 1993 307   116     2     2     2.7   45.9   16583   36.8    9.2   0.5   0.6   1.6   4.1   4.6   2.3   1.6   1.5   0.0   0.0   0.1   0.5   0.6   0.5   0.5  0.97  0.48  0.20  0.00  0.00   63.53   67.45    0.37    0.00    1.25
 1993 308   117     2     2     2.8   40.9   16582   32.1    8.7   0.6   0.5   0.9   3.5   4.0   2.0   1.5   1.4   0.0   0.0   0.1   0.5   0.6   0.5   0.5  0.88  0.48  0.20  0.00  0.00   64.19   67.81    0.37    0.00    1.25
 1993 309   118     2     2     2.8   35.8   16581   27.6    8.2   0.7   0.6   0.5   2.9   3.4   1.8   1.4   1.3   0.0   0.0   0.1   0.5   0.6   0.5   0.5  0.76  0.48  0.21  0.00  0.00   64.88   68.30    0.37    0.00    1.26
 1993 310   119     2     2     2.8   33.7   16581   25.8    8.0   0.8   0.6   0.5   2.6   3.1   1.6   1.3   1.3   0.0   0.0   0.1   0.5   0.6   0.5   0.5  0.71  0.48  0.20  0.00  0.00   65.58   68.84    0.37    0.00    1.26
 1993 311   120     2     2     2.8   31.8   16580   24.1    7.8   0.8   0.6   0.5   2.4   2.8   1.5   1.2   1.3   0.0   0.0   0.1   0.5   0.6   0.5   0.5  0.66  0.47  0.20  0.00  0.00   66.27   69.36    0.37    0.00    1.26
 1993 312   121     2     2     2.8   27.5   16579   20.2    7.4   0.8   0.5   0.3   1.9   2.3   1.3   1.1   1.2   0.0   0.0   0.1   0.5   0.6   0.5   0.5  0.56  0.47  0.20  0.00  0.00   66.94   69.87    0.37    0.00    1.26
 1993 313   122     2     2     2.8   23.0   16579   15.9    7.1   0.8   0.4   0.4   1.3   1.6   1.0   0.9   1.1   0.0   0.0   0.1   0.5   0.6   0.5   0.5  0.51  0.47  0.20  0.00  0.00   67.59   70.37    0.37    0.00    1.27
 1993 314   123     2     2     2.8   20.0   16578   12.9    7.1   0.8   0.5   0.4   0.9   1.2   0.7   0.8   1.0   0.0   0.0   0.1   0.5   0.6   0.5   0.5  0.51  0.46  0.19  0.00  0.00   68.24   70.86    0.37    0.00    1.27
 1993 315   124     2     2     2.8   17.6   16577   10.5    7.1   0.8   0.5   0.5   0.7   0.8   0.5   0.6   0.9   0.0   0.0   0.1   0.5   0.6   0.5   0.5  0.52  0.46  0.19  0.00  0.00   68.92   71.40    0.37    0.00    1.27
 1993 316   125     2     2     2.8   16.0   16577    9.0    7.0   0.9   0.6   0.6   0.5   0.6   0.4   0.5   0.8   0.0   0.0   0.1   0.4   0.6   0.5   0.5  0.52  0.46  0.19  0.00  0.00   69.64   71.98    0.37    0.00    1.27
 1993 317   126     2     2     2.8   14.9   16576    7.9    7.0   0.8   0.5   0.3   0.5   0.4   0.4   0.4   0.7   0.0   0.0   0.1   0.4   0.6   0.5   0.5  0.52  0.45  0.19  0.00  0.00   70.38   72.57    0.37    0.00    1.28
 1993 318   127     2     2     2.8   14.7   16575    7.7    7.0   0.3   0.4   0.5   0.5   0.5   0.4   0.4   0.6   0.0   0.0   0.1   0.4   0.6   0.5   0.5  0.52  0.45  0.19  0.00  0.00   71.09   73.12    0.37    0.00    1.28
 1993 319   128     2     2     2.8   14.5   16575    7.1    7.4   0.2   0.4   0.4   0.4   0.3   0.5   0.5   0.6   0.0   0.0   0.2   0.5   0.6   0.5   0.5  0.52  0.45  0.18  0.00  0.00   71.80   73.27    0.37    0.00    1.28
 1993 320   129     2     2     3.0   14.3   16574    6.8    7.5   0.1   0.3   0.4   0.4   0.4   0.5   0.5   0.5   0.0   0.0   0.3   0.6   0.6   0.5   0.5  0.52  0.46  0.19  0.00  0.00   72.46   73.37    0.37    0.00    1.28
 1993 321   130     2     2     3.2   14.3   16573    6.8    7.5   0.2   0.3   0.4   0.4   0.4   0.5   0.5   0.5   0.0   0.0   0.4   0.6   0.6   0.5   0.5  0.52  0.46  0.19  0.00  0.00   73.08   73.47    0.37    0.00    1.29
 1993 322   131     2     2     3.4   14.2   16573    6.6    7.6   0.2   0.3   0.4   0.4   0.4   0.4   0.5   0.5   0.0   0.0   0.4   0.6   0.6   0.5   0.5  0.52  0.47  0.19  0.00  0.00   73.68   73.57    0.37    0.00    1.29
 1993 323   132     2     2     3.5   14.2   16572    6.8    7.5   0.6   0.3   0.4   0.4   0.4   0.4   0.5   0.5   0.0   0.0   0.2   0.6   0.6   0.5   0.5  0.52  0.48  0.19  0.00  0.00   74.28   73.84    0.38    0.00    1.30
 1993 324   133     2     2     3.6   14.2   16572    6.9    7.3   0.4   0.5   0.4   0.4   0.4   0.4   0.5   0.5   0.0   0.0   0.1   0.5   0.6   0.5   0.5  0.52  0.49  0.20  0.00  0.00   74.91   74.21    0.39    0.00    1.31
 1993 325   134     2     2     3.6   14.6   16571    7.2    7.3   0.5   0.6   0.5   0.4   0.4   0.4   0.5   0.5   0.0   0.0   0.1   0.5   0.6   0.5   0.5  0.52  0.49  0.20  0.00  0.00   75.58   74.56    0.39    0.00    1.31
 1993 326   135     2     2     3.6   14.5   16570    7.3    7.2   0.6   0.4   0.5   0.4   0.4   0.4   0.5   0.5   0.0   0.0   0.1   0.5   0.6   0.5   0.5  0.52  0.50  0.20  0.00  0.00   76.29   75.07    0.39    0.00    1.31
 1993 327   136     2     2     3.6   14.5   16570    7.3    7.3   0.6   0.5   0.3   0.5   0.4   0.4   0.5   0.5   0.0   0.0   0.1   0.5   0.6   0.5   0.5  0.52  0.50  0.20  0.00  0.00   77.03   75.62    0.39    0.00    1.32
 1993 328   137     2     2     3.6   14.7   16569    7.5    7.2   0.6   0.4   0.4   0.5   0.5   0.4   0.5   0.5   0.0   0.0   0.1   0.5   0.6   0.5   0.5  0.52  0.49  0.20  0.00  0.00   77.79   76.21    0.39    0.00    1.32
 1993 329   138     2     2     3.6   14.8   16568    7.6    7.2   0.7   0.6   0.5   0.4   0.5   0.5   0.5   0.5   0.0   0.0   0.1   0.5   0.6   0.5   0.5  0.52  0.49  0.21  0.00  0.00   78.56   76.80    0.39    0.00    1.32
 1993 330   139     2     2     3.6   14.7   16568    7.5    7.2   0.5   0.5   0.5   0.4   0.5   0.5   0.4   0.5   0.0   0.0   0.1   0.4   0.6   0.5   0.5  0.52  0.48  0.21  0.00  0.00   79.30   77.37    0.39    0.00    1.32
 1993 331   140     2     2     3.6   14.3   16567    7.0    7.3   0.3   0.6   0.3   0.4   0.4   0.5   0.4   0.5   0.0   0.0   0.2   0.5   0.6   0.5   0.5  0.52  0.48  0.21  0.00  0.00   80.04   77.85    0.39    0.00    1.33
 1993 332   141     2     2     3.6   14.3   16566    7.2    7.2   0.5   0.4   0.4   0.5   0.4   0.5   0.4   0.5   0.0   0.0   0.1   0.5   0.6   0.5   0.5  0.52  0.48  0.20  0.00  0.00   80.75   78.42    0.39    0.00    1.33
 1993 333   142     2     2     3.6   14.8   16566    7.6    7.2   0.6   0.5   0.4   0.5   0.4   0.5   0.5   0.5   0.0   0.0   0.1   0.5   0.6   0.5   0.5  0.51  0.47  0.20  0.00  0.00   81.42   78.91    0.39    0.00    1.33
 1993 334   143     2     2     3.6   14.8   16565    7.7    7.2   0.5   0.6   0.5   0.4   0.5   0.5   0.5   0.5   0.0   0.0   0.1   0.5   0.6   0.5   0.5  0.51  0.47  0.20  0.00  0.00   82.08   79.40    0.39    0.00    1.34
 1993 335   144     2     2     3.6   14.8   16564    7.6    7.2   0.5   0.4   0.6   0.4   0.5   0.5   0.5   0.5   0.0   0.0   0.1   0.5   0.6   0.5   0.5  0.51  0.47  0.20  0.00  0.00   82.71   79.86    0.39    0.00    1.34
 1993 336   145     2     2     3.6   14.7   16564    7.5    7.3   0.6   0.4   0.3   0.4   0.5   0.5   0.5   0.5   0.0   0.0   0.1   0.6   0.6   0.5   0.5  0.51  0.47  0.19  0.00  0.00   83.34   80.22    0.39    0.00    1.34
 1993 337   146     2     2     3.6   14.6   16563    7.5    7.1   0.4   0.6   0.4   0.5   0.4   0.5   0.5   0.5   0.0   0.0   0.1   0.5   0.6   0.5   0.5  0.51  0.46  0.19  0.00  0.00   84.02   80.76    0.39    0.00    1.35
 1993 338   147     2     2     3.6   14.4   16562    7.3    7.1   0.2   0.1   0.4   0.5   0.5   0.5   0.5   0.5   0.0   0.0   0.1   0.5   0.6   0.5   0.5  0.52  0.46  0.19  0.00  0.00   84.73   81.29    0.39    0.00    1.35
 1993 339   148     2     2     4.1   14.3   16562    6.8    7.6   0.1   0.2   0.4   0.4   0.4   0.5   0.5   0.5   0.0   0.0   0.2   0.6   0.6   0.5   0.5  0.52  0.47  0.19  0.00  0.00   85.41   81.36    0.39    0.00    1.35
 1993 340   149     2     2     4.4   14.3   16561    6.8    7.5   0.4   0.2   0.4   0.4   0.4   0.5   0.5   0.5   0.0   0.0   0.1   0.6   0.6   0.5   0.5  0.52  0.48  0.20  0.00  0.00   86.12   81.59    0.39    0.00    1.35
 1993 341   150     2     2     4.5   14.4   16560    7.0    7.4   0.5   0.3   0.4   0.4   0.4   0.5   0.5   0.5   0.0   0.0   0.1   0.5   0.6   0.5   0.5  0.52  0.49  0.20  0.00  0.00   86.85   81.92    0.39    0.00    1.36
 1993 342   151     2     2     4.5   14.5   16560    7.2    7.3   0.4   0.5   0.4   0.4   0.4   0.5   0.5   0.5   0.0   0.0   0.1   0.5   0.6   0.5   0.5  0.52  0.49  0.20  0.00  0.00   87.57   82.31    0.39    0.00    1.36
 1993 343   152     2     2     4.5   14.9   16559    7.6    7.4   0.6   0.6   0.5   0.4   0.5   0.5   0.5   0.5   0.0   0.0   0.1   0.5   0.6   0.5   0.5  0.52  0.50  0.21  0.00  0.00   88.29   82.70    0.39    0.00    1.36
 1993 344   153     2     2     4.5   14.9   16558    7.6    7.3   0.5   0.4   0.6   0.5   0.5   0.5   0.5   0.5   0.0   0.0   0.1   0.5   0.6   0.5   0.5  0.52  0.51  0.21  0.00  0.00   89.04   83.25    0.39    0.00    1.37
 1993 345   154     2     2     4.5   14.9   16558    7.6    7.3   0.5   0.5   0.3   0.5   0.5   0.5   0.5   0.5   0.0   0.0   0.1   0.5   0.6   0.5   0.5  0.52  0.50  0.21  0.00  0.00   89.82   83.84    0.39    0.00    1.37
 1993 346   155     2     2     4.5   14.7   16557    7.4    7.2   0.6   0.4   0.4   0.6   0.3   0.5   0.5   0.5   0.0   0.0   0.1   0.5   0.6   0.5   0.5  0.52  0.50  0.21  0.00  0.00   90.63   84.48    0.39    0.00    1.37
 1993 347   156     2     2     4.5   14.8   16556    7.6    7.2   0.2   0.5   0.5   0.4   0.4   0.5   0.5   0.5   0.0   0.0   0.1   0.4   0.6   0.5   0.5  0.52  0.49  0.21  0.00  0.00   91.45   85.13    0.39    0.00    1.37
 1993 348   157     2     2     4.6   14.6   16555    6.9    7.7   0.3   0.4   0.4   0.4   0.4   0.5   0.4   0.5   0.0   0.0   0.2   0.6   0.6   0.5   0.5  0.52  0.49  0.20  0.00  0.00   92.28   85.28    0.39    0.00    1.38
 1993 349   158     2     2     4.7   14.8   16554    7.2    7.6   0.6   0.4   0.4   0.4   0.4   0.5   0.4   0.5   0.0   0.0   0.0   0.6   0.6   0.5   0.5  0.52  0.49  0.20  0.00  0.00   93.12   85.66    0.39    0.00    1.38
 1993 350   159     2     2     4.7   14.8   16554    7.4    7.4   0.1   0.6   0.4   0.4   0.4   0.5   0.5   0.5   0.0   0.0   0.1   0.5   0.6   0.5   0.5  0.52  0.48  0.20  0.00  0.00   93.91   86.05    0.39    0.00    1.38
 1993 351   160     2     2     4.8   14.6   16553    7.0    7.5   0.2   0.4   0.4   0.4   0.4   0.5   0.5   0.4   0.0   0.0   0.1   0.6   0.6   0.5   0.5  0.52  0.49  0.20  0.00  0.00   94.66   86.24    0.39    0.00    1.38
 1993 352   161     2     2     4.9   14.8   16552    7.3    7.4   0.4   0.5   0.5   0.4   0.4   0.5   0.5   0.5   0.0   0.0   0.1   0.5   0.6   0.5   0.5  0.52  0.50  0.20  0.00  0.00   95.40   86.58    0.40    0.00    1.39
 1993 353   162     2     2     4.9   14.8   16552    7.4    7.4   0.6   0.4   0.5   0.4   0.4   0.5   0.5   0.5   0.0   0.0   0.1   0.5   0.6   0.5   0.5  0.52  0.51  0.21  0.00  0.00   96.15   87.01    0.40    0.00    1.39
 1993 354   163     2     2     4.9   14.7   16551    7.4    7.3   0.5   0.5   0.3   0.4   0.5   0.5   0.5   0.5   0.0   0.0   0.1   0.5   0.6   0.5   0.5  0.52  0.50  0.21  0.00  0.00   96.91   87.52    0.40    0.00    1.39
 1993 355   164     2     2     4.9   14.8   16550    7.6    7.2   0.5   0.4   0.4   0.5   0.5   0.5   0.5   0.5   0.0   0.0   0.1   0.5   0.6   0.5   0.5  0.52  0.50  0.21  0.00  0.00   97.68   88.11    0.40    0.00    1.40
 1993 356   165     2     2     4.9   15.3   16549    8.1    7.2   0.6   0.5   0.5   0.5   0.5   0.5   0.5   0.5   0.0   0.0   0.1   0.5   0.6   0.5   0.5  0.52  0.49  0.20  0.00  0.00   98.44   88.69    0.40    0.00    1.40
 1993 357   166     2     2     4.9   13.8   16549    6.6    7.2   0.6   0.4   0.5   0.4   0.4   0.4   0.4   0.5   0.0   0.0   0.1   0.5   0.6   0.5   0.5  0.52  0.49  0.20  0.00  0.00   99.19   89.27    0.40    0.00    1.40
 1993 358   167     2     2     4.9   13.9   16548    6.7    7.1   0.6   0.6   0.3   0.4   0.4   0.4   0.4   0.5   0.0   0.0   0.1   0.4   0.6   0.5   0.5  0.52  0.49  0.20  0.00  0.00   99.95   89.87    0.40    0.00    1.40
 1993 359   168     2     2     4.9   14.2   16547    7.0    7.1   0.7   0.5   0.4   0.5   0.4   0.4   0.4   0.5   0.0   0.0   0.1   0.4   0.6   0.5   0.5  0.52  0.48  0.20  0.00  0.00  100.69   90.46    0.40    0.00    1.41
 1993 360   169     2     2     4.9   14.7   16547    7.6    7.1   0.8   0.6   0.5   0.5   0.5   0.4   0.5   0.5   0.0   0.0   0.1   0.4   0.6   0.5   0.5  0.52  0.48  0.20  0.00  0.00  101.46   91.10    0.40    0.00    1.41
 1993 361   170     2     2     4.9   15.0   16546    8.0    7.0   0.8   0.6   0.6   0.5   0.5   0.4   0.5   0.5   0.0   0.0   0.1   0.4   0.6   0.5   0.5  0.52  0.48  0.19  0.00  0.00  102.25   91.74    0.40    0.00    1.41
 1993 362   171     2     2     4.9   14.7   16545    7.7    7.0   0.4   0.7   0.5   0.5   0.5   0.4   0.5   0.5   0.0   0.0   0.1   0.3   0.6   0.5   0.5  0.52  0.47  0.19  0.00  0.00  103.02   92.36    0.40    0.00    1.41
 1993 363   172     2     2     4.9   14.8   16544    7.6    7.2   0.6   0.5   0.6   0.5   0.4   0.4   0.5   0.5   0.0   0.0   0.1   0.5   0.6   0.5   0.5  0.52  0.47  0.19  0.00  0.00  103.84   92.82    0.40    0.00    1.41
 1993 364   173     2     2     4.9   14.1   16544    7.0    7.1   0.4   0.4   0.3   0.6   0.5   0.4   0.4   0.5   0.0   0.0   0.1   0.5   0.6   0.5   0.5  0.52  0.47  0.19  0.00  0.00  104.62   93.42    0.40    0.00    1.42
 1993 365   174     2     2     4.9   14.4   16543    7.3    7.1   0.6   0.5   0.4   0.5   0.5   0.4   0.4   0.5   0.0   0.0   0.1   0.5   0.6   0.5   0.5  0.52  0.46  0.19  0.00  0.00  105.36   93.97    0.40    0.00    1.42
 1994 001   175     2     2     4.9   14.5   16542    7.4    7.1   0.6   0.4   0.5   0.5   0.5   0.4   0.5   0.5   0.0   0.0   0.1   0.5   0.6   0.5   0.5  0.52  0.46  0.19  0.00  0.00  106.07   94.52    0.40    0.00    1.42
 1994 002   176     2     2     4.9   14.8   16541    7.7    7.1   0.6   0.5   0.5   0.5   0.4   0.4   0.5   0.5   0.0   0.0   0.1   0.5   0.6   0.5   0.5  0.52  0.46  0.18  0.00  0.00  106.78   95.09    0.40    0.00    1.42
 1994 003   177     2     2     4.9   14.4   16541    7.4    7.0   0.6   0.5   0.3   0.5   0.5   0.4   0.5   0.5   0.0   0.0   0.1   0.5   0.6   0.5   0.5  0.52  0.46  0.18  0.00  0.00  107.46   95.64    0.40    0.00    1.43
 1994 004   178     2     2     4.9   14.9   16540    7.9    7.0   0.7   0.6   0.4   0.5   0.5   0.4   0.5   0.5   0.0   0.0   0.1   0.4   0.5   0.5   0.5  0.52  0.45  0.18  0.00  0.00  108.14   96.20    0.40    0.00    1.43
 1994 005   179     2     2     4.9   15.2   16540    8.2    6.9   0.4   0.6   0.6   0.6   0.5   0.4   0.5   0.5   0.0   0.0   0.1   0.4   0.5   0.5   0.5  0.52  0.45  0.18  0.00  0.00  108.79   96.75    0.40    0.00    1.43
 1994 006   180     2     2     4.9   14.5   16539    7.3    7.1   0.5   0.4   0.3   0.5   0.5   0.5   0.5   0.5   0.0   0.0   0.1   0.5   0.6   0.5   0.5  0.52  0.45  0.18  0.00  0.00  109.57   97.18    0.40    0.00    1.43
 1994 007   181     2     2     4.9   14.8   16538    7.7    7.0   0.2   0.6   0.5   0.6   0.5   0.5   0.5   0.5   0.0   0.0   0.1   0.5   0.6   0.5   0.5  0.52  0.45  0.18  0.00  0.00  110.36   97.82    0.40    0.00    1.43
 1994 008   182     2     2     4.9   14.5   16537    7.2    7.4   0.2   0.1   0.5   0.4   0.5   0.5   0.5   0.5   0.0   0.0   0.1   0.6   0.6   0.5   0.5  0.52  0.44  0.18  0.00  0.00  111.18   98.14    0.40    0.00    1.44
 1994 009   183     2     2     4.9   14.5   16536    7.0    7.5   0.4   0.2   0.5   0.4   0.5   0.4   0.5   0.5   0.0   0.0   0.1   0.6   0.6   0.5   0.5  0.52  0.44  0.18  0.00  0.00  112.00   98.37    0.40    0.00    1.44
 1994 010   184     2     2     4.9   14.4   16536    6.9    7.4   0.5   0.2   0.5   0.4   0.5   0.4   0.4   0.5   0.0   0.0   0.1   0.6   0.6   0.5   0.5  0.52  0.44  0.17  0.00  0.00  112.81   98.61    0.40    0.00    1.44
 1994 011   185     2     2     5.0   14.3   16535    7.1    7.2   0.5   0.4   0.5   0.4   0.5   0.4   0.4   0.5   0.0   0.0   0.1   0.5   0.6   0.5   0.5  0.52  0.44  0.17  0.00  0.00  113.60   99.04    0.40    0.00    1.45
 1994 012   186     2     2     5.0   14.6   16534    7.5    7.1   0.6   0.5   0.6   0.4   0.5   0.4   0.5   0.5   0.0   0.0   0.1   0.5   0.6   0.5   0.5  0.52  0.44  0.17  0.00  0.00  114.37   99.51    0.40    0.00    1.45
 1994 013   187     2     2     5.0   14.4   16533    7.3    7.1   0.7   0.5   0.4   0.4   0.5   0.4   0.5   0.5   0.0   0.0   0.1   0.5   0.6   0.5   0.5  0.52  0.43  0.17  0.00  0.00  115.14   99.99    0.40    0.00    1.45
 1994 014   188     2     2     5.0   14.8   16533    7.8    7.0   0.8   0.6   0.4   0.4   0.5   0.4   0.5   0.5   0.0   0.0   0.1   0.5   0.6   0.5   0.5  0.52  0.43  0.17  0.00  0.00  115.93  100.53    0.40    0.00    1.45
 1994 015   189     2     2     5.0   15.1   16532    8.2    7.0   0.9   0.7   0.5   0.5   0.5   0.4   0.5   0.5   0.0   0.0   0.1   0.5   0.6   0.5   0.5  0.52  0.43  0.17  0.00  0.00  116.74  101.16    0.40    0.00    1.46
 1994 016   190     2     2     5.0   15.6   16531    8.6    7.0   1.0   0.8   0.5   0.5   0.5   0.5   0.5   0.5   0.0   0.0   0.1   0.5   0.6   0.5   0.5  0.52  0.43  0.17  0.00  0.00  117.58  101.81    0.40    0.00    1.46
 1994 017   191     2     2     5.0   16.2   16530    9.1    7.1   1.2   0.9   0.6   0.6   0.6   0.5   0.5   0.5   0.0   0.0   0.1   0.4   0.6   0.5   0.5  0.53  0.43  0.17  0.00  0.00  118.42  102.45    0.40    0.00    1.46
 1994 018   192     2     2     5.0   17.0   16530    9.7    7.3   1.3   1.1   0.7   0.6   0.6   0.5   0.5   0.5   0.0   0.0   0.1   0.4   0.7   0.5   0.5  0.54  0.43  0.17  0.00  0.00  119.26  103.09    0.40    0.00    1.46
 1994 019   193     2     2     5.0   17.8   16529   10.4    7.5   1.5   1.2   0.7   0.7   0.6   0.5   0.6   0.5   0.0   0.0   0.1   0.4   0.7   0.5   0.5  0.56  0.42  0.17  0.00  0.00  120.12  103.76    0.40    0.00    1.46
 1994 020   194     2     2     5.0   18.7   16528   11.1    7.6   1.7   1.4   0.9   0.7   0.7   0.5   0.6   0.5   0.0   0.0   0.1   0.4   0.8   0.5   0.5  0.58  0.42  0.16  0.00  0.00  120.99  104.46    0.40    0.00    1.47
