*WATER BALANCE OUTPUT FILE

*DSSAT Cropping System Model Ver. 4.0.2.000               Aug 12, 2016; 09:16:44

*RUN   1        : UYSB                    
 MODEL          : CRGRO040 - Soybean         
 EXPERIMENT     : UYSB0192 SB    late to create DSS                             
 TREATMENT  1   : UYSB                    


     WATER BALANCE PARAMETERS
     ========================                  --mm--

     Soil H20 (start) on Year/day 1990/191     490.84
     Soil H20 (final) on Year/day 1991/016     544.28
     Effective Irrigation                       42.99
     Precipitation                             704.80
     Drainage                                  378.42
     Runoff                                      2.38
     Soil Evaporation                          311.87
     Transpiration                               1.67
     Potential ET                              836.50

     Final Balance                             0.0000


*DSSAT Cropping System Model Ver. 4.0.2.000               Aug 12, 2016; 09:16:44

*RUN   2        : UYSB                    
 MODEL          : CRGRO040 - Soybean         
 EXPERIMENT     : UYSB0192 SB    late to create DSS                             
 TREATMENT  1   : UYSB                    


     WATER BALANCE PARAMETERS
     ========================                  --mm--

     Soil H20 (start) on Year/day 1991/191     490.84
     Soil H20 (final) on Year/day 1992/011     524.20
     Effective Irrigation                       92.19
     Precipitation                             934.50
     Drainage                                  449.11
     Runoff                                     28.99
     Soil Evaporation                          292.13
     Transpiration                             223.10
     Potential ET                              699.19

     Final Balance                             0.0002


*DSSAT Cropping System Model Ver. 4.0.2.000               Aug 12, 2016; 09:16:44

*RUN   3        : UYSB                    
 MODEL          : CRGRO040 - Soybean         
 EXPERIMENT     : UYSB0192 SB    late to create DSS                             
 TREATMENT  1   : UYSB                    


     WATER BALANCE PARAMETERS
     ========================                  --mm--

     Soil H20 (start) on Year/day 1992/191     490.84
     Soil H20 (final) on Year/day 1993/031     520.70
     Effective Irrigation                      171.77
     Precipitation                             621.30
     Drainage                                   99.18
     Runoff                                     17.47
     Soil Evaporation                          296.77
     Transpiration                             349.80
     Potential ET                              863.71

     Final Balance                             0.0001


*DSSAT Cropping System Model Ver. 4.0.2.000               Aug 12, 2016; 09:16:44

*RUN   4        : UYSB                    
 MODEL          : CRGRO040 - Soybean         
 EXPERIMENT     : UYSB0192 SB    late to create DSS                             
 TREATMENT  1   : UYSB                    


     WATER BALANCE PARAMETERS
     ========================                  --mm--

     Soil H20 (start) on Year/day 1993/191     490.84
     Soil H20 (final) on Year/day 1994/020     532.99
     Effective Irrigation                       73.80
     Precipitation                             702.40
     Drainage                                  178.60
     Runoff                                      7.64
     Soil Evaporation                          286.55
     Transpiration                             261.27
     Potential ET                              762.73

     Final Balance                             0.0002

