*PLANT N OUTPUT FILE

*DSSAT Cropping System Model Ver. 4.0.2.000               Jul 26, 2016; 12:37:55

*RUN   1        : UYMZ                    
 MODEL          : MZCER040 - Maize           
 EXPERIMENT     : UYMZ0091 MZ    late to create DSS                             
 TREATMENT  1   : UYMZ                    

@YEAR DOY   DAS   DAP   CNAD   GNAD   VNAD   GN%D   VN%D   NUPC   LNAD   SNAD   LN%D   SN%D   RN%D   SNN0C   SNN1C
 1990 187     3     0    0.0    0.0    0.0   0.00   0.00    0.0    0.0    0.0    0.0   0.00   0.00    0.00    0.00
 1990 188     4     1    0.0    0.0    0.0   0.00   0.00    0.0    0.0    0.0    0.0   0.00   0.00    0.00    0.00
 1990 189     5     2    0.0    0.0    0.0   0.00   0.00    0.0    0.0    0.0    0.0   0.00   0.00    0.00    0.00
 1990 190     6     3    0.0    0.0    0.0   0.00   0.00    0.0    0.0    0.0    0.0   0.00   0.00    0.00    0.00
 1990 191     7     4    0.0    0.0    0.0   0.00   0.00    0.0    0.0    0.0    0.0   0.00   0.00    0.00    0.00
 1990 192     8     5    0.0    0.0    0.0   0.00   0.00    0.0    0.0    0.0    0.0   0.00   0.00    0.00    0.00
 1990 193     9     6    0.0    0.0    0.0   0.00   0.00    0.0    0.0    0.0    0.0   0.00   0.00    0.00    0.00
 1990 194    10     7    0.0    0.0    0.0   0.00   0.00    0.0    0.0    0.0    0.0   0.00   0.00    0.00    0.00
 1990 195    11     8    0.0    0.0    0.0   0.00   0.00    0.0    0.0    0.0    0.0   0.00   0.00    0.00    0.00
 1990 196    12     9    0.0    0.0    0.0   0.00   0.00    0.0    0.0    0.0    0.0   0.00   0.00    0.00    0.00
 1990 197    13    10    0.0    0.0    0.0   0.00   0.00    0.0    0.0    0.0    0.0   0.00   0.00    0.00    0.00
 1990 198    14    11    0.0    0.0    0.0   0.00   0.00    0.0    0.0    0.0    0.0   0.00   0.00    0.00    0.00
 1990 199    15    12    0.0    0.0    0.0   0.00   0.00    0.0    0.0    0.0    0.0   0.00   0.00    0.00    0.00
 1990 200    16    13    0.0    0.0    0.0   0.00   0.00    0.0    0.0    0.0    0.0   0.00   0.00    0.00    0.00
 1990 201    17    14    0.0    0.0    0.0   0.00   0.00    0.0    0.0    0.0    0.0   0.00   0.00    0.00    0.00
 1990 202    18    15    0.0    0.0    0.0   0.00   0.00    0.0    0.0    0.0    0.0   0.00   0.00    0.00    0.00
 1990 203    19    16    0.0    0.0    0.0   0.00   0.00    0.0    0.0    0.0    0.0   0.00   0.00    0.00    0.00
 1990 204    20    17    0.0    0.0    0.0   0.00   0.00    0.0    0.0    0.0    0.0   0.00   0.00    0.00    0.00
 1990 205    21    18    0.0    0.0    0.0   0.00   0.00    0.0    0.0    0.0    0.0   0.00   0.00    0.00    0.00
 1990 206    22    19    0.0    0.0    0.0   0.00   0.00    0.0    0.0    0.0    0.0   0.00   0.00    0.00    0.00
 1990 207    23    20    0.0    0.0    0.0   0.00   0.00    0.0    0.0    0.0    0.0   0.00   0.00    0.00    0.00
 1990 208    24    21    0.0    0.0    0.0   0.00   0.00    0.0    0.0    0.0    0.0   0.00   0.00    0.00    0.00
 1990 209    25    22    0.0    0.0    0.0   0.00   0.00    0.0    0.0    0.0    0.0   0.00   0.00    0.00    0.00
 1990 210    26    23    0.0    0.0    0.0   0.00   0.00    0.0    0.0    0.0    0.0   0.00   0.00    0.00    0.00
 1990 211    27    24    0.0    0.0    0.0   0.00   0.00    0.0    0.0    0.0    0.0   0.00   0.00    0.00    0.00
 1990 212    28    25    0.0    0.0    0.0   0.00   0.00    0.0    0.0    0.0    0.0   0.00   0.00    0.00    0.00
 1990 213    29    26    0.0    0.0    0.0   0.00   0.00    0.0    0.0    0.0    0.0   0.00   0.00    0.00    0.00
 1990 214    30    27    0.0    0.0    0.0   0.00   0.00    0.0    0.0    0.0    0.0   0.00   0.00    0.00    0.00
 1990 215    31    28    0.0    0.0    0.0   0.00   0.00    0.0    0.0    0.0    0.0   0.00   0.00    0.00    0.00
 1990 216    32    29    0.0    0.0    0.0   0.00   0.00    0.0    0.0    0.0    0.0   0.00   0.00    0.00    0.00
 1990 217    33    30    0.0    0.0    0.0   0.00   0.00    0.0    0.0    0.0    0.0   0.00   0.00    0.00    0.00
 1990 218    34    31    0.0    0.0    0.0   0.00   0.00    0.0    0.0    0.0    0.0   0.00   0.00    0.00    0.00
 1990 219    35    32    1.2    0.0    1.2   0.00   4.40    0.0    0.6    0.6    4.4   4.40   0.00    0.00    0.00
 1990 220    36    33    1.3    0.0    1.3   0.00   4.52    0.2    0.6    0.6    4.5   4.52   1.09    0.00    0.00
 1990 221    37    34    1.3    0.0    1.3   0.00   4.50    0.2    0.6    0.6    4.5   4.50   1.13    0.00    0.00
 1990 222    38    35    1.3    0.0    1.3   0.00   4.48    0.2    0.6    0.6    4.5   4.48   1.15    0.00    0.00
 1990 223    39    36    1.3    0.0    1.3   0.00   4.48    0.2    0.6    0.6    4.5   4.48   1.11    0.00    0.00
 1990 224    40    37    1.3    0.0    1.3   0.00   4.48    0.2    0.6    0.6    4.5   4.48   1.07    0.00    0.00
 1990 225    41    38    1.3    0.0    1.3   0.00   4.48    0.2    0.6    0.6    4.5   4.48   1.04    0.00    0.00
 1990 226    42    39    1.3    0.0    1.3   0.00   4.48    0.2    0.6    0.6    4.5   4.48   1.00    0.00    0.00
 1990 227    43    40    1.2    0.0    1.2   0.00   4.33    0.2    0.6    0.6    4.3   4.33   1.21    0.00    0.00
 1990 228    44    41    1.2    0.0    1.2   0.00   4.32    0.2    0.6    0.6    4.3   4.32   1.24    0.00    0.00
 1990 229    45    42    1.2    0.0    1.2   0.00   4.27    0.3    0.6    0.6    4.3   4.27   1.27    0.00    0.00
 1990 230    46    43    1.2    0.0    1.2   0.00   3.79    0.4    0.7    0.5    3.8   3.79   1.23    0.00    0.01
 1990 231    47    44    1.4    0.0    1.4   0.00   3.65    0.5    0.9    0.5    3.7   3.65   1.18    0.00    0.01
 1990 232    48    45    1.6    0.0    1.6   0.00   3.64    0.9    1.1    0.5    3.6   3.64   1.25    0.00    0.01
 1990 233    49    46    1.8    0.0    1.8   0.00   3.77    1.2    1.3    0.5    3.8   3.77   1.24    0.00    0.01
 1990 234    50    47    2.1    0.0    2.1   0.00   3.82    1.5    1.5    0.5    3.8   3.82   1.22    0.00    0.02
 1990 235    51    48    2.3    0.0    2.3   0.00   4.02    2.0    1.7    0.6    4.0   4.02   1.37    0.00    0.02
 1990 236    52    49    2.4    0.0    2.4   0.00   3.98    2.0    1.8    0.6    4.0   3.98   1.21    0.00    0.02
 1990 237    53    50    2.5    0.0    2.5   0.00   3.57    2.2    2.0    0.5    3.6   3.57   1.16    0.00    0.03
 1990 238    54    51    2.9    0.0    2.9   0.00   3.47    2.8    2.4    0.5    3.5   3.47   1.20    0.00    0.03
 1990 239    55    52    3.4    0.0    3.4   0.00   3.92    3.3    2.9    0.5    3.9   3.92   1.15    0.00    0.04
 1990 240    56    53    3.6    0.0    3.6   0.00   4.14    4.0    3.1    0.6    4.1   4.14   1.56    0.00    0.05
 1990 241    57    54    3.6    0.0    3.6   0.00   4.05    4.0    3.1    0.6    4.0   4.05   1.45    0.00    0.05
 1990 242    58    55    3.6    0.0    3.6   0.00   3.73    4.0    3.1    0.5    3.7   3.73   1.37    0.00    0.05
 1990 243    59    56    4.0    0.0    4.0   0.00   4.08    4.0    3.4    0.6    4.1   4.08   1.09    0.00    0.05
 1990 244    60    57    4.1    0.0    4.1   0.00   4.12    4.2    3.5    0.6    4.1   4.12   1.16    0.00    0.06
 1990 245    61    58    4.1    0.0    4.1   0.00   4.11    4.2    3.5    0.6    4.1   4.11   1.17    0.00    0.07
 1990 246    62    59    4.1    0.0    4.1   0.00   3.94    4.2    3.5    0.6    3.9   3.94   1.17    0.00    0.07
 1990 247    63    60    4.2    0.0    4.2   0.00   3.89    4.2    3.7    0.5    3.9   3.89   1.07    0.00    0.07
 1990 248    64    61    4.4    0.0    4.4   0.00   4.02    4.4    3.9    0.6    4.0   4.02   1.07    0.00    0.08
 1990 249    65    62    4.5    0.0    4.5   0.00   3.98    4.5    3.9    0.6    4.0   3.98   1.07    0.00    0.08
 1990 250    66    63    4.6    0.0    4.6   0.00   3.95    4.6    4.0    0.6    4.0   3.95   1.07    0.00    0.09
 1990 251    67    64    4.7    0.0    4.7   0.00   3.96    4.7    4.1    0.6    4.0   3.96   1.07    0.00    0.10
 1990 252    68    65    4.8    0.0    4.8   0.00   3.52    4.8    4.3    0.5    3.5   3.52   1.09    0.00    0.10
 1990 253    69    66    5.4    0.0    5.4   0.00   3.51    5.5    4.9    0.5    3.5   3.51   1.09    0.00    0.11
 1990 254    70    67    6.1    0.0    6.1   0.00   3.61    6.2    5.6    0.5    3.6   3.61   1.09    0.00    0.12
 1990 255    71    68    6.7    0.0    6.7   0.00   3.60    6.9    6.2    0.5    3.6   3.60   1.14    0.00    0.12
 1990 256    72    69    7.4    0.0    7.4   0.00   3.71    7.7    6.9    0.5    3.7   3.71   1.17    0.00    0.13
 1990 257    73    70    8.0    0.0    8.0   0.00   3.60    8.3    7.5    0.5    3.6   3.60   1.17    0.00    0.14
 1990 258    74    71    8.8    0.0    8.8   0.00   3.77    9.3    8.2    0.5    3.8   3.77   1.22    0.00    0.14
 1990 259    75    72    9.2    0.0    9.2   0.00   3.60    9.7    8.6    0.5    3.6   3.60   1.14    0.00    0.15
 1990 260    76    73   10.0    0.0   10.0   0.00   3.65   10.5    9.5    0.5    3.7   3.65   1.10    0.00    0.16
 1990 261    77    74   10.7    0.0   10.7   0.00   3.64   11.2   10.2    0.5    3.6   3.64   1.10    0.00    0.17
 1990 262    78    75   11.4    0.0   11.4   0.00   3.90   12.5   10.9    0.5    3.9   3.90   1.23    0.00    0.18
 1990 263    79    76   11.4    0.0   11.4   0.00   3.67   12.5   10.9    0.5    3.7   3.67   1.21    0.00    0.18
 1990 264    80    77   11.9    0.0   11.9   0.00   3.58   12.8   11.4    0.5    3.6   3.58   1.09    0.00    0.19
 1990 265    81    78   13.6    0.0   13.6   0.00   3.79   15.2   13.1    0.5    3.8   3.79   1.25    0.00    0.20
 1990 266    82    79   13.8    0.0   13.8   0.00   3.75   16.0   13.3    0.5    3.7   3.75   1.36    0.00    0.22
 1990 267    83    80   13.8    0.0   13.8   0.00   3.66   16.5   13.3    0.5    3.7   3.66   1.38    0.00    0.23
 1990 268    84    81   14.2    0.0   14.2   0.00   3.64   17.2   13.7    0.5    3.6   3.64   1.32    0.00    0.25
 1990 269    85    82   14.9    0.0   14.9   0.00   3.56   18.2   14.4    0.5    3.6   3.56   1.22    0.00    0.27
 1990 270    86    83   16.4    0.0   16.4   0.00   3.53   20.0   15.9    0.5    3.5   3.53   1.18    0.00    0.30
 1990 271    87    84   17.7    0.0   17.7   0.00   3.50   20.9   17.2    0.5    3.5   3.50   1.07    0.00    0.32
 1990 272    88    85   19.2    0.0   19.2   0.00   3.48   23.4   18.6    0.6    3.5   3.48   1.18    0.00    0.34
 1990 273    89    86   20.8    0.0   20.8   0.00   3.45   25.6   20.2    0.6    3.4   3.45   1.18    0.00    0.37
 1990 274    90    87   23.2    0.0   23.2   0.00   3.41   28.6   22.5    0.7    3.4   3.41   1.18    0.00    0.40
 1990 275    91    88   25.6    0.0   25.6   0.00   3.38   32.1   24.8    0.9    3.4   3.38   1.20    0.00    0.43
 1990 276    92    89   28.7    0.0   28.7   0.00   3.34   35.7   27.5    1.1    3.3   3.34   1.17    0.00    0.47
 1990 277    93    90   32.8    0.0   32.8   0.00   3.29   39.8   31.2    1.6    3.3   3.29   1.12    0.00    0.51
 1990 278    94    91   35.1    0.0   35.1   0.00   3.26   41.8   33.2    1.9    3.3   3.26   1.07    0.00    0.55
 1990 279    95    92   38.4    0.0   38.4   0.00   3.22   45.1   35.9    2.5    3.2   3.22   1.07    0.00    0.59
 1990 280    96    93   40.8    0.0   40.8   0.00   3.19   47.6   37.8    3.0    3.2   3.19   1.07    0.00    0.63
 1990 281    97    94   43.2    0.0   43.2   0.00   3.16   50.7   39.7    3.5    3.2   3.16   1.12    0.00    0.67
 1990 282    98    95   45.5    0.0   45.5   0.00   3.14   55.4   41.5    4.0    3.1   3.14   1.23    0.00    0.71
 1990 283    99    96   48.2    0.0   48.2   0.00   3.11   59.0   43.5    4.7    3.1   3.11   1.19    0.00    0.77
 1990 284   100    97   51.5    0.0   51.5   0.00   3.08   61.2   45.8    5.6    3.1   3.08   1.08    0.00    0.83
 1990 285   101    98   53.8    0.0   53.8   0.00   3.06   66.9   47.4    6.3    3.1   3.06   1.22    0.00    0.88
 1990 286   102    99   55.9    0.0   55.9   0.00   3.04   70.9   48.9    7.0    3.0   3.04   1.21    0.00    0.96
 1990 287   103   100   59.0    0.0   59.0   0.00   3.02   75.2   50.9    8.1    3.0   3.02   1.17    0.00    1.04
 1990 288   104   101   61.2    0.0   61.2   0.00   3.00   79.4   52.4    8.9    3.0   3.00   1.18    0.00    1.12
 1990 289   105   102   63.1    0.0   63.1   0.00   2.98   83.4   53.5    9.5    3.0   2.98   1.18    0.00    1.22
 1990 290   106   103   65.6    0.0   65.6   0.00   2.97   85.5   55.1   10.5    3.0   2.97   1.11    0.00    1.33
 1990 291   107   104   69.8    0.0   69.8   0.00   2.94   91.5   57.6   12.3    2.9   2.94   1.14    0.00    1.43
 1990 292   108   105   74.3    0.0   74.3   0.00   2.90   95.8   60.1   14.2    2.9   2.90   1.10    0.00    1.54
 1990 293   109   106   78.9    0.0   78.9   0.00   2.87  100.8   62.5   16.4    2.9   2.87   1.09    0.00    1.66
 1990 294   110   107   83.5    0.0   83.5   0.00   2.84  107.0   64.9   18.6    2.8   2.84   1.12    0.00    1.77
 1990 295   111   108   87.7    0.0   87.7   0.00   2.80  113.0   66.8   20.9    2.8   2.80   1.13    0.00    1.89
 1990 296   112   109   92.2    0.0   92.2   0.00   2.76  117.7   68.8   23.4    2.8   2.76   1.10    0.00    2.03
 1990 297   113   110   95.4    0.0   95.4   0.00   2.70  121.6   69.8   25.5    2.7   2.70   1.09    0.00    2.16
 1990 298   114   111   98.7    0.0   98.7   0.00   2.61  124.7   71.5   27.2    2.6   2.61   1.08    0.00    2.30
 1990 299   115   112  101.3    0.0  101.3   0.00   2.42  127.3   70.9   30.4    2.4   2.42   1.07    0.00    2.43
 1990 300   116   113  103.5    0.0  103.5   0.00   2.29  129.5   70.1   33.4    2.3   2.29   1.07    0.00    2.57
 1990 301   117   114  105.4    0.0  105.4   0.00   2.25  131.4   70.3   35.1    2.3   2.25   1.07    0.00    2.70
 1990 302   118   115  107.0    0.0  107.0   0.00   2.19  133.0   69.8   37.1    2.2   2.19   1.07    0.00    2.84
 1990 303   119   116  108.2    0.0  108.2   0.00   2.07  134.4   68.2   40.0    2.1   2.07   1.05    0.00    2.97
 1990 304   120   117  109.4    0.0  109.4   0.00   2.00  135.6   67.3   42.1    2.0   2.00   1.00    0.00    3.11
 1990 305   121   118  110.4    0.0  110.4   0.00   1.93  136.8   66.3   44.1    1.9   1.93   0.98    0.00    3.24
 1990 306   122   119  111.2    0.0  111.2   0.00   1.86  137.7   65.2   46.0    1.9   1.86   0.97    0.00    3.38
 1990 307   123   120  112.7    0.0  112.7   0.00   1.82  139.3   64.9   47.8    1.8   1.82   0.97    0.00    3.51
 1990 308   124   121  113.9    0.0  113.9   0.00   1.79  140.7   64.6   49.3    1.8   1.79   0.94    0.00    3.65
 1990 309   125   122  115.0    0.0  115.0   0.00   1.78  142.0   64.7   50.3    1.8   1.78   0.89    0.00    3.79
 1990 310   126   123  116.2    0.0  116.2   0.00   1.76  143.4   64.6   51.6    1.8   1.76   0.87    0.00    3.93
 1990 311   127   124  117.2    0.0  117.2   0.00   1.73  144.7   64.2   53.1    1.7   1.73   0.85    0.00    4.07
 1990 312   128   125  118.2    0.0  118.2   0.00   1.71  145.8   64.0   54.2    1.7   1.71   0.85    0.00    4.21
 1990 313   129   126  119.1    0.0  119.1   0.00   1.67  146.9   63.6   55.6    1.7   1.67   0.85    0.00    4.35
 1990 314   130   127  119.9    0.0  119.9   0.00   1.64  147.9   63.0   56.9    1.6   1.64   0.84    0.00    4.50
 1990 315   131   128  120.7    0.0  120.7   0.00   1.59  148.8   62.4   58.4    1.6   1.59   0.82    0.00    4.64
 1990 316   132   129  121.5    0.0  121.5   0.00   1.56  149.8   62.0   59.6    1.6   1.56   0.83    0.00    4.78
 1990 317   133   130  122.3    0.0  122.3   0.00   1.70  150.7   66.7   55.6    1.7   1.70   0.81    0.00    4.93
 1990 318   134   131  123.0    0.0  123.0   0.00   1.70  151.6   66.0   57.0    1.7   1.70   0.82    0.00    5.07
 1990 319   135   132  123.8    0.0  123.8   0.00   1.71  152.6   65.7   58.1    1.7   1.71   0.83    0.00    5.22
 1990 320   136   133  124.4    0.0  124.4   0.00   1.72  153.4   65.2   59.2    1.7   1.72   0.82    0.00    5.37
 1990 321   137   134  124.9    0.0  124.9   0.00   1.73  154.1   64.5   60.4    1.7   1.73   0.79    0.00    5.52
 1990 322   138   135  125.5    0.0  125.5   0.00   1.73  154.9   63.6   61.8    1.7   1.73   0.77    0.00    5.67
 1990 323   139   136  126.1    0.0  126.1   0.00   1.72  155.9   62.5   63.6    1.7   1.72   0.77    0.00    5.82
 1990 324   140   137  126.8    0.0  126.8   0.00   1.73  156.9   61.8   65.0    1.7   1.73   0.78    0.00    5.97
 1990 325   141   138  127.4    0.0  127.4   0.00   1.74  158.0   60.7   66.6    1.7   1.74   0.77    0.00    6.12
 1990 326   142   139  128.0    0.0  128.0   0.00   1.74  159.2   59.8   68.2    1.7   1.74   0.76    0.00    6.28
 1990 327   143   140  128.5    0.0  128.5   0.00   1.75  160.4   58.8   69.7    1.7   1.75   0.75    0.00    6.44
 1990 328   144   141  129.0    0.0  129.0   0.00   1.75  161.6   57.6   71.3    1.7   1.75   0.76    0.00    6.60
 1990 329   145   142  129.5    4.7  124.8   1.68   1.69  162.7   55.7   69.0    1.7   1.69   0.77    0.00    6.77
 1990 330   146   143  130.0    8.4  121.6   1.65   1.65  163.7   54.3   67.2    1.6   1.65   0.77    0.00    6.94
 1990 331   147   144  130.4   10.4  120.0   1.64   1.63  164.5   53.6   66.4    1.6   1.63   0.77    0.00    7.11
 1990 332   148   145  131.0   12.8  118.2   1.63   1.60  165.6   52.8   65.4    1.6   1.60   0.76    0.00    7.28
 1990 333   149   146  131.4   16.2  115.3   1.62   1.56  166.5   51.5   63.8    1.6   1.56   0.76    0.00    7.46
 1990 334   150   147  131.9   20.0  111.9   1.61   1.52  167.4   50.0   61.9    1.5   1.52   0.77    0.00    7.63
 1990 335   151   148  132.4   23.6  108.8   1.60   1.48  168.3   48.6   60.2    1.5   1.48   0.77    0.00    7.81
 1990 336   152   149  132.9   26.6  106.3   1.59   1.45  169.1   47.7   58.6    1.4   1.45   0.78    0.00    7.99
 1990 337   153   150  133.4   28.9  104.4   1.58   1.42  169.9   46.6   57.8    1.4   1.42   0.78    0.00    8.18
 1990 338   154   151  133.8   32.0  101.8   1.57   1.38  170.7   45.5   56.3    1.4   1.38   0.77    0.00    8.36
 1990 339   155   152  134.3   36.2   98.1   1.57   1.33  171.5   43.8   54.3    1.3   1.33   0.78    0.00    8.55
 1990 340   156   153  134.8   40.0   94.9   1.55   1.29  172.3   42.4   52.5    1.3   1.29   0.79    0.00    8.74
 1990 341   157   154  135.2   43.3   91.9   1.54   1.25  173.0   41.1   50.8    1.2   1.25   0.79    0.00    8.93
 1990 342   158   155  135.7   45.9   89.7   1.53   1.22  173.7   40.1   49.6    1.2   1.22   0.78    0.00    9.12
 1990 343   159   156  136.1   48.0   88.1   1.52   1.20  174.5   39.4   48.8    1.2   1.20   0.79    0.00    9.31
 1990 344   160   157  136.4   50.3   86.1   1.51   1.17  174.8   38.5   47.6    1.2   1.17   0.80    0.00    9.50
 1990 345   161   158  136.7   53.2   83.5   1.50   1.13  175.3   37.3   46.2    1.1   1.13   0.80    0.00    9.70
 1990 346   162   159  137.1   55.0   82.0   1.50   1.11  175.9   36.7   45.4    1.1   1.11   0.80    0.00    9.89
 1990 347   163   160  137.5   57.6   79.8   1.48   1.08  176.5   35.7   44.2    1.1   1.08   0.80    0.00   10.09
 1990 348   164   161  138.0   59.3   78.6   1.48   1.07  177.3   35.1   43.5    1.1   1.07   0.80    0.00   10.28
 1990 349   165   162  138.5   61.9   76.6   1.47   1.04  178.0   34.2   42.4    1.0   1.04   0.79    0.00   10.48
 1990 350   166   163  139.0   65.2   73.8   1.45   1.00  178.8   33.0   40.9    1.0   1.00   0.79    0.00   10.68
 1990 351   167   164  139.6   68.6   71.0   1.44   0.97  179.7   31.9   39.1    1.0   0.97   0.80    0.00   10.88
 1990 352   168   165  140.1   71.5   68.6   1.42   0.93  180.4   30.6   37.9    0.9   0.93   0.80    0.00   11.08
 1990 353   169   166  140.5   74.1   66.4   1.41   0.90  181.0   29.7   36.7    0.9   0.90   0.80    0.00   11.28
 1990 354   170   167  141.1   76.7   64.4   1.40   0.87  181.9   28.8   35.6    0.9   0.87   0.80    0.00   11.48
 1990 355   171   168  141.7   79.7   62.0   1.38   0.84  182.8   27.7   34.3    0.8   0.84   0.80    0.00   11.69
 1990 356   172   169  142.3   82.6   59.7   1.37   0.82  183.5   27.1   32.6    0.8   0.82   0.81    0.00   11.89
 1990 357   173   170  142.7   85.4   57.3   1.35   0.79  184.1   26.0   31.2    0.8   0.79   0.82    0.00   12.10
 1990 358   174   171  143.1   87.6   55.5   1.34   0.77  184.7   25.4   30.1    0.8   0.77   0.83    0.00   12.31
 1990 359   175   172  143.6   89.6   54.0   1.33   0.74  185.3   24.4   29.6    0.7   0.74   0.83    0.00   12.52
 1990 360   176   173  144.3   92.2   52.0   1.31   0.71  186.3   23.3   28.7    0.7   0.71   0.83    0.00   12.72
 1990 361   177   174  145.0   94.7   50.2   1.30   0.68  187.2   22.4   27.8    0.7   0.68   0.83    0.00   12.93
 1990 362   178   175  145.7   96.1   49.7   1.29   0.67  188.3   22.2   27.5    0.7   0.67   0.84    0.00   13.15
 1990 363   179   176  146.4   97.2   49.2   1.28   0.67  189.2   22.0   27.2    0.7   0.67   0.84    0.00   13.36
 1990 364   180   177  147.0   99.0   48.1   1.27   0.65  190.1   21.5   26.6    0.7   0.65   0.84    0.00   13.57
 1990 365   181   178  147.7  101.2   46.5   1.25   0.63  190.9   20.8   25.7    0.6   0.63   0.85    0.00   13.79
 1991 001   182   179  148.3  103.4   45.0   1.24   0.61  191.7   20.2   24.7    0.6   0.61   0.86    0.00   14.00
 1991 002   183   180  148.9  105.5   43.5   1.22   0.60  192.5   19.8   23.7    0.6   0.60   0.86    0.00   14.22
 1991 003   184   181  149.6  107.5   42.1   1.21   0.59  193.4   19.3   22.8    0.6   0.59   0.87    0.00   14.43
 1991 004   185   182  150.2  109.2   41.0   1.19   0.57  194.2   18.8   22.2    0.6   0.57   0.88    0.00   14.65
 1991 005   186   183  150.9  110.9   40.0   1.18   0.56  195.1   18.4   21.6    0.6   0.56   0.89    0.00   14.87
 1991 006   187   184  151.7  112.6   39.1   1.16   0.55  195.9   18.1   21.0    0.5   0.55   0.89    0.00   15.09
 1991 007   188   185  151.7  112.6   39.1   1.16   0.55  196.7   18.1   21.0    0.5   0.55   0.89    0.00   15.09
 1991 008   189   186  151.7  112.6   39.1   1.16   0.55  197.6   18.1   21.0    0.5   0.55   0.89    0.00   15.09
 1991 009   190   187  151.7  112.6   39.1   1.16   0.55  198.4   18.1   21.0    0.5   0.55   0.89    0.00   15.09

*DSSAT Cropping System Model Ver. 4.0.2.000               Jul 26, 2016; 12:37:55

*RUN   2        : UYMZ                    
 MODEL          : MZCER040 - Maize           
 EXPERIMENT     : UYMZ0091 MZ    late to create DSS                             
 TREATMENT  1   : UYMZ                    

@YEAR DOY   DAS   DAP   CNAD   GNAD   VNAD   GN%D   VN%D   NUPC   LNAD   SNAD   LN%D   SN%D   RN%D   SNN0C   SNN1C
 1991 187     3     0    0.0    0.0    0.0   0.00   0.00    0.0    0.0    0.0    0.0   0.00   0.00    0.00    0.00
 1991 188     4     1    0.0    0.0    0.0   0.00   0.00    0.0    0.0    0.0    0.0   0.00   0.00    0.00    0.00
 1991 189     5     2    0.0    0.0    0.0   0.00   0.00    0.0    0.0    0.0    0.0   0.00   0.00    0.00    0.00
 1991 190     6     3    0.0    0.0    0.0   0.00   0.00    0.0    0.0    0.0    0.0   0.00   0.00    0.00    0.00
 1991 191     7     4    0.0    0.0    0.0   0.00   0.00    0.0    0.0    0.0    0.0   0.00   0.00    0.00    0.00
 1991 192     8     5    0.0    0.0    0.0   0.00   0.00    0.0    0.0    0.0    0.0   0.00   0.00    0.00    0.00
 1991 193     9     6    0.0    0.0    0.0   0.00   0.00    0.0    0.0    0.0    0.0   0.00   0.00    0.00    0.00
 1991 194    10     7    0.0    0.0    0.0   0.00   0.00    0.0    0.0    0.0    0.0   0.00   0.00    0.00    0.00
 1991 195    11     8    0.0    0.0    0.0   0.00   0.00    0.0    0.0    0.0    0.0   0.00   0.00    0.00    0.00
 1991 196    12     9    0.0    0.0    0.0   0.00   0.00    0.0    0.0    0.0    0.0   0.00   0.00    0.00    0.00
 1991 197    13    10    0.0    0.0    0.0   0.00   0.00    0.0    0.0    0.0    0.0   0.00   0.00    0.00    0.00
 1991 198    14    11    0.0    0.0    0.0   0.00   0.00    0.0    0.0    0.0    0.0   0.00   0.00    0.00    0.00
 1991 199    15    12    0.0    0.0    0.0   0.00   0.00    0.0    0.0    0.0    0.0   0.00   0.00    0.00    0.00
 1991 200    16    13    0.0    0.0    0.0   0.00   0.00    0.0    0.0    0.0    0.0   0.00   0.00    0.00    0.00
 1991 201    17    14    0.0    0.0    0.0   0.00   0.00    0.0    0.0    0.0    0.0   0.00   0.00    0.00    0.00
 1991 202    18    15    0.0    0.0    0.0   0.00   0.00    0.0    0.0    0.0    0.0   0.00   0.00    0.00    0.00
 1991 203    19    16    0.0    0.0    0.0   0.00   0.00    0.0    0.0    0.0    0.0   0.00   0.00    0.00    0.00
 1991 204    20    17    0.0    0.0    0.0   0.00   0.00    0.0    0.0    0.0    0.0   0.00   0.00    0.00    0.00
 1991 205    21    18    0.0    0.0    0.0   0.00   0.00    0.0    0.0    0.0    0.0   0.00   0.00    0.00    0.00
 1991 206    22    19    0.0    0.0    0.0   0.00   0.00    0.0    0.0    0.0    0.0   0.00   0.00    0.00    0.00
 1991 207    23    20    0.0    0.0    0.0   0.00   0.00    0.0    0.0    0.0    0.0   0.00   0.00    0.00    0.00
 1991 208    24    21    0.0    0.0    0.0   0.00   0.00    0.0    0.0    0.0    0.0   0.00   0.00    0.00    0.00
 1991 209    25    22    1.2    0.0    1.2   0.00   4.40    0.0    0.6    0.6    4.4   4.40   0.00    0.00    0.00
 1991 210    26    23    1.3    0.0    1.3   0.00   4.51    0.2    0.6    0.6    4.5   4.51   1.09    0.00    0.00
 1991 211    27    24    1.3    0.0    1.3   0.00   4.51    0.2    0.6    0.6    4.5   4.51   1.08    0.00    0.00
 1991 212    28    25    1.3    0.0    1.3   0.00   4.49    0.2    0.6    0.6    4.5   4.49   1.14    0.00    0.00
 1991 213    29    26    1.3    0.0    1.3   0.00   4.49    0.2    0.6    0.6    4.5   4.49   1.15    0.00    0.00
 1991 214    30    27    1.3    0.0    1.3   0.00   4.49    0.2    0.6    0.6    4.5   4.49   1.17    0.00    0.00
 1991 215    31    28    1.3    0.0    1.3   0.00   4.49    0.2    0.6    0.6    4.5   4.49   1.17    0.00    0.00
 1991 216    32    29    1.3    0.0    1.3   0.00   4.49    0.2    0.6    0.6    4.5   4.49   1.18    0.00    0.00
 1991 217    33    30    1.3    0.0    1.3   0.00   4.49    0.2    0.6    0.6    4.5   4.49   1.17    0.00    0.00
 1991 218    34    31    1.3    0.0    1.3   0.00   4.49    0.2    0.6    0.6    4.5   4.49   1.18    0.00    0.00
 1991 219    35    32    1.3    0.0    1.3   0.00   4.49    0.2    0.6    0.6    4.5   4.49   1.18    0.00    0.00
 1991 220    36    33    1.3    0.0    1.3   0.00   4.49    0.2    0.6    0.6    4.5   4.49   1.18    0.00    0.00
 1991 221    37    34    1.3    0.0    1.3   0.00   4.49    0.2    0.6    0.6    4.5   4.49   1.17    0.00    0.00
 1991 222    38    35    1.3    0.0    1.3   0.00   4.49    0.2    0.6    0.6    4.5   4.49   1.17    0.00    0.00
 1991 223    39    36    1.3    0.0    1.3   0.00   4.49    0.2    0.6    0.6    4.5   4.49   1.17    0.00    0.00
 1991 224    40    37    1.3    0.0    1.3   0.00   4.49    0.2    0.6    0.6    4.5   4.49   1.14    0.00    0.00
 1991 225    41    38    1.3    0.0    1.3   0.00   4.49    0.2    0.6    0.6    4.5   4.49   1.12    0.00    0.00
 1991 226    42    39    1.3    0.0    1.3   0.00   4.49    0.2    0.6    0.6    4.5   4.49   1.06    0.00    0.00
 1991 227    43    40    1.3    0.0    1.3   0.00   4.49    0.2    0.6    0.6    4.5   4.49   1.01    0.00    0.00
 1991 228    44    41    1.2    0.0    1.2   0.00   4.14    0.2    0.6    0.6    4.1   4.14   1.18    0.00    0.00
 1991 229    45    42    1.3    0.0    1.3   0.00   3.55    0.3    0.8    0.5    3.6   3.55   1.21    0.00    0.00
 1991 230    46    43    1.5    0.0    1.5   0.00   3.56    0.5    1.0    0.5    3.6   3.56   1.12    0.00    0.00
 1991 231    47    44    1.8    0.0    1.8   0.00   3.55    0.9    1.3    0.5    3.6   3.55   1.23    0.00    0.01
 1991 232    48    45    2.2    0.0    2.2   0.00   3.55    1.3    1.7    0.5    3.5   3.55   1.16    0.00    0.01
 1991 233    49    46    2.5    0.0    2.5   0.00   3.54    1.8    2.1    0.5    3.5   3.54   1.31    0.00    0.01
 1991 234    50    47    3.0    0.0    3.0   0.00   3.46    2.4    2.5    0.5    3.5   3.46   1.27    0.00    0.01
 1991 235    51    48    3.6    0.0    3.6   0.00   3.59    3.2    3.1    0.5    3.6   3.59   1.35    0.00    0.02
 1991 236    52    49    4.1    0.0    4.1   0.00   3.71    4.0    3.6    0.5    3.7   3.71   1.32    0.00    0.02
 1991 237    53    50    4.5    0.0    4.5   0.00   3.57    4.6    4.0    0.5    3.6   3.57   1.24    0.00    0.03
 1991 238    54    51    5.2    0.0    5.2   0.00   3.77    5.1    4.7    0.5    3.8   3.77   1.12    0.00    0.03
 1991 239    55    52    5.6    0.0    5.6   0.00   3.82    5.6    5.1    0.5    3.8   3.82   1.13    0.00    0.04
 1991 240    56    53    5.9    0.0    5.9   0.00   3.63    6.2    5.4    0.5    3.6   3.63   1.20    0.00    0.04
 1991 241    57    54    6.6    0.0    6.6   0.00   3.54    7.0    6.1    0.5    3.5   3.54   1.18    0.00    0.05
 1991 242    58    55    7.4    0.0    7.4   0.00   3.47    7.8    7.0    0.5    3.5   3.47   1.10    0.00    0.06
 1991 243    59    56    8.5    0.0    8.5   0.00   3.73    9.0    8.0    0.5    3.7   3.73   1.13    0.00    0.07
 1991 244    60    57    9.1    0.0    9.1   0.00   3.79    9.9    8.5    0.5    3.8   3.79   1.24    0.00    0.08
 1991 245    61    58    9.5    0.0    9.5   0.00   3.69   10.2    9.0    0.5    3.7   3.69   1.12    0.00    0.09
 1991 246    62    59   10.1    0.0   10.1   0.00   3.51   11.1    9.6    0.5    3.5   3.51   1.17    0.00    0.10
 1991 247    63    60   11.2    0.0   11.2   0.00   3.43   13.0   10.8    0.5    3.4   3.43   1.27    0.00    0.11
 1991 248    64    61   12.7    0.0   12.7   0.00   3.59   15.2   12.2    0.5    3.6   3.59   1.28    0.00    0.12
 1991 249    65    62   13.8    0.0   13.8   0.00   3.55   15.8   13.3    0.5    3.5   3.55   1.09    0.00    0.14
 1991 250    66    63   14.8    0.0   14.8   0.00   3.54   17.0   14.3    0.5    3.5   3.54   1.10    0.00    0.16
 1991 251    67    64   16.9    0.0   16.9   0.00   3.81   19.3   16.4    0.5    3.8   3.81   1.12    0.00    0.17
 1991 252    68    65   17.5    0.0   17.5   0.00   3.68   21.0   17.0    0.5    3.7   3.68   1.25    0.00    0.19
 1991 253    69    66   18.5    0.0   18.5   0.00   3.58   22.8   18.0    0.5    3.6   3.58   1.24    0.00    0.22
 1991 254    70    67   20.3    0.0   20.3   0.00   3.54   25.7   19.8    0.5    3.5   3.54   1.24    0.00    0.24
 1991 255    71    68   22.6    0.0   22.6   0.00   3.50   28.7   22.1    0.6    3.5   3.50   1.21    0.00    0.28
 1991 256    72    69   25.7    0.0   25.7   0.00   3.45   31.9   25.0    0.7    3.5   3.45   1.14    0.00    0.31
 1991 257    73    70   26.9    0.0   26.9   0.00   3.43   33.0   26.2    0.7    3.4   3.43   1.10    0.00    0.35
 1991 258    74    71   28.1    0.0   28.1   0.00   3.50   34.4   27.3    0.8    3.5   3.50   1.12    0.00    0.39
 1991 259    75    72   30.0    0.0   30.0   0.00   3.39   36.8   29.1    0.9    3.4   3.39   1.12    0.00    0.42
 1991 260    76    73   32.4    0.0   32.4   0.00   3.36   38.8   31.3    1.1    3.4   3.36   1.07    0.00    0.46
 1991 261    77    74   34.1    0.0   34.1   0.00   3.30   42.2   32.8    1.3    3.3   3.30   1.16    0.00    0.50
 1991 262    78    75   35.8    0.0   35.8   0.00   3.33   46.1   34.3    1.5    3.3   3.33   1.24    0.00    0.55
 1991 263    79    76   37.5    0.0   37.5   0.00   3.28   47.6   35.8    1.7    3.3   3.28   1.14    0.00    0.60
 1991 264    80    77   40.6    0.0   40.6   0.00   3.22   50.4   38.3    2.2    3.2   3.22   1.10    0.00    0.66
 1991 265    81    78   41.7    0.0   41.7   0.00   3.13   52.6   39.2    2.5    3.1   3.13   1.07    0.00    0.72
 1991 266    82    79   43.6    0.0   43.6   0.00   3.19   56.6   40.8    2.8    3.2   3.19   1.15    0.00    0.78
 1991 267    83    80   45.4    0.0   45.4   0.00   3.22   60.4   42.3    3.0    3.2   3.22   1.19    0.00    0.85
 1991 268    84    81   47.4    0.0   47.4   0.00   3.19   63.3   43.9    3.5    3.2   3.19   1.16    0.00    0.93
 1991 269    85    82   49.6    0.0   49.6   0.00   3.17   67.0   45.6    4.0    3.2   3.17   1.15    0.00    1.01
 1991 270    86    83   53.5    0.0   53.5   0.00   3.12   70.9   48.5    5.0    3.1   3.12   1.11    0.00    1.11
 1991 271    87    84   55.3    0.0   55.3   0.00   3.14   75.0   49.9    5.4    3.1   3.14   1.17    0.00    1.20
 1991 272    88    85   56.7    0.0   56.7   0.00   3.11   77.7   50.9    5.9    3.1   3.11   1.15    0.00    1.30
 1991 273    89    86   58.7    0.0   58.7   0.00   3.08   80.8   52.2    6.5    3.1   3.08   1.13    0.00    1.41
 1991 274    90    87   60.4    0.0   60.4   0.00   3.07   83.7   53.4    7.0    3.1   3.07   1.13    0.00    1.53
 1991 275    91    88   61.6    0.0   61.6   0.00   3.04   86.2   54.1    7.5    3.0   3.04   1.12    0.00    1.65
 1991 276    92    89   62.6    0.0   62.6   0.00   3.00   88.3   54.7    7.9    3.0   3.00   1.10    0.00    1.78
 1991 277    93    90   63.7    0.0   63.7   0.00   2.94   90.1   55.2    8.5    2.9   2.94   1.07    0.00    1.91
 1991 278    94    91   65.2    0.0   65.2   0.00   2.93   91.6   56.1    9.1    2.9   2.93   1.07    0.00    2.05
 1991 279    95    92   66.1    0.0   66.1   0.00   2.94   92.9   56.7    9.3    2.9   2.94   1.08    0.00    2.19
 1991 280    96    93   66.8    0.0   66.8   0.00   2.93   93.9   57.1    9.6    2.9   2.93   1.07    0.00    2.33
 1991 281    97    94   67.2    0.0   67.2   0.00   2.89   94.8   57.3    9.9    2.9   2.89   1.04    0.00    2.47
 1991 282    98    95   67.7    0.0   67.7   0.00   2.80   95.6   57.1   10.5    2.8   2.80   1.01    0.00    2.61
 1991 283    99    96   68.2    0.0   68.2   0.00   2.70   96.4   56.9   11.2    2.7   2.70   0.97    0.00    2.75
 1991 284   100    97   68.7    0.0   68.7   0.00   2.59   97.2   56.6   12.1    2.6   2.59   0.94    0.00    2.90
 1991 285   101    98   69.2    0.0   69.2   0.00   2.42   98.0   55.8   13.4    2.4   2.42   0.92    0.00    3.05
 1991 286   102    99   69.8    0.0   69.8   0.00   2.20   98.7   54.5   15.3    2.2   2.20   0.92    0.00    3.20
 1991 287   103   100   70.3    0.0   70.3   0.00   2.09   99.4   53.9   16.5    2.1   2.09   0.92    0.00    3.35
 1991 288   104   101   70.9    0.0   70.9   0.00   2.04  100.0   53.6   17.3    2.0   2.04   0.93    0.00    3.50
 1991 289   105   102   71.1    0.0   71.1   0.00   1.97  100.3   53.1   18.0    2.0   1.97   0.93    0.00    3.65
 1991 290   106   103   71.4    0.0   71.4   0.00   1.95  100.7   53.0   18.4    1.9   1.95   0.92    0.00    3.80
 1991 291   107   104   71.8    0.0   71.8   0.00   1.89  101.2   52.6   19.2    1.9   1.89   0.88    0.00    3.95
 1991 292   108   105   72.4    0.0   72.4   0.00   1.73  101.9   52.5   19.9    1.7   1.73   0.88    0.00    4.10
 1991 293   109   106   72.9    0.0   72.9   0.00   1.63  102.5   51.9   21.0    1.6   1.63   0.86    0.00    4.25
 1991 294   110   107   73.4    0.0   73.4   0.00   1.54  103.1   50.9   22.5    1.5   1.54   0.85    0.00    4.40
 1991 295   111   108   74.0    0.0   74.0   0.00   1.45  103.8   49.9   24.2    1.5   1.45   0.85    0.00    4.55
 1991 296   112   109   74.7    0.0   74.7   0.00   1.43  104.5   49.7   25.0    1.4   1.43   0.86    0.00    4.71
 1991 297   113   110   75.2    0.0   75.2   0.00   1.42  105.2   49.7   25.6    1.4   1.42   0.86    0.00    4.86
 1991 298   114   111   75.9    0.0   75.9   0.00   1.40  105.9   49.5   26.4    1.4   1.40   0.86    0.00    5.01
 1991 299   115   112   76.4    0.0   76.4   0.00   1.36  106.6   49.0   27.5    1.4   1.36   0.85    0.00    5.17
 1991 300   116   113   77.8    0.0   77.8   0.00   1.34  108.1   49.1   28.7    1.3   1.34   0.85    0.00    5.32
 1991 301   117   114   79.2    0.0   79.2   0.00   1.34  109.6   49.4   29.8    1.3   1.34   0.86    0.00    5.48
 1991 302   118   115   80.5    0.0   80.5   0.00   1.33  111.1   49.7   30.8    1.3   1.33   0.86    0.00    5.63
 1991 303   119   116   81.6    0.0   81.6   0.00   1.33  112.4   49.9   31.8    1.3   1.33   0.87    0.00    5.79
 1991 304   120   117   82.7    0.0   82.7   0.00   1.32  113.5   49.9   32.7    1.3   1.32   0.88    0.00    5.95
 1991 305   121   118   83.7    0.0   83.7   0.00   1.30  114.6   49.9   33.8    1.3   1.30   0.86    0.00    6.10
 1991 306   122   119   84.7    0.0   84.7   0.00   1.29  115.8   49.9   34.8    1.3   1.29   0.84    0.00    6.26
 1991 307   123   120   85.7    0.0   85.7   0.00   1.28  116.9   49.9   35.8    1.3   1.28   0.82    0.00    6.42
 1991 308   124   121   86.5    0.0   86.5   0.00   1.27  118.0   49.8   36.7    1.3   1.27   0.80    0.00    6.58
 1991 309   125   122   87.4    0.0   87.4   0.00   1.25  119.0   49.6   37.7    1.2   1.25   0.79    0.00    6.74
 1991 310   126   123   88.2    0.0   88.2   0.00   1.23  119.9   49.4   38.7    1.2   1.23   0.79    0.00    6.90
 1991 311   127   124   88.9    0.0   88.9   0.00   1.22  120.7   49.3   39.6    1.2   1.22   0.78    0.00    7.06
 1991 312   128   125   89.7    0.0   89.7   0.00   1.21  121.7   49.3   40.4    1.2   1.21   0.77    0.00    7.22
 1991 313   129   126   90.4    0.0   90.4   0.00   1.20  122.6   49.3   41.1    1.2   1.20   0.75    0.00    7.39
 1991 314   130   127   91.1    0.0   91.1   0.00   1.31  123.4   53.2   37.9    1.3   1.31   0.74    0.00    7.55
 1991 315   131   128   91.7    0.0   91.7   0.00   1.32  124.2   53.2   38.5    1.3   1.32   0.73    0.00    7.71
 1991 316   132   129   92.3    0.0   92.3   0.00   1.33  125.0   53.1   39.2    1.3   1.33   0.71    0.00    7.88
 1991 317   133   130   92.8    0.0   92.8   0.00   1.34  125.7   52.9   39.9    1.3   1.34   0.70    0.00    8.04
 1991 318   134   131   93.3    0.0   93.3   0.00   1.35  126.3   52.7   40.6    1.4   1.35   0.70    0.00    8.21
 1991 319   135   132   93.8    0.0   93.8   0.00   1.36  127.0   52.3   41.5    1.4   1.36   0.71    0.00    8.38
 1991 320   136   133   94.3    0.0   94.3   0.00   1.37  127.6   51.9   42.3    1.4   1.37   0.70    0.00    8.55
 1991 321   137   134   95.0    0.0   95.0   0.00   1.38  128.7   51.7   43.3    1.4   1.38   0.70    0.00    8.71
 1991 322   138   135   95.8    0.0   95.8   0.00   1.39  129.8   51.3   44.5    1.4   1.39   0.69    0.00    8.88
 1991 323   139   136   96.5    0.0   96.5   0.00   1.40  130.9   51.0   45.5    1.4   1.40   0.68    0.00    9.06
 1991 324   140   137   97.2    0.0   97.2   0.00   1.42  132.0   50.6   46.6    1.4   1.42   0.67    0.00    9.23
 1991 325   141   138   97.9    0.0   97.9   0.00   1.43  133.0   50.0   47.8    1.4   1.43   0.67    0.00    9.40
 1991 326   142   139   98.4    0.0   98.4   0.00   1.43  133.9   49.3   49.1    1.4   1.43   0.66    0.00    9.58
 1991 327   143   140   99.0    0.0   99.0   0.00   1.43  134.8   48.4   50.6    1.4   1.43   0.67    0.00    9.76
 1991 328   144   141   99.5    0.0   99.5   0.00   1.45  135.7   47.9   51.7    1.4   1.45   0.67    0.00    9.94
 1991 329   145   142  100.1    0.0  100.1   0.00   1.46  136.7   47.3   52.8    1.5   1.46   0.68    0.00   10.12
 1991 330   146   143  100.5    0.0  100.5   0.00   1.47  137.5   46.6   53.9    1.5   1.47   0.69    0.00   10.31
 1991 331   147   144  100.9    1.8   99.1   1.38   1.45  138.2   46.0   53.2    1.5   1.45   0.69    0.00   10.49
 1991 332   148   145  101.3    4.5   96.9   1.38   1.42  138.9   44.9   51.9    1.4   1.42   0.69    0.00   10.68
 1991 333   149   146  101.8    7.2   94.6   1.37   1.39  139.8   43.9   50.7    1.4   1.39   0.70    0.00   10.87
 1991 334   150   147  102.3   10.0   92.3   1.37   1.35  140.7   42.8   49.5    1.4   1.35   0.70    0.00   11.06
 1991 335   151   148  103.0   12.5   90.5   1.36   1.33  141.8   42.0   48.5    1.3   1.33   0.71    0.00   11.25
 1991 336   152   149  103.7   15.2   88.5   1.36   1.30  142.9   41.0   47.4    1.3   1.30   0.71    0.00   11.45
 1991 337   153   150  104.3   18.0   86.4   1.35   1.27  144.0   40.1   46.3    1.3   1.27   0.72    0.00   11.64
 1991 338   154   151  105.0   20.7   84.3   1.35   1.24  145.0   39.1   45.2    1.2   1.24   0.72    0.00   11.84
 1991 339   155   152  105.5   23.3   82.2   1.34   1.21  146.0   38.1   44.1    1.2   1.21   0.73    0.00   12.04
 1991 340   156   153  106.1   26.0   80.1   1.34   1.17  146.9   37.1   42.9    1.2   1.17   0.73    0.00   12.25
 1991 341   157   154  106.8   28.6   78.2   1.33   1.15  148.1   36.2   41.9    1.1   1.15   0.74    0.00   12.45
 1991 342   158   155  107.4   31.2   76.2   1.32   1.12  149.1   35.3   40.8    1.1   1.12   0.75    0.00   12.66
 1991 343   159   156  108.0   33.5   74.5   1.32   1.10  150.0   34.8   39.7    1.1   1.10   0.76    0.00   12.86
 1991 344   160   157  108.4   36.0   72.4   1.31   1.06  150.7   33.6   38.8    1.1   1.06   0.76    0.00   13.07
 1991 345   161   158  109.0   38.5   70.5   1.31   1.03  151.6   32.7   37.8    1.0   1.03   0.77    0.00   13.29
 1991 346   162   159  109.5   40.5   69.0   1.30   1.02  152.5   32.2   36.9    1.0   1.02   0.78    0.00   13.50
 1991 347   163   160  110.1   42.8   67.3   1.29   0.99  153.3   31.2   36.1    1.0   0.99   0.78    0.00   13.71
 1991 348   164   161  110.5   44.6   66.0   1.29   0.97  154.1   30.7   35.3    1.0   0.97   0.79    0.00   13.93
 1991 349   165   162  110.9   46.5   64.5   1.28   0.95  154.7   30.2   34.3    1.0   0.95   0.79    0.00   14.14
 1991 350   166   163  111.3   48.7   62.6   1.27   0.92  155.4   29.2   33.5    0.9   0.92   0.80    0.00   14.36
 1991 351   167   164  111.9   51.0   60.9   1.27   0.89  156.2   28.2   32.6    0.9   0.89   0.80    0.00   14.58
 1991 352   168   165  112.5   53.3   59.2   1.26   0.87  157.1   27.5   31.8    0.9   0.87   0.81    0.00   14.80
 1991 353   169   166  113.0   55.5   57.5   1.25   0.84  157.9   26.7   30.8    0.8   0.84   0.81    0.00   15.02
 1991 354   170   167  113.5   57.7   55.8   1.24   0.82  158.6   25.9   29.9    0.8   0.82   0.81    0.00   15.25
 1991 355   171   168  114.2   59.8   54.4   1.23   0.80  159.7   25.2   29.2    0.8   0.80   0.82    0.00   15.47
 1991 356   172   169  114.9   61.9   53.0   1.22   0.79  160.7   24.8   28.1    0.8   0.79   0.83    0.00   15.70
 1991 357   173   170  115.5   64.0   51.5   1.21   0.76  161.6   24.1   27.5    0.8   0.76   0.84    0.00   15.92
 1991 358   174   171  116.1   66.0   50.0   1.21   0.73  162.4   23.2   26.8    0.7   0.73   0.84    0.00   16.15
 1991 359   175   172  116.8   67.8   48.9   1.20   0.72  163.4   22.7   26.2    0.7   0.72   0.85    0.00   16.38
 1991 360   176   173  117.5   69.1   48.4   1.19   0.71  164.4   22.5   26.0    0.7   0.71   0.85    0.00   16.61
 1991 361   177   174  118.1   70.4   47.8   1.19   0.70  165.3   22.1   25.6    0.7   0.70   0.86    0.00   16.84
 1991 362   178   175  118.9   72.0   46.9   1.18   0.69  166.4   21.7   25.1    0.7   0.69   0.86    0.00   17.08
 1991 363   179   176  119.5   73.8   45.8   1.17   0.67  167.3   21.2   24.5    0.7   0.67   0.87    0.00   17.31
 1991 364   180   177  120.2   75.6   44.6   1.16   0.65  168.2   20.7   23.9    0.7   0.65   0.88    0.00   17.55
 1991 365   181   178  120.8   77.4   43.4   1.15   0.64  169.1   20.3   23.2    0.6   0.64   0.89    0.00   17.79
 1992 001   182   179  121.5   79.1   42.4   1.14   0.64  170.1   20.2   22.2    0.6   0.64   0.90    0.00   18.03
 1992 002   183   180  122.2   80.8   41.3   1.13   0.63  170.9   19.8   21.5    0.6   0.63   0.90    0.00   18.27
 1992 003   184   181  122.2   80.8   41.3   1.13   0.63  171.8   19.8   21.5    0.6   0.63   0.90    0.00   18.27
 1992 004   185   182  122.2   80.8   41.3   1.13   0.63  172.6   19.8   21.5    0.6   0.63   0.90    0.00   18.27
 1992 005   186   183  122.2   80.8   41.3   1.13   0.63  173.5   19.8   21.5    0.6   0.63   0.90    0.00   18.27
 1992 006   187   184  122.2   80.8   41.3   1.13   0.63  174.3   19.8   21.5    0.6   0.63   0.90    0.00   18.27

*DSSAT Cropping System Model Ver. 4.0.2.000               Jul 26, 2016; 12:37:55

*RUN   3        : UYMZ                    
 MODEL          : MZCER040 - Maize           
 EXPERIMENT     : UYMZ0091 MZ    late to create DSS                             
 TREATMENT  1   : UYMZ                    

@YEAR DOY   DAS   DAP   CNAD   GNAD   VNAD   GN%D   VN%D   NUPC   LNAD   SNAD   LN%D   SN%D   RN%D   SNN0C   SNN1C
 1992 187     3     0    0.0    0.0    0.0   0.00   0.00    0.0    0.0    0.0    0.0   0.00   0.00    0.00    0.00
 1992 188     4     1    0.0    0.0    0.0   0.00   0.00    0.0    0.0    0.0    0.0   0.00   0.00    0.00    0.00
 1992 189     5     2    0.0    0.0    0.0   0.00   0.00    0.0    0.0    0.0    0.0   0.00   0.00    0.00    0.00
 1992 190     6     3    0.0    0.0    0.0   0.00   0.00    0.0    0.0    0.0    0.0   0.00   0.00    0.00    0.00
 1992 191     7     4    0.0    0.0    0.0   0.00   0.00    0.0    0.0    0.0    0.0   0.00   0.00    0.00    0.00
 1992 192     8     5    0.0    0.0    0.0   0.00   0.00    0.0    0.0    0.0    0.0   0.00   0.00    0.00    0.00
 1992 193     9     6    0.0    0.0    0.0   0.00   0.00    0.0    0.0    0.0    0.0   0.00   0.00    0.00    0.00
 1992 194    10     7    0.0    0.0    0.0   0.00   0.00    0.0    0.0    0.0    0.0   0.00   0.00    0.00    0.00
 1992 195    11     8    0.0    0.0    0.0   0.00   0.00    0.0    0.0    0.0    0.0   0.00   0.00    0.00    0.00
 1992 196    12     9    0.0    0.0    0.0   0.00   0.00    0.0    0.0    0.0    0.0   0.00   0.00    0.00    0.00
 1992 197    13    10    0.0    0.0    0.0   0.00   0.00    0.0    0.0    0.0    0.0   0.00   0.00    0.00    0.00
 1992 198    14    11    0.0    0.0    0.0   0.00   0.00    0.0    0.0    0.0    0.0   0.00   0.00    0.00    0.00
 1992 199    15    12    0.0    0.0    0.0   0.00   0.00    0.0    0.0    0.0    0.0   0.00   0.00    0.00    0.00
 1992 200    16    13    0.0    0.0    0.0   0.00   0.00    0.0    0.0    0.0    0.0   0.00   0.00    0.00    0.00
 1992 201    17    14    0.0    0.0    0.0   0.00   0.00    0.0    0.0    0.0    0.0   0.00   0.00    0.00    0.00
 1992 202    18    15    0.0    0.0    0.0   0.00   0.00    0.0    0.0    0.0    0.0   0.00   0.00    0.00    0.00
 1992 203    19    16    0.0    0.0    0.0   0.00   0.00    0.0    0.0    0.0    0.0   0.00   0.00    0.00    0.00
 1992 204    20    17    0.0    0.0    0.0   0.00   0.00    0.0    0.0    0.0    0.0   0.00   0.00    0.00    0.00
 1992 205    21    18    0.0    0.0    0.0   0.00   0.00    0.0    0.0    0.0    0.0   0.00   0.00    0.00    0.00
 1992 206    22    19    0.0    0.0    0.0   0.00   0.00    0.0    0.0    0.0    0.0   0.00   0.00    0.00    0.00
 1992 207    23    20    0.0    0.0    0.0   0.00   0.00    0.0    0.0    0.0    0.0   0.00   0.00    0.00    0.00
 1992 208    24    21    0.0    0.0    0.0   0.00   0.00    0.0    0.0    0.0    0.0   0.00   0.00    0.00    0.00
 1992 209    25    22    0.0    0.0    0.0   0.00   0.00    0.0    0.0    0.0    0.0   0.00   0.00    0.00    0.00
 1992 210    26    23    0.0    0.0    0.0   0.00   0.00    0.0    0.0    0.0    0.0   0.00   0.00    0.00    0.00
 1992 211    27    24    0.0    0.0    0.0   0.00   0.00    0.0    0.0    0.0    0.0   0.00   0.00    0.00    0.00
 1992 212    28    25    0.0    0.0    0.0   0.00   0.00    0.0    0.0    0.0    0.0   0.00   0.00    0.00    0.00
 1992 213    29    26    0.0    0.0    0.0   0.00   0.00    0.0    0.0    0.0    0.0   0.00   0.00    0.00    0.00
 1992 214    30    27    0.0    0.0    0.0   0.00   0.00    0.0    0.0    0.0    0.0   0.00   0.00    0.00    0.00
 1992 215    31    28    0.0    0.0    0.0   0.00   0.00    0.0    0.0    0.0    0.0   0.00   0.00    0.00    0.00
 1992 216    32    29    0.0    0.0    0.0   0.00   0.00    0.0    0.0    0.0    0.0   0.00   0.00    0.00    0.00
 1992 217    33    30    0.0    0.0    0.0   0.00   0.00    0.0    0.0    0.0    0.0   0.00   0.00    0.00    0.00
 1992 218    34    31    0.0    0.0    0.0   0.00   0.00    0.0    0.0    0.0    0.0   0.00   0.00    0.00    0.00
 1992 219    35    32    0.0    0.0    0.0   0.00   0.00    0.0    0.0    0.0    0.0   0.00   0.00    0.00    0.00
 1992 220    36    33    0.0    0.0    0.0   0.00   0.00    0.0    0.0    0.0    0.0   0.00   0.00    0.00    0.00
 1992 221    37    34    0.0    0.0    0.0   0.00   0.00    0.0    0.0    0.0    0.0   0.00   0.00    0.00    0.00
 1992 222    38    35    0.0    0.0    0.0   0.00   0.00    0.0    0.0    0.0    0.0   0.00   0.00    0.00    0.00
 1992 223    39    36    0.0    0.0    0.0   0.00   0.00    0.0    0.0    0.0    0.0   0.00   0.00    0.00    0.00
 1992 224    40    37    0.0    0.0    0.0   0.00   0.00    0.0    0.0    0.0    0.0   0.00   0.00    0.00    0.00
 1992 225    41    38    0.0    0.0    0.0   0.00   0.00    0.0    0.0    0.0    0.0   0.00   0.00    0.00    0.00
 1992 226    42    39    0.0    0.0    0.0   0.00   0.00    0.0    0.0    0.0    0.0   0.00   0.00    0.00    0.00
 1992 227    43    40    0.0    0.0    0.0   0.00   0.00    0.0    0.0    0.0    0.0   0.00   0.00    0.00    0.00
 1992 228    44    41    0.0    0.0    0.0   0.00   0.00    0.0    0.0    0.0    0.0   0.00   0.00    0.00    0.00
 1992 229    45    42    1.2    0.0    1.2   0.00   4.40    0.0    0.6    0.6    4.4   4.40   0.00    0.00    0.00
 1992 230    46    43    1.3    0.0    1.3   0.00   4.53    0.2    0.6    0.6    4.5   4.53   1.08    0.00    0.00
 1992 231    47    44    1.3    0.0    1.3   0.00   4.51    0.2    0.6    0.6    4.5   4.51   1.10    0.00    0.00
 1992 232    48    45    1.3    0.0    1.3   0.00   4.50    0.2    0.6    0.6    4.5   4.50   1.11    0.00    0.00
 1992 233    49    46    1.3    0.0    1.3   0.00   4.48    0.2    0.6    0.6    4.5   4.48   1.13    0.00    0.00
 1992 234    50    47    1.2    0.0    1.2   0.00   4.46    0.2    0.6    0.6    4.5   4.46   1.15    0.00    0.00
 1992 235    51    48    1.2    0.0    1.2   0.00   4.46    0.2    0.6    0.6    4.5   4.46   1.10    0.00    0.00
 1992 236    52    49    1.2    0.0    1.2   0.00   4.42    0.2    0.6    0.6    4.4   4.42   1.18    0.00    0.00
 1992 237    53    50    1.2    0.0    1.2   0.00   4.40    0.3    0.6    0.6    4.4   4.40   1.19    0.00    0.01
 1992 238    54    51    1.2    0.0    1.2   0.00   4.38    0.3    0.6    0.6    4.4   4.38   1.19    0.00    0.01
 1992 239    55    52    1.2    0.0    1.2   0.00   4.37    0.4    0.6    0.6    4.4   4.37   1.21    0.00    0.01
 1992 240    56    53    1.2    0.0    1.2   0.00   4.34    0.4    0.6    0.6    4.3   4.34   1.22    0.00    0.01
 1992 241    57    54    1.2    0.0    1.2   0.00   4.04    0.4    0.6    0.6    4.0   4.04   1.16    0.00    0.01
 1992 242    58    55    1.3    0.0    1.3   0.00   3.60    0.5    0.8    0.5    3.6   3.60   1.16    0.00    0.01
 1992 243    59    56    1.5    0.0    1.5   0.00   3.61    0.8    1.0    0.5    3.6   3.61   1.09    0.00    0.02
 1992 244    60    57    1.8    0.0    1.8   0.00   4.02    1.1    1.2    0.6    4.0   4.02   1.17    0.00    0.02
 1992 245    61    58    1.9    0.0    1.9   0.00   4.08    1.2    1.3    0.6    4.1   4.08   1.20    0.00    0.02
 1992 246    62    59    2.0    0.0    2.0   0.00   4.01    1.3    1.4    0.6    4.0   4.01   1.14    0.00    0.02
 1992 247    63    60    2.1    0.0    2.1   0.00   3.93    1.6    1.6    0.6    3.9   3.93   1.30    0.00    0.03
 1992 248    64    61    2.3    0.0    2.3   0.00   3.88    2.0    1.7    0.5    3.9   3.88   1.31    0.00    0.03
 1992 249    65    62    2.5    0.0    2.5   0.00   3.81    2.3    1.9    0.5    3.8   3.81   1.26    0.00    0.04
 1992 250    66    63    2.7    0.0    2.7   0.00   3.82    2.8    2.2    0.5    3.8   3.82   1.25    0.00    0.04
 1992 251    67    64    3.0    0.0    3.0   0.00   3.73    3.2    2.4    0.5    3.7   3.73   1.22    0.00    0.05
 1992 252    68    65    3.3    0.0    3.3   0.00   3.67    3.4    2.8    0.5    3.7   3.67   1.09    0.00    0.05
 1992 253    69    66    3.7    0.0    3.7   0.00   3.66    4.0    3.2    0.5    3.7   3.66   1.15    0.00    0.06
 1992 254    70    67    4.2    0.0    4.2   0.00   3.61    4.6    3.7    0.5    3.6   3.61   1.17    0.00    0.07
 1992 255    71    68    4.7    0.0    4.7   0.00   3.58    5.2    4.2    0.5    3.6   3.58   1.12    0.00    0.08
 1992 256    72    69    5.3    0.0    5.3   0.00   3.67    6.3    4.8    0.5    3.7   3.67   1.23    0.00    0.09
 1992 257    73    70    5.9    0.0    5.9   0.00   3.82    6.9    5.4    0.5    3.8   3.82   1.18    0.00    0.10
 1992 258    74    71    6.2    0.0    6.2   0.00   3.76    7.8    5.7    0.5    3.8   3.76   1.23    0.00    0.11
 1992 259    75    72    6.7    0.0    6.7   0.00   3.65    8.7    6.2    0.5    3.7   3.65   1.23    0.00    0.12
 1992 260    76    73    7.3    0.0    7.3   0.00   3.56    9.4    6.8    0.5    3.6   3.56   1.15    0.00    0.14
 1992 261    77    74    8.1    0.0    8.1   0.00   3.40   10.5    7.7    0.5    3.4   3.40   1.15    0.00    0.16
 1992 262    78    75    9.5    0.0    9.5   0.00   3.73   12.7    8.9    0.5    3.7   3.73   1.26    0.00    0.17
 1992 263    79    76   10.0    0.0   10.0   0.00   3.72   13.9    9.5    0.5    3.7   3.72   1.24    0.00    0.20
 1992 264    80    77   10.5    0.0   10.5   0.00   3.55   15.0   10.0    0.5    3.5   3.55   1.20    0.00    0.22
 1992 265    81    78   11.6    0.0   11.6   0.00   3.57   16.8   11.1    0.5    3.6   3.57   1.19    0.00    0.25
 1992 266    82    79   12.6    0.0   12.6   0.00   3.78   17.4   12.1    0.5    3.8   3.78   1.11    0.00    0.28
 1992 267    83    80   12.7    0.0   12.7   0.00   3.60   18.5   12.2    0.5    3.6   3.60   1.17    0.00    0.31
 1992 268    84    81   14.4    0.0   14.4   0.00   3.90   19.8   13.8    0.5    3.9   3.90   1.10    0.00    0.35
 1992 269    85    82   14.0    0.0   14.0   0.00   3.75   21.1   13.5    0.5    3.7   3.75   1.31    0.00    0.38
 1992 270    86    83   14.0    0.0   14.0   0.00   3.67   21.3   13.5    0.5    3.7   3.67   1.28    0.00    0.42
 1992 271    87    84   14.5    0.0   14.5   0.00   3.58   21.8   14.0    0.5    3.6   3.58   1.16    0.00    0.46
 1992 272    88    85   15.4    0.0   15.4   0.00   3.55   23.4   14.9    0.5    3.6   3.55   1.16    0.00    0.51
 1992 273    89    86   16.6    0.0   16.6   0.00   3.53   25.4   16.1    0.5    3.5   3.53   1.16    0.00    0.55
 1992 274    90    87   18.4    0.0   18.4   0.00   3.49   27.8   17.8    0.5    3.5   3.49   1.14    0.00    0.60
 1992 275    91    88   20.2    0.0   20.2   0.00   3.45   29.4   19.6    0.6    3.5   3.45   1.10    0.00    0.66
 1992 276    92    89   21.8    0.0   21.8   0.00   3.42   31.4   21.2    0.6    3.4   3.42   1.10    0.00    0.71
 1992 277    93    90   23.3    0.0   23.3   0.00   3.39   34.0   22.5    0.7    3.4   3.39   1.14    0.00    0.76
 1992 278    94    91   25.4    0.0   25.4   0.00   3.36   36.6   24.5    0.9    3.4   3.36   1.13    0.00    0.82
 1992 279    95    92   26.8    0.0   26.8   0.00   3.34   37.7   25.8    1.0    3.3   3.34   1.08    0.00    0.88
 1992 280    96    93   28.0    0.0   28.0   0.00   3.37   41.4   27.0    1.1    3.4   3.37   1.21    0.00    0.94
 1992 281    97    94   28.9    0.0   28.9   0.00   3.37   42.9   27.7    1.1    3.4   3.37   1.20    0.00    1.01
 1992 282    98    95   29.7    0.0   29.7   0.00   3.32   44.8   28.4    1.2    3.3   3.32   1.18    0.00    1.09
 1992 283    99    96   31.1    0.0   31.1   0.00   3.29   47.1   29.7    1.4    3.3   3.29   1.15    0.00    1.17
 1992 284   100    97   33.3    0.0   33.3   0.00   3.26   50.5   31.6    1.7    3.3   3.26   1.15    0.00    1.26
 1992 285   101    98   36.1    0.0   36.1   0.00   3.23   53.2   33.9    2.1    3.2   3.23   1.11    0.00    1.35
 1992 286   102    99   38.9    0.0   38.9   0.00   3.20   57.6   36.3    2.6    3.2   3.20   1.13    0.00    1.44
 1992 287   103   100   41.5    0.0   41.5   0.00   3.17   61.8   38.3    3.1    3.2   3.17   1.14    0.00    1.54
 1992 288   104   101   45.2    0.0   45.2   0.00   3.14   66.4   41.2    4.0    3.1   3.14   1.13    0.00    1.65
 1992 289   105   102   47.7    0.0   47.7   0.00   3.09   67.7   43.0    4.7    3.1   3.09   1.07    0.00    1.76
 1992 290   106   103   50.9    0.0   50.9   0.00   3.06   71.0   45.2    5.7    3.1   3.06   1.07    0.00    1.86
 1992 291   107   104   53.7    0.0   53.7   0.00   3.03   76.5   47.1    6.5    3.0   3.03   1.14    0.00    1.97
 1992 292   108   105   55.8    0.0   55.8   0.00   3.02   80.7   48.5    7.2    3.0   3.02   1.15    0.00    2.09
 1992 293   109   106   58.3    0.0   58.3   0.00   2.99   81.8   50.2    8.1    3.0   2.99   1.08    0.00    2.22
 1992 294   110   107   60.5    0.0   60.5   0.00   2.98   87.1   51.6    8.9    3.0   2.98   1.14    0.00    2.34
 1992 295   111   108   62.5    0.0   62.5   0.00   2.96   91.1   52.8    9.7    3.0   2.96   1.14    0.00    2.48
 1992 296   112   109   65.4    0.0   65.4   0.00   2.94   95.3   54.6   10.9    2.9   2.94   1.13    0.00    2.63
 1992 297   113   110   69.8    0.0   69.8   0.00   2.91  100.6   57.1   12.7    2.9   2.91   1.12    0.00    2.78
 1992 298   114   111   75.6    0.0   75.6   0.00   2.87  107.0   60.2   15.4    2.9   2.87   1.10    0.00    2.94
 1992 299   115   112   78.9    0.0   78.9   0.00   2.83  109.2   61.8   17.1    2.8   2.83   1.07    0.00    3.10
 1992 300   116   113   83.9    0.0   83.9   0.00   2.76  116.1   63.9   20.0    2.8   2.76   1.09    0.00    3.26
 1992 301   117   114   88.6    0.0   88.6   0.00   2.53  120.7   69.2   19.4    2.5   2.53   1.08    0.00    3.42
 1992 302   118   115   92.2    0.0   92.2   0.00   2.55  124.1   71.7   20.5    2.5   2.55   1.08    0.00    3.59
 1992 303   119   116   94.2    0.0   94.2   0.00   2.50  126.7   72.5   21.7    2.5   2.50   1.04    0.00    3.75
 1992 304   120   117   95.6    0.0   95.6   0.00   2.45  128.8   72.7   23.0    2.4   2.45   1.01    0.00    3.92
 1992 305   121   118   96.8    0.0   96.8   0.00   2.40  130.5   72.6   24.2    2.4   2.40   0.98    0.00    4.09
 1992 306   122   119   97.7    0.0   97.7   0.00   2.34  131.8   72.2   25.5    2.3   2.34   0.96    0.00    4.26
 1992 307   123   120   98.5    0.0   98.5   0.00   2.29  132.9   71.7   26.8    2.3   2.29   0.95    0.00    4.44
 1992 308   124   121   99.3    0.0   99.3   0.00   2.27  134.0   71.6   27.7    2.3   2.27   0.94    0.00    4.61
 1992 309   125   122   99.9    0.0   99.9   0.00   2.25  134.9   71.5   28.4    2.3   2.25   0.92    0.00    4.79
 1992 310   126   123  100.3    0.0  100.3   0.00   2.23  135.6   71.2   29.1    2.2   2.23   0.90    0.00    4.97
 1992 311   127   124  100.7    0.0  100.7   0.00   2.19  136.2   70.8   29.9    2.2   2.19   0.87    0.00    5.15
 1992 312   128   125  101.0    0.0  101.0   0.00   2.17  136.7   70.4   30.6    2.2   2.17   0.85    0.00    5.33
 1992 313   129   126  101.2    0.0  101.2   0.00   2.14  137.0   70.0   31.2    2.1   2.14   0.84    0.00    5.51
 1992 314   130   127  101.4    0.0  101.4   0.00   2.11  137.4   69.5   31.9    2.1   2.11   0.83    0.00    5.69
 1992 315   131   128  101.6    0.0  101.6   0.00   2.06  137.7   68.5   33.1    2.1   2.06   0.84    0.00    5.88
 1992 316   132   129  101.9    0.0  101.9   0.00   2.03  138.1   68.1   33.8    2.0   2.03   0.84    0.00    6.06
 1992 317   133   130  102.1    0.0  102.1   0.00   2.01  138.4   67.6   34.5    2.0   2.01   0.84    0.00    6.25
 1992 318   134   131  102.2    0.0  102.2   0.00   1.99  138.7   67.3   35.0    2.0   1.99   0.83    0.00    6.43
 1992 319   135   132  102.7    0.0  102.7   0.00   1.96  139.3   66.7   36.0    2.0   1.96   0.83    0.00    6.62
 1992 320   136   133  103.3    0.0  103.3   0.00   1.93  140.3   66.3   37.0    1.9   1.93   0.83    0.00    6.80
 1992 321   137   134  103.8    0.0  103.8   0.00   1.88  141.1   65.5   38.4    1.9   1.88   0.81    0.00    6.99
 1992 322   138   135  104.4    0.0  104.4   0.00   1.85  142.1   64.9   39.5    1.9   1.85   0.79    0.00    7.18
 1992 323   139   136  105.0    0.0  105.0   0.00   1.81  142.9   64.2   40.7    1.8   1.81   0.78    0.00    7.37
 1992 324   140   137  105.4    0.0  105.4   0.00   1.75  143.7   63.1   42.3    1.8   1.75   0.76    0.00    7.56
 1992 325   141   138  105.9    0.0  105.9   0.00   1.68  144.4   61.8   44.1    1.7   1.68   0.76    0.00    7.76
 1992 326   142   139  106.3    0.0  106.3   0.00   1.81  145.0   65.9   40.4    1.8   1.81   0.77    0.00    7.95
 1992 327   143   140  106.6    0.0  106.6   0.00   1.82  145.5   65.6   41.0    1.8   1.82   0.75    0.00    8.15
 1992 328   144   141  106.8    0.0  106.8   0.00   1.83  145.9   65.2   41.6    1.8   1.83   0.74    0.00    8.34
 1992 329   145   142  107.0    0.0  107.0   0.00   1.84  146.3   64.8   42.2    1.8   1.84   0.74    0.00    8.54
 1992 330   146   143  107.1    0.0  107.1   0.00   1.85  146.6   64.3   42.8    1.9   1.85   0.74    0.00    8.74
 1992 331   147   144  107.2    0.0  107.2   0.00   1.86  146.9   63.7   43.5    1.9   1.86   0.74    0.00    8.94
 1992 332   148   145  107.3    0.0  107.3   0.00   1.87  147.1   63.2   44.1    1.9   1.87   0.73    0.00    9.14
 1992 333   149   146  107.4    0.0  107.4   0.00   1.89  147.3   62.7   44.7    1.9   1.89   0.74    0.00    9.34
 1992 334   150   147  107.5    0.0  107.5   0.00   1.90  147.5   62.0   45.5    1.9   1.90   0.74    0.00    9.54
 1992 335   151   148  107.6    0.0  107.6   0.00   1.91  148.0   61.5   46.1    1.9   1.91   0.74    0.00    9.74
 1992 336   152   149  107.6    0.0  107.6   0.00   1.91  148.2   60.3   47.3    1.9   1.91   0.73    0.00    9.94
 1992 337   153   150  107.7    0.0  107.7   0.00   1.91  148.8   59.3   48.4    1.9   1.91   0.72    0.00   10.15
 1992 338   154   151  107.7    0.0  107.7   0.00   1.92  149.4   58.1   49.6    1.9   1.92   0.72    0.00   10.35
 1992 339   155   152  107.8    0.0  107.8   0.00   1.91  150.1   56.8   51.0    1.9   1.91   0.72    0.00   10.56
 1992 340   156   153  107.7    0.0  107.7   0.00   1.91  150.6   55.5   52.3    1.9   1.91   0.73    0.00   10.78
 1992 341   157   154  107.8    2.8  105.0   1.82   1.86  151.3   54.1   50.9    1.9   1.86   0.74    0.00   10.99
 1992 342   158   155  107.8    5.6  102.2   1.76   1.81  151.9   52.6   49.6    1.8   1.81   0.74    0.00   11.21
 1992 343   159   156  108.0    8.5   99.4   1.74   1.76  152.6   51.2   48.2    1.8   1.76   0.75    0.00   11.43
 1992 344   160   157  108.1   11.5   96.6   1.73   1.71  153.2   49.7   46.9    1.7   1.71   0.76    0.00   11.65
 1992 345   161   158  108.2   14.7   93.5   1.72   1.66  153.9   48.2   45.4    1.7   1.66   0.76    0.00   11.88
 1992 346   162   159  108.4   17.6   90.8   1.72   1.61  154.4   46.8   44.1    1.6   1.61   0.76    0.00   12.11
 1992 347   163   160  108.5   19.8   88.7   1.72   1.57  154.8   45.7   43.0    1.6   1.57   0.76    0.00   12.34
 1992 348   164   161  108.6   22.2   86.4   1.73   1.53  155.2   44.5   41.9    1.5   1.53   0.77    0.00   12.57
 1992 349   165   162  108.8   24.4   84.3   1.74   1.50  155.5   43.4   40.9    1.5   1.50   0.77    0.00   12.80
 1992 350   166   163  108.9   26.0   82.9   1.74   1.47  155.9   42.7   40.2    1.5   1.47   0.78    0.00   13.04
 1992 351   167   164  109.0   27.9   81.1   1.74   1.44  156.2   41.8   39.4    1.4   1.44   0.78    0.00   13.27
 1992 352   168   165  109.1   30.2   78.9   1.74   1.40  156.4   40.6   38.3    1.4   1.40   0.79    0.00   13.51
 1992 353   169   166  109.2   32.1   77.1   1.74   1.37  156.7   39.7   37.4    1.4   1.37   0.80    0.00   13.74
 1992 354   170   167  109.3   34.3   74.9   1.74   1.33  156.9   38.6   36.3    1.3   1.33   0.80    0.00   13.98
 1992 355   171   168  109.3   36.1   73.2   1.74   1.30  157.1   37.8   35.4    1.3   1.30   0.81    0.00   14.22
 1992 356   172   169  109.4   38.1   71.3   1.74   1.27  157.3   36.9   34.4    1.3   1.27   0.81    0.00   14.46
 1992 357   173   170  109.5   40.4   69.1   1.73   1.24  157.5   36.1   33.0    1.2   1.24   0.82    0.00   14.69
 1992 358   174   171  109.5   42.9   66.6   1.72   1.21  157.6   35.1   31.6    1.2   1.21   0.82    0.00   14.93
 1992 359   175   172  109.8   44.6   65.3   1.72   1.19  158.3   34.6   30.6    1.2   1.19   0.83    0.00   15.17
 1992 360   176   173  109.9   47.1   62.8   1.71   1.13  158.5   32.9   29.9    1.1   1.13   0.83    0.00   15.41
 1992 361   177   174  110.1   49.4   60.7   1.70   1.08  158.8   31.2   29.4    1.1   1.08   0.83    0.00   15.65
 1992 362   178   175  110.3   51.6   58.6   1.68   1.04  159.2   30.2   28.4    1.0   1.04   0.83    0.00   15.90
 1992 363   179   176  110.4   54.3   56.1   1.67   1.00  159.4   28.9   27.2    1.0   1.00   0.83    0.00   16.14
 1992 364   180   177  110.5   56.8   53.7   1.65   0.97  159.7   28.0   25.7    1.0   0.97   0.84    0.00   16.38
 1992 365   181   178  110.7   59.0   51.7   1.63   0.94  160.1   27.3   24.4    0.9   0.94   0.84    0.00   16.63
 1992 366   182   179  111.1   60.8   50.4   1.62   0.92  160.8   26.8   23.6    0.9   0.92   0.85    0.00   16.87
 1993 001   183   180  111.7   62.7   49.0   1.60   0.91  161.8   26.3   22.7    0.9   0.91   0.86    0.00   17.12
 1993 002   184   181  112.2   64.6   47.6   1.59   0.89  162.7   25.8   21.8    0.9   0.89   0.87    0.00   17.36
 1993 003   185   182  112.7   66.6   46.2   1.57   0.87  163.6   25.3   20.8    0.9   0.87   0.88    0.00   17.61
 1993 004   186   183  113.3   68.8   44.4   1.55   0.84  164.4   24.5   19.9    0.8   0.84   0.89    0.00   17.87
 1993 005   187   184  114.1   71.1   43.0   1.54   0.81  165.7   23.5   19.4    0.8   0.81   0.90    0.00   18.12
 1993 006   188   185  114.7   73.3   41.4   1.52   0.77  166.7   22.4   19.0    0.8   0.77   0.91    0.00   18.37
 1993 007   189   186  115.4   75.4   40.0   1.51   0.75  167.7   21.9   18.1    0.8   0.75   0.92    0.00   18.63
 1993 008   190   187  115.8   77.4   38.4   1.49   0.72  168.2   21.0   17.4    0.7   0.72   0.92    0.00   18.89
 1993 009   191   188  116.2   79.1   37.1   1.48   0.69  168.8   20.1   17.0    0.7   0.69   0.93    0.00   19.15
 1993 010   192   189  116.7   80.9   35.7   1.46   0.66  169.5   19.2   16.5    0.7   0.66   0.93    0.00   19.41
 1993 011   193   190  117.3   82.7   34.6   1.44   0.64  170.4   18.5   16.1    0.6   0.64   0.94    0.00   19.67
 1993 012   194   191  117.3   82.7   34.6   1.44   0.64  171.2   18.5   16.1    0.6   0.64   0.94    0.00   19.67
 1993 013   195   192  117.3   82.7   34.6   1.44   0.64  172.1   18.5   16.1    0.6   0.64   0.94    0.00   19.67
 1993 014   196   193  117.3   82.7   34.6   1.44   0.64  172.9   18.5   16.1    0.6   0.64   0.94    0.00   19.67
