*SOIL N BALANCE - CERES SOIL N&C ROUTINES

*DSSAT Cropping System Model Ver. 4.0.2.000               Aug 03, 2016; 12:24:40

*RUN   1        : UYMZ                    
 MODEL          : MZCER040 - Maize           
 EXPERIMENT     : UYMZ0111 MZ    late to create DSS                             
 TREATMENT  1   : UYMZ                    



                                         INITIAL Year/Doy      FINAL Year/Doy
                                                 1990/191            1991/010
SOIL N BALANCE                                  -----------kg N/ha-----------

   Soil Humus N                                  12327.10            12253.22
   Soil Litter N                                     0.00                8.22
   N in Surface Residue                              0.00                0.00
   Soil NO3                                         63.29               36.45
   Soil NH4                                         21.32               13.40
   Soil Urea                                         0.00                0.00

   Added to / Removed from Soil:
   N in Harvest Residues from Previous Crop          0.00
   N from Organic Applications                       0.00
   N from senesced plant matter                      8.72
   Fertilizer N                                     13.00
   Leached NO3                                                          20.39
   N Denitrified                                                         1.33
   N Uptake From Soil                                                  100.07
   Ammonia volatilization                                                0.34

   Total N balance                               12433.42            12433.42

================================================================================

*DSSAT Cropping System Model Ver. 4.0.2.000               Aug 03, 2016; 12:24:40

*RUN   2        : UYMZ                    
 MODEL          : MZCER040 - Maize           
 EXPERIMENT     : UYMZ0111 MZ    late to create DSS                             
 TREATMENT  1   : UYMZ                    



                                         INITIAL Year/Doy      FINAL Year/Doy
                                                 1991/191            1992/006
SOIL N BALANCE                                  -----------kg N/ha-----------

   Soil Humus N                                  12327.10            12255.16
   Soil Litter N                                     0.00                8.06
   N in Surface Residue                              0.00                0.00
   Soil NO3                                         63.29               38.03
   Soil NH4                                         21.32               15.64
   Soil Urea                                         0.00                0.00

   Added to / Removed from Soil:
   N in Harvest Residues from Previous Crop          0.00
   N from Organic Applications                       0.00
   N from senesced plant matter                      8.47
   Fertilizer N                                     13.00
   Leached NO3                                                          32.91
   N Denitrified                                                         3.53
   N Uptake From Soil                                                   79.46
   Ammonia volatilization                                                0.38

   Total N balance                               12433.18            12433.19

================================================================================

*DSSAT Cropping System Model Ver. 4.0.2.000               Aug 03, 2016; 12:24:40

*RUN   3        : UYMZ                    
 MODEL          : MZCER040 - Maize           
 EXPERIMENT     : UYMZ0111 MZ    late to create DSS                             
 TREATMENT  1   : UYMZ                    



                                         INITIAL Year/Doy      FINAL Year/Doy
                                                 1992/191            1993/015
SOIL N BALANCE                                  -----------kg N/ha-----------

   Soil Humus N                                  12327.10            12253.29
   Soil Litter N                                     0.00               12.80
   N in Surface Residue                              0.00                0.00
   Soil NO3                                         63.29               31.04
   Soil NH4                                         21.32               12.02
   Soil Urea                                         0.00                0.00

   Added to / Removed from Soil:
   N in Harvest Residues from Previous Crop          0.00
   N from Organic Applications                       0.00
   N from senesced plant matter                     15.64
   Fertilizer N                                     13.00
   Leached NO3                                                           8.31
   N Denitrified                                                         0.42
   N Uptake From Soil                                                  122.15
   Ammonia volatilization                                                0.32

   Total N balance                               12440.35            12440.35
