*SOIL-PLANT-ATMOSPHERE MODULE OUTPUT FILE

*DSSAT Cropping System Model Ver. 4.0.2.000               Aug 03, 2016; 12:24:37

*RUN   1        : UYMZ                    
 MODEL          : MZCER040 - Maize           
 EXPERIMENT     : UYMZ0110 MZ    late to create DSS                             
 TREATMENT  1   : UYMZ                    

@YEAR DOY   DAS   SRAA   TMXA   TMNA   EOAA   ETAA   EPAA   ESAA   EFAD   ETAC   EPAC   ESAC   EFAC
 1990 191     0   7.60  13.90   6.30  1.437  1.437  0.000  1.437  0.000    1.4    0.0    1.4    0.0
 1990 192     1  13.70  18.20   5.20  2.729  1.828  0.000  1.828  0.000    3.3    0.0    3.3    0.0
 1990 193     2  13.80  17.60   3.90  2.691  1.252  0.000  1.252  0.000    4.5    0.0    4.5    0.0
 1990 194     3  13.40  19.70   6.00  2.746  2.615  0.000  2.615  0.000    7.1    0.0    7.1    0.0
 1990 195     4   9.40  19.20   7.80  1.945  1.945  0.000  1.945  0.000    9.1    0.0    9.1    0.0
 1990 196     5   6.90  20.00  10.10  1.474  1.460  0.000  1.460  0.000   10.5    0.0   10.5    0.0
 1990 197     6   5.50  15.70  10.10  1.107  1.107  0.000  1.107  0.000   11.6    0.0   11.6    0.0
 1990 198     7   8.40  16.00   9.40  1.687  1.687  0.000  1.687  0.000   13.3    0.0   13.3    0.0
 1990 199     8  12.00  11.20   1.60  2.069  2.069  0.000  2.069  0.000   15.4    0.0   15.4    0.0
 1990 200     9  12.30   8.90  -2.00  1.956  1.956  0.000  1.956  0.000   17.4    0.0   17.4    0.0
 1990 201    10  11.70   8.10  -1.20  1.852  1.852  0.000  1.852  0.000   19.2    0.0   19.2    0.0
 1990 202    11   9.40   8.60  -1.00  1.505  0.952  0.000  0.952  0.000   20.2    0.0   20.2    0.0
 1990 203    12  12.50   8.80  -5.60  1.899  1.899  0.000  1.899  0.000   22.1    0.0   22.1    0.0
 1990 204    13  12.50  13.90  -0.70  2.197  1.709  0.000  1.709  0.000   23.8    0.0   23.8    0.0
 1990 205    14  14.00  14.70   2.10  2.567  1.214  0.000  1.214  0.000   25.0    0.0   25.0    0.0
 1990 206    15  14.70   6.50  -1.00  2.266  0.996  0.000  0.996  0.000   26.0    0.0   26.0    0.0
 1990 207    16  11.00  12.00   4.00  1.972  0.865  0.000  0.865  0.000   26.8    0.0   26.8    0.0
 1990 208    17  13.50  16.00   1.70  2.515  0.775  0.000  0.775  0.000   27.6    0.0   27.6    0.0
 1990 209    18  14.90  10.20   1.10  2.513  0.709  0.000  0.709  0.000   28.3    0.0   28.3    0.0
 1990 210    19  14.20  12.70  -1.10  2.436  0.657  0.000  0.657  0.000   29.0    0.0   29.0    0.0
 1990 211    20  12.80  12.80  -1.00  2.202  0.615  0.000  0.615  0.000   29.6    0.0   29.6    0.0
 1990 212    21  13.00  14.90  -1.90  2.292  0.580  0.000  0.580  0.000   30.2    0.0   30.2    0.0
 1990 213    22  13.00  17.50   3.80  2.529  0.551  0.000  0.551  0.000   30.7    0.0   30.7    0.0
 1990 214    23  14.40  19.90   3.70  2.897  0.525  0.000  0.525  0.000   31.3    0.0   31.3    0.0
 1990 215    24  14.80  21.50   5.00  3.081  0.503  0.000  0.503  0.000   31.8    0.0   31.8    0.0
 1990 216    25  14.80  21.90   5.70  3.118  0.483  0.000  0.483  0.000   32.2    0.0   32.2    0.0
 1990 217    26  14.50  25.90  10.20  3.343  0.466  0.000  0.466  0.000   32.7    0.0   32.7    0.0
 1990 218    27  15.60  23.40  13.90  3.595  0.450  0.000  0.450  0.000   33.2    0.0   33.2    0.0
 1990 219    28  15.20  25.90  14.40  3.625  0.443  0.007  0.436  0.000   33.6    0.0   33.6    0.0
 1990 220    29  12.90  25.00  12.80  3.004  0.435  0.012  0.423  0.000   34.0    0.0   34.0    0.0
 1990 221    30  14.70  20.50  10.30  3.164  1.619  0.019  1.600  0.000   35.7    0.0   35.6    0.0
 1990 222    31  15.10  22.30   8.90  3.287  0.448  0.025  0.422  0.000   36.1    0.1   36.0    0.0
 1990 223    32  15.40  28.00  11.90  3.689  0.445  0.035  0.411  0.000   36.6    0.1   36.5    0.0
 1990 224    33  15.30  28.40  12.10  3.687  0.445  0.045  0.400  0.000   37.0    0.1   36.9    0.0
 1990 225    34  14.50  28.00  12.80  3.493  0.466  0.076  0.390  0.000   37.5    0.2   37.2    0.0
 1990 226    35   5.20  25.80  14.90  1.239  0.421  0.040  0.380  0.000   37.9    0.3   37.6    0.0
 1990 227    36   7.50  15.80  10.50  1.511  1.511  0.067  1.444  0.000   39.4    0.3   39.1    0.0
 1990 228    37  14.80  18.90   8.50  3.053  3.053  0.150  2.904  0.000   42.4    0.5   42.0    0.0
 1990 229    38  16.80  21.40   7.70  3.557  2.874  0.196  2.677  0.000   45.3    0.7   44.6    0.0
 1990 230    39  16.20  20.80   6.00  3.348  2.833  0.211  2.622  0.000   48.2    0.9   47.3    0.0
 1990 231    40  12.80  20.80  10.40  2.749  1.600  0.192  1.408  0.000   49.8    1.1   48.7    0.0
 1990 232    41  17.30  21.00  10.30  3.718  1.388  0.295  1.093  0.000   51.1    1.4   49.8    0.0
 1990 233    42  14.80  20.90   6.70  3.073  1.201  0.275  0.926  0.000   52.3    1.6   50.7    0.0
 1990 234    43  13.00  18.40   8.30  2.644  1.076  0.258  0.818  0.000   53.4    1.9   51.5    0.0
 1990 235    44  17.00  15.60   4.40  3.197  1.077  0.336  0.741  0.000   54.5    2.2   52.3    0.0
 1990 236    45  11.20  18.10   3.70  2.170  0.913  0.230  0.682  0.000   55.4    2.5   52.9    0.0
 1990 237    46  13.00  24.60   9.60  2.900  0.941  0.305  0.636  0.000   56.4    2.8   53.6    0.0
 1990 238    47  16.40  25.50  11.70  3.759  1.048  0.450  0.597  0.000   57.4    3.2   54.2    0.0
 1990 239    48   6.80  17.60   5.50  1.326  1.326  0.183  1.143  0.000   58.7    3.4   55.3    0.0
 1990 240    49  18.80   9.70   2.00  3.125  3.125  0.449  2.677  0.000   61.8    3.9   58.0    0.0
 1990 241    50  17.80  14.60  -1.20  3.104  3.104  0.379  2.725  0.000   65.0    4.2   60.7    0.0
 1990 242    51  16.80  21.80   2.90  3.421  2.377  0.213  2.164  0.000   67.3    4.4   62.9    0.0
 1990 243    52   5.50  11.80   5.50  0.991  0.991  0.065  0.926  0.000   68.3    4.5   63.8    0.0
 1990 244    53  10.70  10.20   0.80  1.785  1.322  0.120  1.202  0.000   69.6    4.6   65.0    0.0
 1990 245    54  17.70  11.60  -2.30  2.925  2.925  0.144  2.781  0.000   72.6    4.8   67.8    0.0
 1990 246    55  19.80  16.80   2.50  3.757  1.516  0.059  1.457  0.000   74.1    4.8   69.2    0.0
 1990 247    56   5.60  16.40   7.10  1.105  1.105  0.021  1.084  0.000   75.2    4.9   70.3    0.0
 1990 248    57   6.00  18.60  13.40  1.291  0.979  0.035  0.944  0.000   76.2    4.9   71.3    0.0
 1990 249    58   5.70  15.40  13.40  1.173  1.173  0.050  1.123  0.000   77.3    4.9   72.4    0.0
 1990 250    59   5.80  15.90  12.80  1.195  1.105  0.055  1.051  0.000   78.4    5.0   73.4    0.0
 1990 251    60   5.80  14.30  10.30  1.141  1.141  0.057  1.083  0.000   79.6    5.1   74.5    0.0
 1990 252    61  19.70  23.50   7.80  4.292  4.292  0.230  4.063  0.000   83.9    5.3   78.6    0.0
 1990 253    62  15.20  27.50  11.60  3.584  2.601  0.274  2.327  0.000   86.5    5.6   80.9    0.0
 1990 254    63   9.60  23.10  10.70  2.122  2.122  0.213  1.909  0.000   88.6    5.8   82.8    0.0
 1990 255    64  17.10  13.80   5.20  3.150  3.150  0.374  2.776  0.000   91.8    6.1   85.6    0.0
 1990 256    65  18.80  11.80   2.70  3.263  2.663  0.448  2.214  0.000   94.4    6.6   87.8    0.0
 1990 257    66  20.40  14.20   0.50  3.594  3.203  0.489  2.714  0.000   97.6    7.1   90.5    0.0
 1990 258    67  21.40  18.40   3.40  4.149  1.884  0.467  1.417  0.000   99.5    7.5   92.0    0.0
 1990 259    68  17.80  21.60   7.90  3.760  1.535  0.437  1.098  0.000  101.0    8.0   93.1    0.0
 1990 260    69  10.60  17.70  10.60  2.171  1.229  0.300  0.929  0.000  102.3    8.3   94.0    0.0
 1990 261    70   9.30  17.90  11.00  1.913  1.913  0.299  1.614  0.000  104.2    8.6   95.6    0.0
 1990 262    71  13.80  17.70  10.00  2.798  2.798  0.500  2.299  0.000  107.0    9.1   97.9    0.0
 1990 263    72   6.40  17.90  13.30  1.338  1.338  0.267  1.071  0.000  108.3    9.4   99.0    0.0
 1990 264    73   6.40  20.50  15.80  1.411  1.376  0.307  1.069  0.000  109.7    9.7  100.0    0.0
 1990 265    74  20.10  18.60   9.20  4.071  4.071  0.960  3.110  0.000  113.8   10.6  103.1    0.0
 1990 266    75  18.60  13.50   5.40  3.366  2.412  0.858  1.555  0.000  116.2   11.5  104.7    0.0
 1990 267    76  22.30  15.00   3.20  4.035  2.209  1.052  1.157  0.000  118.4   12.5  105.9    0.0
 1990 268    77  23.20  16.30   3.10  4.282  2.038  1.074  0.964  0.000  120.4   13.6  106.8    0.0
 1990 269    78  23.40  20.50   5.10  4.682  1.978  1.134  0.844  0.000  122.4   14.7  107.7    0.0
 1990 270    79  21.30  24.00   8.90  4.607  1.971  1.212  0.760  0.000  124.4   16.0  108.4    0.0
 1990 271    80   6.80  21.70  12.20  1.463  1.132  0.435  0.697  0.000  125.5   16.4  109.1    0.0
 1990 272    81  19.30  22.00  11.30  4.124  1.991  1.344  0.647  0.000  127.5   17.7  109.8    0.0
 1990 273    82  19.30  25.20   8.90  4.195  2.100  1.493  0.607  0.000  129.6   19.2  110.4    0.0
 1990 274    83  21.70  28.10  12.90  5.029  2.519  1.946  0.574  0.000  132.1   21.2  110.9    0.0
 1990 275    84  24.20  24.00  11.90  5.266  2.842  2.297  0.545  0.000  135.0   23.5  111.5    0.0
 1990 276    85  21.80  26.60  13.30  4.932  2.851  2.331  0.520  0.000  137.8   25.8  112.0    0.0
 1990 277    86  17.90  30.10  17.50  4.335  2.723  2.225  0.499  0.000  140.5   28.0  112.5    0.0
 1990 278    87   7.10  19.10  17.30  1.499  1.322  0.843  0.480  0.000  141.9   28.9  113.0    0.0
 1990 279    88   9.40  22.70  17.20  2.068  2.068  1.214  0.854  0.000  143.9   30.1  113.8    0.0
 1990 280    89   7.20  21.60  17.70  1.564  1.564  0.966  0.598  0.000  145.5   31.0  114.4    0.0
 1990 281    90  11.50  20.40  13.70  2.374  2.374  1.518  0.855  0.000  147.9   32.6  115.3    0.0
 1990 282    91  23.40  22.30   9.50  4.764  4.764  3.146  1.618  0.000  152.6   35.7  116.9    0.0
 1990 283    92  21.00  22.30  11.30  4.334  4.334  2.936  1.398  0.000  157.0   38.6  118.3    0.0
 1990 284    93   9.00  22.10  14.50  1.900  1.900  1.321  0.579  0.000  158.9   40.0  118.9    0.0
 1990 285    94  25.50  19.40  11.30  5.047  5.047  3.607  1.440  0.000  163.9   43.6  120.3    0.0
 1990 286    95  26.10  21.60   7.60  5.141  5.141  3.738  1.403  0.000  169.0   47.3  121.7    0.0
 1990 287    96  24.80  22.60  11.50  5.114  5.114  3.769  1.345  0.000  174.2   51.1  123.1    0.0
 1990 288    97  25.50  20.10   8.90  4.968  4.968  3.726  1.242  0.000  179.1   54.8  124.3    0.0
 1990 289    98  26.40  20.50   5.00  4.987  4.732  3.781  0.952  0.000  183.9   58.6  125.3    0.0
 1990 290    99  15.20  21.40   8.90  3.009  3.009  2.295  0.715  0.000  186.9   60.9  126.0    0.0
 1990 291   100  24.50  24.40  14.30  5.269  5.269  4.058  1.211  0.000  192.1   64.9  127.2    0.0
 1990 292   101  17.30  24.00  15.30  3.728  3.728  2.918  0.810  0.000  195.9   67.9  128.0    0.0
 1990 293   102  16.40  23.70  15.70  3.528  3.528  2.803  0.725  0.000  199.4   70.7  128.7    0.0
 1990 294   103  22.20  24.00  14.20  4.730  4.730  3.807  0.923  0.000  204.1   74.5  129.7    0.0
 1990 295   104  27.10  24.80  13.10  5.774  5.774  4.693  1.081  0.000  209.9   79.2  130.7    0.0
 1990 296   105  21.10  25.60  13.10  4.537  4.537  3.717  0.820  0.000  214.4   82.9  131.6    0.0
 1990 297   106  20.80  22.20  13.80  4.311  4.311  3.557  0.754  0.000  218.7   86.4  132.3    0.0
 1990 298   107  14.30  24.70  11.80  3.006  3.006  2.490  0.516  0.000  221.8   88.9  132.8    0.0
 1990 299   108  25.10  27.10  16.30  5.627  5.627  4.677  0.950  0.000  227.4   93.6  133.8    0.0
 1990 300   109  19.60  28.30  17.00  4.473  4.287  3.778  0.510  0.000  231.7   97.4  134.3    0.0
 1990 301   110   8.80  23.80  18.50  1.927  1.927  1.640  0.287  0.000  233.6   99.0  134.6    0.0
 1990 302   111  12.20  27.40  20.40  2.826  2.826  2.400  0.426  0.000  236.4  101.4  135.0    0.0
 1990 303   112  26.40  28.80  17.90  6.098  6.098  5.170  0.928  0.000  242.5  106.6  135.9    0.0
 1990 304   113  26.50  23.20  15.80  5.640  5.640  4.775  0.865  0.000  248.2  111.4  136.8    0.0
 1990 305   114  23.10  24.10  16.70  5.009  5.009  4.222  0.787  0.000  253.2  115.6  137.6    0.0
 1990 306   115  20.10  27.00  14.30  4.428  4.428  3.713  0.715  0.000  257.6  119.3  138.3    0.0
 1990 307   116  11.80  28.10  20.80  2.767  2.767  2.308  0.459  0.000  260.4  121.6  138.8    0.0
 1990 308   117  21.00  22.20  10.80  4.241  4.241  3.519  0.722  0.000  264.6  125.1  139.5    0.0
 1990 309   118  28.80  19.00   6.40  5.361  5.361  4.414  0.947  0.000  270.0  129.5  140.4    0.0
 1990 310   119  17.40  21.20   9.80  3.444  3.444  2.808  0.636  0.000  273.4  132.3  141.1    0.0
 1990 311   120  23.40  23.50  13.50  4.925  4.925  3.979  0.947  0.000  278.3  136.3  142.0    0.0
 1990 312   121   8.40  18.40  11.30  1.626  1.626  1.302  0.323  0.000  280.0  137.6  142.3    0.0
 1990 313   122  16.20  22.30  15.10  3.410  3.410  2.704  0.705  0.000  283.4  140.3  143.0    0.0
 1990 314   123  21.20  24.80  13.70  4.552  4.552  3.578  0.974  0.000  287.9  143.9  144.0    0.0
 1990 315   124  23.60  27.00  15.30  5.272  5.272  4.108  1.164  0.000  293.2  148.0  145.2    0.0
 1990 316   125  12.20  24.60  14.20  2.627  2.627  2.031  0.597  0.000  295.8  150.0  145.8    0.0
 1990 317   126  26.70  34.90  18.50  6.674  6.642  5.111  1.532  0.000  302.5  155.2  147.3    0.0
 1990 318   127  15.90  33.00  20.80  3.961  3.961  3.014  0.947  0.000  306.4  158.2  148.2    0.0
 1990 319   128   8.60  23.20  17.30  1.872  1.872  1.403  0.468  0.000  308.3  159.6  148.7    0.0
 1990 320   129  17.60  22.10  12.20  3.627  3.627  2.679  0.949  0.000  311.9  162.3  149.7    0.0
 1990 321   130  28.70  26.10   9.30  6.076  6.076  4.429  1.647  0.000  318.0  166.7  151.3    0.0
 1990 322   131  27.80  29.70  16.50  6.505  6.505  4.681  1.824  0.000  324.5  171.4  153.1    0.0
 1990 323   132  27.10  33.40  21.80  6.863  6.701  4.877  1.824  0.000  331.2  176.2  155.0    0.0
 1990 324   133  12.20  28.00  21.10  2.904  2.904  2.039  0.865  0.000  334.1  178.3  155.8    0.0
 1990 325   134  30.70  28.70  18.80  7.247  6.516  5.028  1.488  0.000  340.6  183.3  157.3    0.0
 1990 326   135  28.10  28.00  15.30  6.414  6.414  4.399  2.015  0.000  347.0  187.7  159.3    0.0
 1990 327   136  29.80  28.20  14.20  6.766  6.160  4.588  1.571  0.000  353.2  192.3  160.9    0.0
 1990 328   137  25.60  28.70  16.80  5.966  5.182  4.019  1.163  0.000  358.4  196.3  162.1    0.0
 1990 329   138  20.10  29.20  18.20  4.762  4.158  3.191  0.967  0.000  362.5  199.5  163.0    0.0
 1990 330   139  22.90  24.90  15.80  5.072  5.072  3.367  1.705  0.000  367.6  202.9  164.7    0.0
 1990 331   140  30.40  21.20  10.00  6.129  6.129  4.028  2.102  0.000  373.7  206.9  166.8    0.0
 1990 332   141  30.90  24.60   9.00  6.458  6.432  4.200  2.232  0.000  380.2  211.1  169.1    0.0
 1990 333   142  31.00  27.10  12.20  6.865  6.865  4.417  2.447  0.000  387.0  215.5  171.5    0.0
 1990 334   143  14.90  26.80  14.90  3.361  3.361  2.140  1.221  0.000  390.4  217.7  172.7    0.0
 1990 335   144  23.40  26.40  14.70  5.250  4.696  3.305  1.391  0.000  395.1  221.0  174.1    0.0
 1990 336   145   9.00  23.50  14.10  1.942  1.942  1.208  0.733  0.000  397.0  222.2  174.9    0.0
 1990 337   146  30.10  22.90  11.40  6.307  6.307  3.878  2.429  0.000  403.3  226.0  177.3    0.0
 1990 338   147  28.70  27.90  10.60  6.360  6.057  3.862  2.194  0.000  409.4  229.9  179.5    0.0
 1990 339   148  16.80  32.30  20.30  4.212  4.212  2.526  1.686  0.000  413.6  232.4  181.2    0.0
 1990 340   149  16.80  25.60  17.50  3.832  3.832  2.268  1.564  0.000  417.4  234.7  182.7    0.0
 1990 341   150  26.90  25.20  16.00  6.041  6.041  3.527  2.514  0.000  423.5  238.2  185.3    0.0
 1990 342   151  30.30  25.00  12.00  6.579  6.579  3.787  2.792  0.000  430.1  242.0  188.0    0.0
 1990 343   152   9.00  19.70  14.20  1.864  1.819  1.057  0.762  0.000  431.9  243.1  188.8    0.0
 1990 344   153   9.10  19.50  15.90  1.909  1.909  1.066  0.843  0.000  433.8  244.1  189.6    0.0
 1990 345   154  24.70  25.00  14.70  5.497  5.497  3.021  2.477  0.000  439.3  247.2  192.1    0.0
 1990 346   155  14.70  22.00  10.50  3.046  3.046  1.647  1.400  0.000  442.3  248.8  193.5    0.0
 1990 347   156  19.00  24.00  14.30  4.173  3.902  2.217  1.685  0.000  446.2  251.0  195.2    0.0
 1990 348   157  29.20  21.90  10.30  6.045  6.045  3.156  2.889  0.000  452.3  254.2  198.1    0.0
 1990 349   158  31.80  27.30  10.90  7.086  5.145  3.633  1.512  0.000  457.4  257.8  199.6    0.0
 1990 350   159  28.70  30.20  13.70  6.770  4.546  3.407  1.139  0.000  462.0  261.2  200.8    0.0
 1990 351   160  14.40  30.10  18.00  3.508  2.685  1.732  0.954  0.000  464.7  263.0  201.7    0.0
 1990 352   161  27.40  25.60  17.30  6.315  6.315  3.056  3.259  0.000  471.0  266.0  205.0    0.0
 1990 353   162  31.40  25.60  14.40  7.081  6.687  3.356  3.331  0.000  477.7  269.4  208.3    0.0
 1990 354   163  31.60  27.10  14.00  7.239  6.318  3.359  2.960  0.000  484.0  272.7  211.3    0.0
 1990 355   164  25.60  29.80  15.90  6.146  4.224  2.789  1.435  0.000  488.2  275.5  212.7    0.0
 1990 356   165  10.00  25.70  19.00  2.348  2.348  1.041  1.307  0.000  490.5  276.6  214.0    0.0
 1990 357   166  19.50  28.40  17.80  4.685  4.685  2.027  2.658  0.000  495.2  278.6  216.7    0.0
 1990 358   167  13.10  24.40  15.50  2.954  2.954  1.247  1.708  0.000  498.2  279.8  218.4    0.0
 1990 359   168  29.40  25.70  12.70  6.593  6.593  2.712  3.881  0.000  504.8  282.5  222.2    0.0
 1990 360   169  31.40  31.30  15.30  7.677  6.001  3.076  2.925  0.000  510.8  285.6  225.2    0.0
 1990 361   170  31.40  31.50  18.00  7.857  4.861  3.065  1.795  0.000  515.6  288.7  227.0    0.0
 1990 362   171  31.40  21.00  13.30  6.698  3.784  2.541  1.242  0.000  519.4  291.2  228.2    0.0
 1990 363   172  29.60  23.30   9.40  6.298  3.332  2.321  1.011  0.000  522.8  293.5  229.2    0.0
 1990 364   173  30.80  27.20  11.40  7.002  3.379  2.504  0.875  0.000  526.1  296.0  230.1    0.0
 1990 365   174  31.50  29.40  14.80  7.554  3.404  2.621  0.782  0.000  529.5  298.7  230.9    0.0
 1991 001   175  24.30  31.60  17.10  6.083  2.760  2.045  0.714  0.000  532.3  300.7  231.6    0.0
 1991 002   176  24.10  29.20  20.30  6.023  2.621  1.960  0.661  0.000  534.9  302.7  232.3    0.0
 1991 003   177  26.70  29.10  17.40  6.531  2.674  2.056  0.618  0.000  537.6  304.7  232.9    0.0
 1991 004   178  31.30  28.60  13.40  7.393  2.832  2.249  0.583  0.000  540.4  307.0  233.5    0.0
 1991 005   179  31.30  28.20  13.80  7.390  2.724  2.171  0.553  0.000  543.2  309.1  234.0    0.0
 1991 006   180  31.30  30.20  13.00  7.525  7.525  2.134  5.390  0.000  550.7  311.3  239.4    0.0
 1991 007   181  29.60  32.40  17.10  7.527  5.584  2.060  3.524  0.000  556.3  313.3  242.9    0.0
 1991 008   182  29.90  34.30  19.30  7.890  3.722  2.082  1.640  0.000  560.0  315.4  244.6    0.0
 1991 009   183   9.90  24.30  21.30  2.375  1.816  0.627  1.189  0.000  561.8  316.1  245.7    0.0
 1991 010   184  27.90  30.80  19.20  7.087  5.103  1.870  3.233  0.000  566.9  317.9  249.0    0.0

*DSSAT Cropping System Model Ver. 4.0.2.000               Aug 03, 2016; 12:24:37

*RUN   2        : UYMZ                    
 MODEL          : MZCER040 - Maize           
 EXPERIMENT     : UYMZ0110 MZ    late to create DSS                             
 TREATMENT  1   : UYMZ                    

@YEAR DOY   DAS   SRAA   TMXA   TMNA   EOAA   ETAA   EPAA   ESAA   EFAD   ETAC   EPAC   ESAC   EFAC
 1991 191     0   7.30  12.70   5.20  1.340  1.340  0.000  1.340  0.000    1.3    0.0    1.3    0.0
 1991 192     1   7.30   9.90   2.10  1.239  1.239  0.000  1.239  0.000    2.6    0.0    2.6    0.0
 1991 193     2   6.40   8.10   1.00  1.040  1.040  0.000  1.040  0.000    3.6    0.0    3.6    0.0
 1991 194     3  11.80   8.20  -1.10  1.874  1.874  0.000  1.874  0.000    5.5    0.0    5.5    0.0
 1991 195     4  11.40  10.00  -1.70  1.855  1.855  0.000  1.855  0.000    7.3    0.0    7.3    0.0
 1991 196     5  12.40  12.60  -2.10  2.100  2.100  0.000  2.100  0.000    9.4    0.0    9.4    0.0
 1991 197     6   8.10  16.00   5.80  1.572  1.011  0.000  1.011  0.000   10.5    0.0   10.5    0.0
 1991 198     7   8.40  22.00   9.90  1.839  1.839  0.000  1.839  0.000   12.3    0.0   12.3    0.0
 1991 199     8   3.90  16.90   8.70  0.788  0.788  0.000  0.788  0.000   13.1    0.0   13.1    0.0
 1991 200     9  10.60  15.00   5.60  2.023  2.023  0.000  2.023  0.000   15.1    0.0   15.1    0.0
 1991 201    10   9.40  24.20  12.80  2.168  2.168  0.000  2.168  0.000   17.3    0.0   17.3    0.0
 1991 202    11   4.00  12.80   8.00  0.756  0.756  0.000  0.756  0.000   18.0    0.0   18.0    0.0
 1991 203    12   4.00   8.40   6.60  0.696  0.696  0.000  0.696  0.000   18.7    0.0   18.7    0.0
 1991 204    13   8.20  10.20   4.80  1.440  1.440  0.000  1.440  0.000   20.2    0.0   20.2    0.0
 1991 205    14  14.00  15.90   2.30  2.620  2.620  0.000  2.620  0.000   22.8    0.0   22.8    0.0
 1991 206    15  14.10  16.80   2.80  2.688  2.389  0.000  2.389  0.000   25.2    0.0   25.2    0.0
 1991 207    16  14.30  24.00   9.10  3.190  3.080  0.000  3.080  0.000   28.3    0.0   28.3    0.0
 1991 208    17  14.40  27.10  10.20  3.369  1.441  0.000  1.441  0.000   29.7    0.0   29.7    0.0
 1991 209    18  13.80  26.30  14.20  3.302  1.109  0.000  1.109  0.000   30.8    0.0   30.8    0.0
 1991 210    19  11.00  25.20  16.10  2.637  0.942  0.006  0.936  0.000   31.7    0.0   31.7    0.0
 1991 211    20   4.20  20.20   8.80  0.889  0.829  0.004  0.825  0.000   32.6    0.0   32.6    0.0
 1991 212    21  11.30  15.40   5.60  2.168  2.168  0.012  2.156  0.000   34.7    0.0   34.7    0.0
 1991 213    22  15.40   6.50   0.50  2.416  2.416  0.015  2.401  0.000   37.2    0.0   37.1    0.0
 1991 214    23  13.80   9.60  -1.80  2.227  1.917  0.009  1.908  0.000   39.1    0.0   39.0    0.0
 1991 215    24  14.00  11.90  -0.90  2.375  2.375  0.004  2.371  0.000   41.5    0.0   41.4    0.0
 1991 216    25   4.40  10.90   4.00  0.775  0.775  0.001  0.774  0.000   42.2    0.1   42.2    0.0
 1991 217    26  14.60  15.00   4.30  2.750  2.750  0.002  2.747  0.000   45.0    0.1   44.9    0.0
 1991 218    27   4.50   9.70   1.90  0.759  0.759  0.001  0.758  0.000   45.7    0.1   45.7    0.0
 1991 219    28   7.50  15.40   2.30  1.393  1.393  0.001  1.391  0.000   47.1    0.1   47.1    0.0
 1991 220    29  11.00  16.70   7.50  2.192  1.448  0.003  1.445  0.000   48.6    0.1   48.5    0.0
 1991 221    30   5.10  15.70  10.40  1.030  1.030  0.002  1.028  0.000   49.6    0.1   49.5    0.0
 1991 222    31   4.80  11.90   8.10  0.896  0.896  0.003  0.893  0.000   50.5    0.1   50.4    0.0
 1991 223    32   7.80  13.10   5.60  1.446  1.446  0.005  1.441  0.000   51.9    0.1   51.9    0.0
 1991 224    33  12.50  15.80   1.50  2.316  1.214  0.009  1.206  0.000   53.2    0.1   53.1    0.0
 1991 225    34  11.60  18.50   7.30  2.366  0.999  0.008  0.991  0.000   54.2    0.1   54.1    0.0
 1991 226    35  15.20  25.70  10.80  3.512  0.877  0.015  0.862  0.000   55.0    0.1   54.9    0.0
 1991 227    36  10.70  25.30  15.40  2.552  0.791  0.018  0.773  0.000   55.8    0.1   55.7    0.0
 1991 228    37  12.60  27.30  14.40  3.050  0.758  0.051  0.707  0.000   56.6    0.2   56.4    0.0
 1991 229    38  16.10  24.70  11.80  3.694  0.762  0.106  0.655  0.000   57.4    0.3   57.1    0.0
 1991 230    39   9.30  23.80  13.60  2.139  0.698  0.084  0.614  0.000   58.0    0.4   57.7    0.0
 1991 231    40  12.70  26.00  10.90  2.932  0.729  0.150  0.579  0.000   58.8    0.5   58.3    0.0
 1991 232    41   9.30  26.00  11.80  2.160  0.688  0.138  0.550  0.000   59.5    0.6   58.8    0.0
 1991 233    42  14.70  26.00  11.60  3.403  0.788  0.264  0.525  0.000   60.3    0.9   59.3    0.0
 1991 234    43  13.80  26.40  14.60  3.283  0.807  0.304  0.502  0.000   61.1    1.2   59.8    0.0
 1991 235    44  16.70  21.60  14.50  3.736  0.898  0.415  0.483  0.000   62.0    1.6   60.3    0.0
 1991 236    45  16.20  20.70   9.90  3.437  0.902  0.436  0.466  0.000   62.9    2.1   60.8    0.0
 1991 237    46  14.10  24.70  11.10  3.177  0.893  0.443  0.450  0.000   63.8    2.5   61.2    0.0
 1991 238    47   5.40  16.90  11.90  1.105  0.609  0.173  0.436  0.000   64.4    2.7   61.7    0.0
 1991 239    48   5.30  16.20  10.20  1.056  1.056  0.177  0.878  0.000   65.4    2.9   62.6    0.0
 1991 240    49  10.80  21.40  12.10  2.344  0.873  0.415  0.458  0.000   66.3    3.3   63.0    0.0
 1991 241    50  10.70  22.80  14.40  2.406  0.909  0.466  0.443  0.000   67.2    3.7   63.5    0.0
 1991 242    51   7.30  24.20  16.00  1.687  0.791  0.362  0.429  0.000   68.0    4.1   63.9    0.0
 1991 243    52   5.50  16.80  11.00  1.104  1.104  0.264  0.840  0.000   69.1    4.4   64.7    0.0
 1991 244    53   9.40  16.10   8.10  1.816  1.816  0.456  1.361  0.000   70.9    4.8   66.1    0.0
 1991 245    54   5.50  17.90  11.20  1.121  1.035  0.291  0.744  0.000   71.9    5.1   66.8    0.0
 1991 246    55  10.50  22.80  14.00  2.332  2.332  0.636  1.696  0.000   74.3    5.7   68.5    0.0
 1991 247    56  18.10  25.80  13.20  4.133  3.343  1.221  2.122  0.000   77.6    7.0   70.7    0.0
 1991 248    57  18.40  27.20  13.90  4.283  2.709  1.381  1.328  0.000   80.3    8.4   72.0    0.0
 1991 249    58   5.70  22.50  16.00  1.270  1.270  0.454  0.816  0.000   81.6    8.8   72.8    0.0
 1991 250    59   5.80  17.20  12.80  1.172  1.172  0.445  0.726  0.000   82.8    9.3   73.5    0.0
 1991 251    60   6.40  17.10  10.50  1.262  1.262  0.503  0.759  0.000   84.0    9.8   74.3    0.0
 1991 252    61  15.60  20.00   8.40  3.134  2.409  1.298  1.111  0.000   86.4   11.1   75.4    0.0
 1991 253    62  17.50  22.00  10.20  3.662  3.662  1.571  2.091  0.000   90.1   12.6   77.5    0.0
 1991 254    63  20.20  25.00  10.80  4.402  3.537  1.988  1.549  0.000   93.6   14.6   79.0    0.0
 1991 255    64  19.90  27.80  14.10  4.592  3.358  2.204  1.155  0.000   97.0   16.8   80.2    0.0
 1991 256    65  15.40  30.70  16.10  3.716  2.869  1.907  0.962  0.000   99.9   18.7   81.1    0.0
 1991 257    66   6.10  21.00   7.80  1.217  1.217  0.672  0.545  0.000  101.1   19.4   81.7    0.0
 1991 258    67   6.20  12.30   8.20  1.095  1.095  0.622  0.473  0.000  102.2   20.0   82.2    0.0
 1991 259    68  11.50  23.50  12.40  2.460  2.460  1.410  1.049  0.000  104.6   21.4   83.2    0.0
 1991 260    69   6.30  21.10  17.10  1.356  1.356  0.814  0.542  0.000  106.0   22.2   83.8    0.0
 1991 261    70  18.90  19.70  13.10  3.853  3.853  2.406  1.447  0.000  109.9   24.6   85.2    0.0
 1991 262    71  21.70  17.30   8.80  4.111  4.111  2.649  1.462  0.000  114.0   27.3   86.7    0.0
 1991 263    72  13.10  22.60   8.30  2.651  2.651  1.735  0.916  0.000  116.6   29.0   87.6    0.0
 1991 264    73  11.00  27.50  12.60  2.449  2.449  1.638  0.811  0.000  119.1   30.7   88.4    0.0
 1991 265    74  20.40  20.30  10.30  4.060  4.060  2.808  1.252  0.000  123.1   33.5   89.6    0.0
 1991 266    75  21.60  16.90   3.20  3.831  3.421  2.694  0.727  0.000  126.5   36.2   90.4    0.0
 1991 267    76  22.30  19.00   4.90  4.156  4.156  2.824  1.332  0.000  130.7   39.0   91.7    0.0
 1991 268    77  20.30  21.10   8.70  4.030  4.030  2.754  1.275  0.000  134.7   41.7   93.0    0.0
 1991 269    78  21.70  23.40   7.80  4.401  4.401  3.047  1.354  0.000  139.1   44.8   94.3    0.0
 1991 270    79  17.70  27.80  13.80  3.977  3.977  2.792  1.185  0.000  143.1   47.6   95.5    0.0
 1991 271    80  22.20  16.10   9.00  4.110  3.934  2.954  0.980  0.000  147.0   50.5   96.5    0.0
 1991 272    81  21.80  18.00   7.50  4.086  3.802  2.948  0.854  0.000  150.8   53.5   97.4    0.0
 1991 273    82  21.10  20.20   9.70  4.158  3.773  3.005  0.768  0.000  154.6   56.5   98.1    0.0
 1991 274    83  19.70  18.40   7.00  3.694  3.388  2.685  0.703  0.000  158.0   59.2   98.8    0.0
 1991 275    84  22.00  18.40   5.70  4.075  4.075  2.965  1.110  0.000  162.1   62.1   99.9    0.0
 1991 276    85  23.00  19.80   3.80  4.268  4.268  3.104  1.164  0.000  166.3   65.2  101.1    0.0
 1991 277    86  19.10  21.70   6.30  3.728  3.728  2.668  1.060  0.000  170.1   67.9  102.2    0.0
 1991 278    87   7.10  13.60  10.60  1.288  1.288  0.924  0.364  0.000  171.4   68.8  102.5    0.0
 1991 279    88  13.30  12.50   7.00  2.291  2.291  1.639  0.652  0.000  173.7   70.5  103.2    0.0
 1991 280    89  14.80  14.20   4.00  2.539  2.539  1.804  0.735  0.000  176.2   72.3  103.9    0.0
 1991 281    90  23.60  16.90   3.90  4.217  4.217  2.945  1.272  0.000  180.4   75.2  105.2    0.0
 1991 282    91  20.30  20.90   7.30  3.968  3.968  2.724  1.244  0.000  184.4   78.0  106.4    0.0
 1991 283    92  24.30  23.10   7.20  4.886  4.886  3.356  1.530  0.000  189.3   81.3  108.0    0.0
 1991 284    93  24.30  25.00   8.70  5.071  4.927  3.492  1.435  0.000  194.2   84.8  109.4    0.0
 1991 285    94  24.40  29.20  12.20  5.510  5.510  3.812  1.698  0.000  199.7   88.6  111.1    0.0
 1991 286    95  21.90  33.00  20.00  5.461  5.461  3.817  1.644  0.000  205.2   92.4  112.7    0.0
 1991 287    96  11.80  32.00  21.10  2.930  2.930  2.086  0.844  0.000  208.1   94.5  113.6    0.0
 1991 288    97   7.50  23.50  17.60  1.648  1.648  1.183  0.464  0.000  209.7   95.7  114.0    0.0
 1991 289    98   7.60  17.80  11.60  1.476  1.476  1.058  0.418  0.000  211.2   96.8  114.5    0.0
 1991 290    99  15.50  16.00   8.40  2.852  2.852  2.028  0.824  0.000  214.1   98.8  115.3    0.0
 1991 291   100  26.30  21.50   8.40  5.224  5.224  3.671  1.552  0.000  219.3  102.5  116.8    0.0
 1991 292   101  26.30  24.60  11.00  5.562  5.562  3.873  1.689  0.000  224.9  106.3  118.5    0.0
 1991 293   102  26.30  24.90  12.50  5.645  5.593  3.998  1.595  0.000  230.4  110.3  120.1    0.0
 1991 294   103  24.40  29.60  14.20  5.611  5.611  3.982  1.629  0.000  236.1  114.3  121.7    0.0
 1991 295   104  20.20  29.90  19.80  4.860  4.860  3.441  1.420  0.000  240.9  117.7  123.2    0.0
 1991 296   105   8.30  19.10  12.60  1.657  1.657  1.168  0.489  0.000  242.6  118.9  123.7    0.0
 1991 297   106   7.90  17.40  10.20  1.510  1.510  1.050  0.460  0.000  244.1  120.0  124.1    0.0
 1991 298   107   7.90  21.30  15.40  1.665  1.665  1.138  0.527  0.000  245.7  121.1  124.6    0.0
 1991 299   108  22.70  24.90  16.30  5.043  5.043  3.395  1.648  0.000  250.8  124.5  126.3    0.0
 1991 300   109  12.20  23.30  14.70  2.627  2.627  1.746  0.881  0.000  253.4  126.2  127.2    0.0
 1991 301   110   8.00  20.10  14.90  1.659  1.659  1.088  0.572  0.000  255.1  127.3  127.7    0.0
 1991 302   111   8.00  16.80  15.20  1.595  1.595  1.030  0.566  0.000  256.7  128.4  128.3    0.0
 1991 303   112   8.10  18.00  14.60  1.634  1.634  1.037  0.597  0.000  258.3  129.4  128.9    0.0
 1991 304   113   8.10  20.70  14.60  1.694  1.694  1.057  0.637  0.000  260.0  130.5  129.5    0.0
 1991 305   114  17.90  22.30  13.70  3.796  3.796  2.330  1.465  0.000  263.8  132.8  131.0    0.0
 1991 306   115  25.50  22.30  12.20  5.345  5.345  3.229  2.117  0.000  269.1  136.0  133.1    0.0
 1991 307   116  20.80  22.80  12.80  4.415  4.410  2.621  1.789  0.000  273.6  138.6  134.9    0.0
 1991 308   117  27.90  25.00  11.90  6.048  6.048  3.529  2.519  0.000  279.6  142.2  137.4    0.0
 1991 309   118  20.90  25.90  13.20  4.634  4.448  2.658  1.790  0.000  284.0  144.8  139.2    0.0
 1991 310   119  11.60  24.30  16.20  2.587  2.587  1.459  1.128  0.000  286.6  146.3  140.4    0.0
 1991 311   120  21.40  22.80  13.70  4.596  4.596  2.550  2.046  0.000  291.2  148.8  142.4    0.0
 1991 312   121  20.00  21.40  12.40  4.178  4.178  2.277  1.901  0.000  295.4  151.1  144.3    0.0
 1991 313   122  27.20  23.90   9.20  5.716  5.021  3.054  1.967  0.000  300.4  154.2  146.3    0.0
 1991 314   123  17.60  25.70  11.30  3.854  3.854  2.017  1.837  0.000  304.3  156.2  148.1    0.0
 1991 315   124  18.50  19.00  10.10  3.685  3.530  1.877  1.653  0.000  307.8  158.1  149.8    0.0
 1991 316   125  27.30  19.00   6.40  5.264  3.804  2.610  1.194  0.000  311.6  160.7  151.0    0.0
 1991 317   126  18.50  21.00   8.40  3.738  2.794  1.809  0.985  0.000  314.4  162.5  151.9    0.0
 1991 318   127   8.50  19.90  12.10  1.751  1.686  0.828  0.858  0.000  316.1  163.3  152.8    0.0
 1991 319   128  11.90  22.20  14.00  2.569  1.957  1.187  0.770  0.000  318.1  164.5  153.6    0.0
 1991 320   129  19.50  23.20  12.10  4.201  2.602  1.897  0.705  0.000  320.7  166.4  154.3    0.0
 1991 321   130  21.50  23.00  11.30  4.594  2.683  2.029  0.654  0.000  323.3  168.4  154.9    0.0
 1991 322   131  23.70  27.00  13.30  5.412  2.952  2.339  0.612  0.000  326.3  170.8  155.5    0.0
 1991 323   132  29.90  21.30  13.80  6.399  6.399  2.709  3.690  0.000  332.7  173.5  159.2    0.0
 1991 324   133  24.60  24.40  13.00  5.441  5.091  2.257  2.835  0.000  337.8  175.7  162.1    0.0
 1991 325   134  29.40  28.60  12.50  6.818  5.786  2.772  3.014  0.000  343.6  178.5  165.1    0.0
 1991 326   135  28.60  33.30  13.80  7.071  4.258  2.820  1.438  0.000  347.8  181.3  166.5    0.0
 1991 327   136  24.90  35.20  18.50  6.562  3.676  2.569  1.107  0.000  351.5  183.9  167.6    0.0
 1991 328   137   8.80  19.10  13.80  1.838  1.648  0.713  0.935  0.000  353.1  184.6  168.6    0.0
 1991 329   138   8.80  18.80  14.20  1.838  1.838  0.708  1.130  0.000  355.0  185.3  169.7    0.0
 1991 330   139  14.10  20.20  12.60  2.958  2.958  1.131  1.827  0.000  357.9  186.4  171.5    0.0
 1991 331   140  22.40  24.20  10.70  4.868  4.868  1.851  3.017  0.000  362.8  188.3  174.5    0.0
 1991 332   141  22.30  29.00  14.90  5.311  5.178  1.997  3.181  0.000  368.0  190.3  177.7    0.0
 1991 333   142  16.00  25.60  19.00  3.783  3.783  1.407  2.376  0.000  371.8  191.7  180.1    0.0
 1991 334   143  30.00  28.20  17.50  7.227  6.849  2.657  4.192  0.000  378.6  194.3  184.3    0.0
 1991 335   144  24.30  27.80  14.60  5.702  5.050  2.072  2.978  0.000  383.7  196.4  187.3    0.0
 1991 336   145  29.40  30.10  14.90  7.103  3.985  2.549  1.436  0.000  387.7  199.0  188.7    0.0
 1991 337   146  15.40  27.50  18.00  3.700  2.418  1.311  1.107  0.000  390.1  200.3  189.8    0.0
 1991 338   147  29.90  31.50  16.10  7.411  3.526  2.592  0.934  0.000  393.6  202.9  190.7    0.0
 1991 339   148  14.60  27.30  18.30  3.511  3.511  1.212  2.300  0.000  397.1  204.1  193.0    0.0
 1991 340   149  29.40  31.80  18.90  7.469  6.979  2.542  4.437  0.000  404.1  206.6  197.5    0.0
 1991 341   150  16.80  27.80  19.00  4.089  4.089  1.372  2.717  0.000  408.2  208.0  200.2    0.0
 1991 342   151  28.30  29.80  17.70  6.980  3.771  2.308  1.463  0.000  412.0  210.3  201.6    0.0
 1991 343   152   9.00  22.80  18.90  2.068  2.068  0.674  1.394  0.000  414.0  211.0  203.0    0.0
 1991 344   153  24.70  27.00  18.80  5.959  5.959  1.911  4.048  0.000  420.0  212.9  207.1    0.0
 1991 345   154  19.50  27.60  17.30  4.686  4.183  1.478  2.705  0.000  424.2  214.4  209.8    0.0
 1991 346   155   9.40  23.80  16.60  2.150  2.150  0.667  1.483  0.000  426.3  215.0  211.3    0.0
 1991 347   156  29.90  28.40  15.10  7.138  7.138  2.177  4.961  0.000  433.5  217.2  216.2    0.0
 1991 348   157   9.40  21.90  16.70  2.105  2.105  0.631  1.474  0.000  435.6  217.8  217.7    0.0
 1991 349   158   9.10  23.50  16.70  2.079  2.079  0.612  1.467  0.000  437.6  218.5  219.2    0.0
 1991 350   159  20.20  26.90  17.10  4.822  4.822  1.392  3.430  0.000  442.5  219.8  222.6    0.0
 1991 351   160  27.60  27.80  17.90  6.702  6.702  1.898  4.804  0.000  449.2  221.7  227.4    0.0
 1991 352   161  26.20  31.10  17.80  6.599  5.171  1.832  3.339  0.000  454.3  223.6  230.8    0.0
 1991 353   162  21.60  31.20  17.50  5.438  5.438  1.479  3.959  0.000  459.8  225.1  234.7    0.0
 1991 354   163  28.80  31.00  18.00  7.266  7.266  1.934  5.332  0.000  467.0  227.0  240.0    0.0
 1991 355   164  23.90  32.40  19.90  6.210  4.640  1.617  3.023  0.000  471.7  228.6  243.1    0.0
 1991 356   165  11.20  27.10  20.30  2.756  2.565  0.701  1.864  0.000  474.2  229.3  244.9    0.0
 1991 357   166  23.80  30.00  19.50  6.017  6.017  1.494  4.522  0.000  480.3  230.8  249.5    0.0
 1991 358   167  27.30  30.80  20.60  7.022  5.485  1.702  3.783  0.000  485.7  232.5  253.2    0.0
 1991 359   168  21.00  25.60  17.40  4.978  3.063  1.177  1.886  0.000  488.8  233.7  255.1    0.0
 1991 360   169  23.90  22.70  13.40  5.300  3.992  1.221  2.771  0.000  492.8  234.9  257.9    0.0
 1991 361   170  29.90  25.20  12.40  6.788  3.573  1.523  2.050  0.000  496.4  236.4  259.9    0.0
 1991 362   171  28.80  26.60  14.90  6.788  2.794  1.482  1.312  0.000  499.2  237.9  261.3    0.0
 1991 363   172  30.80  29.30  14.60  7.478  2.635  1.588  1.047  0.000  501.8  239.5  262.3    0.0
 1991 364   173  23.60  30.40  17.40  5.928  2.121  1.223  0.898  0.000  503.9  240.7  263.2    0.0
 1991 365   174  19.50  33.00  21.10  5.177  1.836  1.037  0.799  0.000  505.8  241.8  264.0    0.0
 1992 001   175  10.80  28.00  20.30  2.703  1.252  0.525  0.726  0.000  507.0  242.3  264.7    0.0
 1992 002   176  19.00  28.60  19.10  4.747  4.747  0.895  3.852  0.000  511.8  243.2  268.6    0.0
 1992 003   177  28.00  23.20  14.20  6.323  5.116  1.156  3.960  0.000  516.9  244.3  272.5    0.0
 1992 004   178  31.30  26.80  14.90  7.424  3.486  1.357  2.129  0.000  520.4  245.7  274.7    0.0
 1992 005   179  30.40  28.90  13.10  7.286  2.662  1.332  1.330  0.000  523.0  247.0  276.0    0.0
 1992 006   180  20.50  27.20  15.70  4.915  1.955  0.898  1.056  0.000  525.0  247.9  277.1    0.0

*DSSAT Cropping System Model Ver. 4.0.2.000               Aug 03, 2016; 12:24:37

*RUN   3        : UYMZ                    
 MODEL          : MZCER040 - Maize           
 EXPERIMENT     : UYMZ0110 MZ    late to create DSS                             
 TREATMENT  1   : UYMZ                    

@YEAR DOY   DAS   SRAA   TMXA   TMNA   EOAA   ETAA   EPAA   ESAA   EFAD   ETAC   EPAC   ESAC   EFAC
 1992 191     0  11.40  19.50   4.90  2.306  1.926  0.000  1.926  0.000    1.9    0.0    1.9    0.0
 1992 192     1  12.30  23.00   9.50  2.718  2.718  0.000  2.718  0.000    4.6    0.0    4.6    0.0
 1992 193     2  12.30  24.20   9.60  2.763  1.514  0.000  1.514  0.000    6.2    0.0    6.2    0.0
 1992 194     3  12.30  24.60  11.90  2.830  0.995  0.000  0.995  0.000    7.2    0.0    7.2    0.0
 1992 195     4   8.30  25.80  13.80  1.968  1.968  0.000  1.968  0.000    9.1    0.0    9.1    0.0
 1992 196     5   3.90  16.50   4.30  0.751  0.751  0.000  0.751  0.000    9.9    0.0    9.9    0.0
 1992 197     6  11.40   7.10   1.00  1.820  1.820  0.000  1.820  0.000   11.7    0.0   11.7    0.0
 1992 198     7   7.10   6.60  -1.50  1.090  1.090  0.000  1.090  0.000   12.8    0.0   12.8    0.0
 1992 199     8  10.20   9.00  -1.80  1.629  1.629  0.000  1.629  0.000   14.4    0.0   14.4    0.0
 1992 200     9  13.50   6.80   3.40  2.205  1.967  0.000  1.967  0.000   16.4    0.0   16.4    0.0
 1992 201    10   4.00  11.20   2.70  0.698  0.698  0.000  0.698  0.000   17.1    0.0   17.1    0.0
 1992 202    11  12.80  16.30   0.20  2.359  2.359  0.000  2.359  0.000   19.4    0.0   19.4    0.0
 1992 203    12  14.10   9.70   2.30  2.390  1.506  0.000  1.506  0.000   20.9    0.0   20.9    0.0
 1992 204    13  10.40   8.40  -1.50  1.649  1.137  0.000  1.137  0.000   22.1    0.0   22.1    0.0
 1992 205    14  14.60   8.40  -1.30  2.321  0.952  0.000  0.952  0.000   23.0    0.0   23.0    0.0
 1992 206    15   9.40  10.50  -0.90  1.558  0.836  0.000  0.836  0.000   23.9    0.0   23.9    0.0
 1992 207    16  10.70  15.20   3.40  2.003  0.754  0.000  0.754  0.000   24.6    0.0   24.6    0.0
 1992 208    17   4.20  11.80   9.50  0.794  0.692  0.000  0.692  0.000   25.3    0.0   25.3    0.0
 1992 209    18  12.50  14.00   5.80  2.355  2.355  0.000  2.355  0.000   27.7    0.0   27.7    0.0
 1992 210    19   4.20  11.10   3.00  0.734  0.734  0.000  0.734  0.000   28.4    0.0   28.4    0.0
 1992 211    20   9.60  16.80   9.10  1.945  1.200  0.000  1.200  0.000   29.6    0.0   29.6    0.0
 1992 212    21   4.30  13.60   7.50  0.819  0.819  0.000  0.819  0.000   30.4    0.0   30.4    0.0
 1992 213    22   6.30   9.40   3.80  1.080  1.080  0.000  1.080  0.000   31.5    0.0   31.5    0.0
 1992 214    23  13.60   8.80   0.20  2.216  1.038  0.000  1.038  0.000   32.5    0.0   32.5    0.0
 1992 215    24  13.70  12.00   0.10  2.354  0.892  0.000  0.892  0.000   33.4    0.0   33.4    0.0
 1992 216    25  13.70  13.70   0.50  2.431  0.795  0.000  0.795  0.000   34.2    0.0   34.2    0.0
 1992 217    26  10.00  12.50   1.20  1.754  0.723  0.000  0.723  0.000   34.9    0.0   34.9    0.0
 1992 218    27  12.80  17.40  -1.30  2.362  0.668  0.000  0.668  0.000   35.6    0.0   35.6    0.0
 1992 219    28  15.20  25.60   6.90  3.397  0.624  0.000  0.624  0.000   36.2    0.0   36.2    0.0
 1992 220    29   4.50  21.40   8.20  0.963  0.588  0.000  0.588  0.000   36.8    0.0   36.8    0.0
 1992 221    30  14.50  10.40   1.40  2.462  1.920  0.000  1.920  0.000   38.8    0.0   38.8    0.0
 1992 222    31  10.20  13.40  -0.60  1.780  0.582  0.000  0.582  0.000   39.3    0.0   39.3    0.0
 1992 223    32   9.40  15.40   7.80  1.844  0.552  0.000  0.552  0.000   39.9    0.0   39.9    0.0
 1992 224    33  15.10  14.90   3.90  2.829  0.527  0.000  0.527  0.000   40.4    0.0   40.4    0.0
 1992 225    34  14.50  15.90   6.10  2.818  0.504  0.000  0.504  0.000   40.9    0.0   40.9    0.0
 1992 226    35  15.60  18.00   2.80  3.027  0.485  0.000  0.485  0.000   41.4    0.0   41.4    0.0
 1992 227    36  14.70  18.40   3.00  2.875  0.467  0.000  0.467  0.000   41.9    0.0   41.9    0.0
 1992 228    37   9.50  19.20   5.70  1.928  0.451  0.000  0.451  0.000   42.3    0.0   42.3    0.0
 1992 229    38  15.30  22.20   8.70  3.323  0.440  0.004  0.437  0.000   42.8    0.0   42.8    0.0
 1992 230    39  12.30  23.20   9.70  2.729  0.430  0.006  0.424  0.000   43.2    0.0   43.2    0.0
 1992 231    40  14.00  20.80   9.20  2.997  0.423  0.011  0.412  0.000   43.6    0.0   43.6    0.0
 1992 232    41  13.40  19.60   7.90  2.789  0.415  0.014  0.401  0.000   44.0    0.0   44.0    0.0
 1992 233    42  13.30  19.40   6.20  2.718  0.407  0.016  0.391  0.000   44.4    0.1   44.4    0.0
 1992 234    43  16.90  23.10   9.50  3.737  0.408  0.026  0.382  0.000   44.8    0.1   44.8    0.0
 1992 235    44   7.80  20.10  13.90  1.723  1.215  0.015  1.200  0.000   46.1    0.1   46.0    0.0
 1992 236    45  17.00  19.30   9.60  3.577  3.577  0.039  3.538  0.000   49.6    0.1   49.5    0.0
 1992 237    46  17.80  21.00   7.10  3.746  0.490  0.046  0.444  0.000   50.1    0.2   49.9    0.0
 1992 238    47  18.00  21.20   5.80  3.753  0.483  0.052  0.430  0.000   50.6    0.2   50.4    0.0
 1992 239    48  17.90  20.30   6.20  3.698  0.487  0.070  0.418  0.000   51.1    0.3   50.8    0.0
 1992 240    49  17.60  25.40   6.30  3.892  0.499  0.093  0.406  0.000   51.6    0.4   51.2    0.0
 1992 241    50  11.50  18.80  11.40  2.437  0.473  0.077  0.396  0.000   52.1    0.5   51.6    0.0
 1992 242    51  14.20  24.40  11.00  3.221  0.509  0.123  0.386  0.000   52.6    0.6   52.0    0.0
 1992 243    52   5.50  20.90  15.20  1.235  0.437  0.060  0.377  0.000   53.0    0.7   52.4    0.0
 1992 244    53   7.20  13.80   9.60  1.395  1.395  0.083  1.312  0.000   54.4    0.7   53.7    0.0
 1992 245    54   7.50  14.00   7.20  1.423  0.600  0.090  0.510  0.000   55.0    0.8   54.2    0.0
 1992 246    55   5.70  14.80   8.60  1.109  0.563  0.074  0.490  0.000   55.6    0.9   54.7    0.0
 1992 247    56  14.90  17.40   7.30  2.970  0.681  0.209  0.472  0.000   56.3    1.1   55.1    0.0
 1992 248    57  18.80  18.80   6.80  3.801  0.745  0.290  0.455  0.000   57.0    1.4   55.6    0.0
 1992 249    58  18.30  21.20   6.10  3.797  0.756  0.315  0.441  0.000   57.8    1.7   56.0    0.0
 1992 250    59  18.30  18.80   8.70  3.759  0.771  0.344  0.427  0.000   58.5    2.1   56.5    0.0
 1992 251    60  17.80  20.60   9.70  3.777  0.792  0.377  0.415  0.000   59.3    2.4   56.9    0.0
 1992 252    61   5.90  20.10  13.60  1.285  0.546  0.142  0.404  0.000   59.9    2.6   57.3    0.0
 1992 253    62  11.20  20.00  13.40  2.429  0.694  0.300  0.394  0.000   60.6    2.9   57.7    0.0
 1992 254    63  12.60  21.60  13.10  2.778  0.765  0.381  0.384  0.000   61.3    3.3   58.1    0.0
 1992 255    64   8.60  21.20  14.90  1.912  1.912  0.292  1.620  0.000   63.2    3.5   59.7    0.0
 1992 256    65  16.90  19.30  12.30  3.578  1.728  0.608  1.120  0.000   65.0    4.2   60.8    0.0
 1992 257    66  10.20  16.70   8.80  2.016  0.818  0.371  0.447  0.000   65.8    4.5   61.3    0.0
 1992 258    67  17.10  20.10   6.20  3.456  1.100  0.667  0.433  0.000   66.9    5.2   61.7    0.0
 1992 259    68  19.70  21.30   9.00  4.144  1.267  0.846  0.420  0.000   68.1    6.0   62.1    0.0
 1992 260    69  12.60  22.60  12.60  2.776  1.018  0.609  0.409  0.000   69.2    6.7   62.5    0.0
 1992 261    70  14.90  26.70  15.20  3.516  1.239  0.841  0.398  0.000   70.4    7.5   62.9    0.0
 1992 262    71  19.80  16.60   9.30  3.890  3.890  1.039  2.851  0.000   74.3    8.5   65.8    0.0
 1992 263    72  21.60  19.30   5.20  4.236  1.599  1.181  0.418  0.000   75.9    9.7   66.2    0.0
 1992 264    73  21.40  25.60   5.90  4.591  1.734  1.328  0.407  0.000   77.6   11.0   66.6    0.0
 1992 265    74  21.20  30.00  10.20  4.961  1.937  1.541  0.396  0.000   79.6   12.6   67.0    0.0
 1992 266    75   6.50  12.70   8.80  1.190  1.190  0.413  0.777  0.000   80.8   13.0   67.8    0.0
 1992 267    76  16.00  18.60   6.50  3.119  3.119  1.104  2.015  0.000   83.9   14.1   69.8    0.0
 1992 268    77   6.60  13.20  10.60  1.237  1.237  0.455  0.782  0.000   85.1   14.6   70.6    0.0
 1992 269    78  21.20  12.50   4.50  3.692  3.692  1.395  2.297  0.000   88.8   15.9   72.9    0.0
 1992 270    79  20.60  14.20   0.80  3.547  3.547  1.322  2.224  0.000   92.3   17.3   75.1    0.0
 1992 271    80  21.70  20.00   4.50  4.264  3.648  1.246  2.402  0.000   96.0   18.5   77.5    0.0
 1992 272    81  23.00  21.40   5.30  4.636  4.102  1.406  2.697  0.000  100.1   19.9   80.2    0.0
 1992 273    82  23.30  23.20   6.10  4.835  2.976  1.561  1.415  0.000  103.1   21.5   81.6    0.0
 1992 274    83  22.50  26.20  10.30  5.014  2.838  1.741  1.097  0.000  105.9   23.2   82.7    0.0
 1992 275    84  12.50  26.40  11.00  2.797  1.998  1.069  0.929  0.000  107.9   24.3   83.6    0.0
 1992 276    85  11.80  21.80  13.00  2.526  2.526  1.051  1.475  0.000  110.4   25.3   85.1    0.0
 1992 277    86  17.90  20.60  11.10  3.701  2.519  1.641  0.878  0.000  113.0   27.0   86.0    0.0
 1992 278    87  18.00  25.50  11.70  3.970  2.634  1.850  0.785  0.000  115.6   28.8   86.8    0.0
 1992 279    88   7.10  18.20  11.80  1.422  1.422  0.706  0.716  0.000  117.0   29.5   87.5    0.0
 1992 280    89  24.40  15.90   7.40  4.533  4.533  2.354  2.180  0.000  121.5   31.9   89.7    0.0
 1992 281    90  21.30  15.60   4.20  3.813  3.459  2.022  1.437  0.000  125.0   33.9   91.1    0.0
 1992 282    91  24.30  19.00   3.40  4.539  4.539  2.395  2.143  0.000  129.5   36.3   93.2    0.0
 1992 283    92  24.30  21.00   6.60  4.814  4.218  2.487  1.730  0.000  133.8   38.8   95.0    0.0
 1992 284    93  25.10  25.30   7.30  5.283  4.049  2.828  1.221  0.000  137.8   41.6   96.2    0.0
 1992 285    94  16.70  27.20   9.20  3.647  3.043  2.043  1.000  0.000  140.9   43.7   97.2    0.0
 1992 286    95  22.70  24.00  12.40  4.877  3.740  2.873  0.868  0.000  144.6   46.5   98.0    0.0
 1992 287    96  25.10  25.60   8.60  5.315  5.315  3.273  2.042  0.000  149.9   49.8  100.1    0.0
 1992 288    97  24.70  29.50  11.40  5.595  5.595  3.571  2.024  0.000  155.5   53.4  102.1    0.0
 1992 289    98   7.60  31.50  15.50  1.811  1.811  1.208  0.603  0.000  157.3   54.6  102.7    0.0
 1992 290    99   9.30  20.50  15.70  1.945  1.945  1.335  0.610  0.000  159.3   55.9  103.3    0.0
 1992 291   100  23.40  21.20  12.00  4.775  4.775  3.374  1.402  0.000  164.0   59.3  104.7    0.0
 1992 292   101  25.90  21.20   7.50  5.072  5.072  3.664  1.408  0.000  169.1   63.0  106.1    0.0
 1992 293   102   9.10  19.80  11.20  1.806  1.806  1.324  0.481  0.000  170.9   64.3  106.6    0.0
 1992 294   103  24.10  18.60  10.30  4.662  4.662  3.476  1.186  0.000  175.6   67.8  107.8    0.0
 1992 295   104  26.10  21.30   5.50  5.009  5.009  3.785  1.225  0.000  180.6   71.6  109.0    0.0
 1992 296   105  24.90  24.50   7.60  5.074  5.074  3.875  1.199  0.000  185.7   75.4  110.2    0.0
 1992 297   106  25.00  27.30  12.00  5.463  5.463  4.233  1.231  0.000  191.1   79.7  111.5    0.0
 1992 298   107  24.60  30.90  14.60  5.710  5.694  4.511  1.183  0.000  196.8   84.2  112.6    0.0
 1992 299   108   9.50  26.40  17.60  2.139  2.139  1.728  0.411  0.000  199.0   85.9  113.1    0.0
 1992 300   109  26.70  27.40  17.30  6.061  6.061  4.955  1.106  0.000  205.0   90.9  114.2    0.0
 1992 301   110  27.40  30.00  15.80  6.325  6.325  5.256  1.070  0.000  211.3   96.1  115.2    0.0
 1992 302   111  10.50  15.30   6.40  1.845  1.845  1.604  0.241  0.000  213.2   97.7  115.5    0.0
 1992 303   112  27.70  21.90   3.90  5.218  5.218  4.562  0.656  0.000  218.4  102.3  116.1    0.0
 1992 304   113  26.80  21.80   6.40  5.159  5.159  4.489  0.670  0.000  223.6  106.8  116.8    0.0
 1992 305   114  26.90  23.80   6.80  5.335  5.335  4.655  0.680  0.000  228.9  111.4  117.5    0.0
 1992 306   115  27.10  27.10   9.00  5.708  5.708  4.990  0.718  0.000  234.6  116.4  118.2    0.0
 1992 307   116  27.30  30.20  13.00  6.156  6.156  5.393  0.763  0.000  240.8  121.8  119.0    0.0
 1992 308   117  21.90  19.80   9.40  4.212  4.212  3.700  0.512  0.000  245.0  125.5  119.5    0.0
 1992 309   118  27.20  14.10   6.50  4.696  4.696  4.115  0.581  0.000  249.7  129.6  120.0    0.0
 1992 310   119  24.50  16.40   2.70  4.217  4.217  3.675  0.542  0.000  253.9  133.3  120.6    0.0
 1992 311   120  27.00  19.20   4.80  4.956  4.956  4.167  0.790  0.000  258.8  137.5  121.4    0.0
 1992 312   121  27.40  21.50   7.30  5.314  5.314  4.444  0.870  0.000  264.2  141.9  122.3    0.0
 1992 313   122  28.00  25.20   8.30  5.750  5.750  4.788  0.962  0.000  269.9  146.7  123.2    0.0
 1992 314   123  28.20  29.80  10.00  6.213  6.213  5.156  1.057  0.000  276.1  151.8  124.3    0.0
 1992 315   124   8.60  22.00  16.00  1.810  1.810  1.499  0.311  0.000  277.9  153.3  124.6    0.0
 1992 316   125  23.60  28.40  16.10  5.365  5.365  4.428  0.938  0.000  283.3  157.8  125.5    0.0
 1992 317   126  28.00  29.50  15.30  6.408  6.408  5.278  1.130  0.000  289.7  163.1  126.6    0.0
 1992 318   127  28.50  27.90  12.90  6.287  6.287  5.166  1.120  0.000  296.0  168.2  127.8    0.0
 1992 319   128  19.40  31.40  14.40  4.508  4.508  3.689  0.819  0.000  300.5  171.9  128.6    0.0
 1992 320   129  23.00  25.50  17.30  5.109  5.109  4.166  0.943  0.000  305.6  176.1  129.5    0.0
 1992 321   130  28.80  20.40  11.50  5.727  5.727  4.649  1.078  0.000  311.3  180.7  130.6    0.0
 1992 322   131  28.20  21.50   7.70  5.506  5.506  4.436  1.070  0.000  316.8  185.2  131.7    0.0
 1992 323   132  28.80  23.90   7.20  5.783  5.783  4.619  1.164  0.000  322.6  189.8  132.8    0.0
 1992 324   133  29.50  28.10  11.20  6.456  6.456  5.112  1.343  0.000  329.1  194.9  134.2    0.0
 1992 325   134  22.20  30.00  13.80  5.071  4.799  3.989  0.810  0.000  333.9  198.9  135.0    0.0
 1992 326   135   8.70  21.20  13.60  1.785  1.785  1.396  0.389  0.000  335.7  200.3  135.4    0.0
 1992 327   136  25.70  19.30  10.00  4.991  4.991  3.854  1.136  0.000  340.7  204.1  136.5    0.0
 1992 328   137  22.10  20.60   6.40  4.231  4.231  3.239  0.992  0.000  344.9  207.4  137.5    0.0
 1992 329   138  24.00  26.00  11.10  5.133  5.133  3.904  1.229  0.000  350.0  211.3  138.7    0.0
 1992 330   139  21.90  23.90  15.40  4.730  4.730  3.576  1.154  0.000  354.7  214.9  139.9    0.0
 1992 331   140  19.00  26.00  14.30  4.174  4.174  3.138  1.036  0.000  358.9  218.0  140.9    0.0
 1992 332   141  30.10  27.20  12.90  6.636  6.602  4.962  1.640  0.000  365.5  223.0  142.6    0.0
 1992 333   142  21.00  27.70  13.50  4.681  4.681  3.482  1.199  0.000  370.2  226.4  143.8    0.0
 1992 334   143  19.80  29.80  16.90  4.642  4.642  3.436  1.207  0.000  374.8  229.9  145.0    0.0
 1992 335   144  21.90  28.00  18.70  5.102  5.102  3.758  1.344  0.000  379.9  233.6  146.3    0.0
 1992 336   145  29.50  23.90  14.00  6.315  6.315  4.630  1.685  0.000  386.3  238.3  148.0    0.0
 1992 337   146  30.20  24.80   8.90  6.269  6.269  4.575  1.694  0.000  392.5  242.8  149.7    0.0
 1992 338   147  26.20  27.40   9.70  5.656  5.548  4.110  1.438  0.000  398.1  246.9  151.1    0.0
 1992 339   148  30.30  29.10  13.50  6.880  6.880  4.978  1.902  0.000  405.0  251.9  153.0    0.0
 1992 340   149  18.70  28.20  13.80  4.213  4.213  3.036  1.177  0.000  409.2  255.0  154.2    0.0
 1992 341   150  25.20  29.60  18.90  5.997  5.997  4.306  1.692  0.000  415.2  259.3  155.9    0.0
 1992 342   151  23.30  26.40  15.40  5.209  5.209  3.714  1.495  0.000  420.4  263.0  157.4    0.0
 1992 343   152  25.40  27.90  14.80  5.755  5.755  4.072  1.683  0.000  426.1  267.0  159.1    0.0
 1992 344   153  21.00  26.70  16.50  4.758  4.642  3.339  1.303  0.000  430.8  270.4  160.4    0.0
 1992 345   154  22.70  27.30  18.10  5.246  5.246  3.649  1.597  0.000  436.0  274.0  162.0    0.0
 1992 346   155  23.20  26.50  15.70  5.218  5.218  3.596  1.622  0.000  441.2  277.6  163.6    0.0
 1992 347   156  29.50  27.30  13.40  6.583  5.974  4.492  1.482  0.000  447.2  282.1  165.1    0.0
 1992 348   157  30.90  30.20  14.90  7.219  6.001  4.874  1.126  0.000  453.2  287.0  166.2    0.0
 1992 349   158  28.90  28.40  15.70  6.660  5.394  4.448  0.946  0.000  458.6  291.4  167.2    0.0
 1992 350   159  30.30  28.00  10.00  6.652  6.652  4.390  2.262  0.000  465.3  295.8  169.4    0.0
 1992 351   160  24.80  29.80  12.50  5.677  5.677  3.700  1.977  0.000  470.9  299.5  171.4    0.0
 1992 352   161  19.40  27.60  17.70  4.510  4.510  2.901  1.609  0.000  475.5  302.4  173.0    0.0
 1992 353   162  29.70  30.40  14.50  6.964  6.006  4.418  1.588  0.000  481.5  306.9  174.6    0.0
 1992 354   163  18.00  30.80  14.60  4.247  4.247  2.655  1.592  0.000  485.7  309.5  176.2    0.0
 1992 355   164  31.80  33.80  18.10  7.962  6.501  4.901  1.600  0.000  492.2  314.4  177.8    0.0
 1992 356   165  25.50  32.40  15.70  6.188  6.188  3.748  2.440  0.000  498.4  318.2  180.2    0.0
 1992 357   166  11.20  29.40  18.60  2.689  2.689  1.601  1.088  0.000  501.1  319.8  181.3    0.0
 1992 358   167  11.20  27.70  20.80  2.685  2.685  1.570  1.116  0.000  503.8  321.3  182.4    0.0
 1992 359   168  27.80  28.90  17.70  6.609  6.609  3.790  2.819  0.000  510.4  325.1  185.3    0.0
 1992 360   169  22.90  27.40  15.10  5.253  5.253  2.953  2.300  0.000  515.6  328.1  187.6    0.0
 1992 361   170  31.40  27.40  13.20  7.105  6.181  3.914  2.267  0.000  521.8  332.0  189.8    0.0
 1992 362   171  31.00  28.00  12.60  7.040  6.174  3.795  2.378  0.000  528.0  335.8  192.2    0.0
 1992 363   172  30.00  32.00  13.10  7.171  5.155  3.780  1.376  0.000  533.1  339.6  193.6    0.0
 1992 364   173   9.10  25.60  19.70  2.129  2.129  1.096  1.033  0.000  535.3  340.7  194.6    0.0
 1992 365   174   9.10  23.30  19.60  2.074  2.074  1.041  1.033  0.000  537.3  341.7  195.6    0.0
 1992 366   175   9.10  20.20  19.20  1.995  1.995  0.975  1.020  0.000  539.3  342.7  196.7    0.0
 1993 001   176   9.10  21.20  19.60  2.029  2.029  0.966  1.063  0.000  541.4  343.6  197.7    0.0
 1993 002   177   9.10  21.80  19.40  2.043  2.043  0.947  1.096  0.000  543.4  344.6  198.8    0.0
 1993 003   178   9.10  21.90  19.70  2.053  2.053  0.925  1.128  0.000  545.5  345.5  200.0    0.0
 1993 004   179  14.90  28.90  19.80  3.652  3.652  1.600  2.052  0.000  549.1  347.1  202.0    0.0
 1993 005   180  23.60  30.80  21.50  5.986  5.986  2.548  3.438  0.000  555.1  349.7  205.4    0.0
 1993 006   181  29.90  32.00  19.70  7.595  6.016  3.139  2.878  0.000  561.1  352.8  208.3    0.0
 1993 007   182  12.50  27.20  20.30  3.030  3.030  1.215  1.815  0.000  564.1  354.0  210.1    0.0
 1993 008   183  20.20  26.60  20.10  4.862  4.862  1.890  2.972  0.000  569.0  355.9  213.1    0.0
 1993 009   184  30.70  26.90  16.00  7.196  6.613  2.712  3.902  0.000  575.6  358.6  217.0    0.0
 1993 010   185  30.90  31.10  16.00  7.607  5.511  2.777  2.734  0.000  581.1  361.4  219.7    0.0
 1993 011   186  31.30  32.20  17.60  7.901  4.210  2.791  1.419  0.000  585.3  364.2  221.2    0.0
 1993 012   187  30.90  32.70  19.60  7.965  3.819  2.721  1.099  0.000  589.2  366.9  222.3    0.0
 1993 013   188  22.70  33.00  20.70  5.923  2.884  1.954  0.929  0.000  592.0  368.9  223.2    0.0
 1993 014   189  17.40  30.10  22.30  4.453  2.290  1.469  0.821  0.000  594.3  370.3  224.0    0.0
 1993 015   190  26.90  30.80  22.50  6.945  6.945  2.292  4.654  0.000  601.3  372.6  228.7    0.0
