*GROWTH ASPECTS OUTPUT FILE

*DSSAT Cropping System Model Ver. 4.0.2.000               Aug 03, 2016; 12:24:37

*RUN   1        : UYMZ                    
 MODEL          : MZCER040 - Maize           
 EXPERIMENT     : UYMZ0110 MZ    late to create DSS                             
 TREATMENT  1   : UYMZ                    

@YEAR DOY   DAS   DAP   L#SD   GSTD   LAID   LWAD   SWAD   GWAD   RWAD   CWAD   G#AD   GWGD   HIAD   PWAD   P#AD   WSPD   WSGD   NSTD   EWSD   LN%D   SH%D   HIPD   PWDD   PWTD     SLAD   CHTD   CWID   RDPD   RL1D   RL2D   RL3D   RL4D   RL5D   RL6D   RL7D   RL8D   RL9D   RL10   CDAD   LDAD   SDAD   SNW0C   SNW1C
 1990 194     3     0    0.0      0   0.00      0      0      0      0      0      0    0.0  0.000      0      0  0.000  0.000  0.000  0.000   0.00   0.00   0.00      0      0      0.0   0.00   0.00   0.03   0.00   0.00   0.00   0.00   0.00   0.00   0.00   0.00   0.00   0.00      0      0      0       0       0
 1990 195     4     1    0.0      0   0.00      0      0      0      0      0      0    0.0  0.000      0      0  0.000  0.000  0.000  0.000   0.00   0.00   0.00      0      0      0.0   0.00   0.00   0.03   0.00   0.00   0.00   0.00   0.00   0.00   0.00   0.00   0.00   0.00      0      0      0       0       0
 1990 196     5     2    0.0      0   0.00      0      0      0      0      0      0    0.0  0.000      0      0  0.000  0.000  0.000  0.000   0.00   0.00   0.00      0      0      0.0   0.00   0.00   0.04   0.00   0.00   0.00   0.00   0.00   0.00   0.00   0.00   0.00   0.00      0      0      0       0       0
 1990 197     6     3    0.0      0   0.00      0      0      0      0      0      0    0.0  0.000      0      0  0.000  0.000  0.000  0.000   0.00   0.00   0.00      0      0      0.0   0.00   0.00   0.05   0.00   0.00   0.00   0.00   0.00   0.00   0.00   0.00   0.00   0.00      0      0      0       0       0
 1990 198     7     4    0.0      0   0.00      0      0      0      0      0      0    0.0  0.000      0      0  0.000  0.000  0.000  0.000   0.00   0.00   0.00      0      0      0.0   0.00   0.00   0.06   0.00   0.00   0.00   0.00   0.00   0.00   0.00   0.00   0.00   0.00      0      0      0       0       0
 1990 199     8     5    0.0      0   0.00      0      0      0      0      0      0    0.0  0.000      0      0  0.000  0.000  0.000  0.000   0.00   0.00   0.00      0      0      0.0   0.00   0.00   0.06   0.00   0.00   0.00   0.00   0.00   0.00   0.00   0.00   0.00   0.00      0      0      0       0       0
 1990 200     9     6    0.0      0   0.00      0      0      0      0      0      0    0.0  0.000      0      0  0.000  0.000  0.000  0.000   0.00   0.00   0.00      0      0      0.0   0.00   0.00   0.06   0.00   0.00   0.00   0.00   0.00   0.00   0.00   0.00   0.00   0.00      0      0      0       0       0
 1990 201    10     7    0.0      0   0.00      0      0      0      0      0      0    0.0  0.000      0      0  0.000  0.000  0.000  0.000   0.00   0.00   0.00      0      0      0.0   0.00   0.00   0.06   0.00   0.00   0.00   0.00   0.00   0.00   0.00   0.00   0.00   0.00      0      0      0       0       0
 1990 202    11     8    0.0      0   0.00      0      0      0      0      0      0    0.0  0.000      0      0  0.000  0.000  0.000  0.000   0.00   0.00   0.00      0      0      0.0   0.00   0.00   0.06   0.00   0.00   0.00   0.00   0.00   0.00   0.00   0.00   0.00   0.00      0      0      0       0       0
 1990 203    12     9    0.0      0   0.00      0      0      0      0      0      0    0.0  0.000      0      0  0.000  0.000  0.000  0.000   0.00   0.00   0.00      0      0      0.0   0.00   0.00   0.06   0.00   0.00   0.00   0.00   0.00   0.00   0.00   0.00   0.00   0.00      0      0      0       0       0
 1990 204    13    10    0.0      0   0.00      0      0      0      0      0      0    0.0  0.000      0      0  0.000  0.000  0.000  0.000   0.00   0.00   0.00      0      0      0.0   0.00   0.00   0.06   0.00   0.00   0.00   0.00   0.00   0.00   0.00   0.00   0.00   0.00      0      0      0       0       0
 1990 205    14    11    0.0      0   0.00      0      0      0      0      0      0    0.0  0.000      0      0  0.000  0.000  0.000  0.000   0.00   0.00   0.00      0      0      0.0   0.00   0.00   0.06   0.00   0.00   0.00   0.00   0.00   0.00   0.00   0.00   0.00   0.00      0      0      0       0       0
 1990 206    15    12    0.0      0   0.00      0      0      0      0      0      0    0.0  0.000      0      0  0.000  0.000  0.000  0.000   0.00   0.00   0.00      0      0      0.0   0.00   0.00   0.06   0.00   0.00   0.00   0.00   0.00   0.00   0.00   0.00   0.00   0.00      0      0      0       0       0
 1990 207    16    13    0.0      0   0.00      0      0      0      0      0      0    0.0  0.000      0      0  0.000  0.000  0.000  0.000   0.00   0.00   0.00      0      0      0.0   0.00   0.00   0.06   0.00   0.00   0.00   0.00   0.00   0.00   0.00   0.00   0.00   0.00      0      0      0       0       0
 1990 208    17    14    0.0      0   0.00      0      0      0      0      0      0    0.0  0.000      0      0  0.000  0.000  0.000  0.000   0.00   0.00   0.00      0      0      0.0   0.00   0.00   0.07   0.00   0.00   0.00   0.00   0.00   0.00   0.00   0.00   0.00   0.00      0      0      0       0       0
 1990 209    18    15    0.0      0   0.00      0      0      0      0      0      0    0.0  0.000      0      0  0.000  0.000  0.000  0.000   0.00   0.00   0.00      0      0      0.0   0.00   0.00   0.07   0.00   0.00   0.00   0.00   0.00   0.00   0.00   0.00   0.00   0.00      0      0      0       0       0
 1990 210    19    16    0.0      0   0.00      0      0      0      0      0      0    0.0  0.000      0      0  0.000  0.000  0.000  0.000   0.00   0.00   0.00      0      0      0.0   0.00   0.00   0.07   0.00   0.00   0.00   0.00   0.00   0.00   0.00   0.00   0.00   0.00      0      0      0       0       0
 1990 211    20    17    0.0      0   0.00      0      0      0      0      0      0    0.0  0.000      0      0  0.000  0.000  0.000  0.000   0.00   0.00   0.00      0      0      0.0   0.00   0.00   0.07   0.00   0.00   0.00   0.00   0.00   0.00   0.00   0.00   0.00   0.00      0      0      0       0       0
 1990 212    21    18    0.0      0   0.00      0      0      0      0      0      0    0.0  0.000      0      0  0.000  0.000  0.000  0.000   0.00   0.00   0.00      0      0      0.0   0.00   0.00   0.07   0.00   0.00   0.00   0.00   0.00   0.00   0.00   0.00   0.00   0.00      0      0      0       0       0
 1990 213    22    19    0.0      0   0.00      0      0      0      0      0      0    0.0  0.000      0      0  0.000  0.000  0.000  0.000   0.00   0.00   0.00      0      0      0.0   0.00   0.00   0.08   0.00   0.00   0.00   0.00   0.00   0.00   0.00   0.00   0.00   0.00      0      0      0       0       0
 1990 214    23    20    0.0      0   0.00      0      0      0      0      0      0    0.0  0.000      0      0  0.000  0.000  0.000  0.000   0.00   0.00   0.00      0      0      0.0   0.00   0.00   0.08   0.00   0.00   0.00   0.00   0.00   0.00   0.00   0.00   0.00   0.00      0      0      0       0       0
 1990 215    24    21    0.0      0   0.00      0      0      0      0      0      0    0.0  0.000      0      0  0.000  0.000  0.000  0.000   0.00   0.00   0.00      0      0      0.0   0.00   0.00   0.09   0.00   0.00   0.00   0.00   0.00   0.00   0.00   0.00   0.00   0.00      0      0      0       0       0
 1990 216    25    22    0.0      0   0.00      0      0      0      0      0      0    0.0  0.000      0      0  0.000  0.000  0.000  0.000   0.00   0.00   0.00      0      0      0.0   0.00   0.00   0.10   0.00   0.00   0.00   0.00   0.00   0.00   0.00   0.00   0.00   0.00      0      0      0       0       0
 1990 217    26    23    0.0      0   0.00      0      0      0      0      0      0    0.0  0.000      0      0  0.000  0.000  0.000  0.000   0.00   0.00   0.00      0      0      0.0   0.00   0.00   0.12   0.00   0.00   0.00   0.00   0.00   0.00   0.00   0.00   0.00   0.00      0      0      0       0       0
 1990 218    27    24    1.0      1   0.00     14     14      0     14     28      0    0.0  0.000      0      0  0.000  0.000  0.012  0.000   4.40   0.00   0.00      0      0     21.0   0.00   0.00   0.13   0.28   0.10   0.00   0.00   0.00   0.00   0.00   0.00   0.00   0.00      0      0      0       0       0
 1990 219    28    25    2.0      1   0.01     14     14      0     14     28      0    0.0  0.000      0      0  0.000  0.000  0.014  0.000   4.52   0.00   0.00      0      0     42.6   0.00   0.00   0.14   0.28   0.10   0.00   0.00   0.00   0.00   0.00   0.00   0.00   0.00      0      0      0       0       0
 1990 220    29    26    2.0      1   0.01     14     14      0     15     28      0    0.0  0.000      0      0  0.000  0.000  0.000  0.000   4.49   0.00   0.00      0      0     64.3   0.00   0.00   0.15   0.29   0.11   0.00   0.00   0.00   0.00   0.00   0.00   0.00   0.00      0      0      0       0       0
 1990 221    30    27    3.0      1   0.01     14     14      0     16     28      0    0.0  0.000      0      0  0.000  0.000  0.000  0.000   4.47   0.00   0.00      0      0     80.2   0.00   0.00   0.16   0.30   0.13   0.00   0.00   0.00   0.00   0.00   0.00   0.00   0.00      0      0      0       0       0
 1990 222    31    28    3.0      1   0.01     14     14      0     18     28      0    0.0  0.000      0      0  0.000  0.000  0.000  0.000   4.45   0.00   0.00      0      0     98.0   0.00   0.00   0.17   0.31   0.14   0.00   0.00   0.00   0.00   0.00   0.00   0.00   0.00      0      0      0       0       0
 1990 223    32    29    3.0      1   0.02     14     14      0     19     28      0    0.0  0.000      0      0  0.000  0.000  0.000  0.000   4.41   0.00   0.00      0      0    128.1   0.00   0.00   0.18   0.32   0.17   0.01   0.00   0.00   0.00   0.00   0.00   0.00   0.00      0      0      0       0       0
 1990 224    33    30    4.0      1   0.03     14     14      0     22     28      0    0.0  0.000      0      0  0.000  0.000  0.000  0.000   4.38   0.00   0.00      0      0    230.1   0.00   0.00   0.19   0.34   0.19   0.01   0.00   0.00   0.00   0.00   0.00   0.00   0.00      0      0      0       0       0
 1990 225    34    31    4.0      1   0.05     14     14      0     26     28      0    0.0  0.000      0      0  0.000  0.000  0.000  0.000   4.33   0.00   0.00      0      0    342.7   0.00   0.00   0.20   0.37   0.23   0.03   0.00   0.00   0.00   0.00   0.00   0.00   0.00      0      0      0       0       1
 1990 226    35    32    4.0      1   0.07     21     14      0     26     35      0    0.0  0.000      0      0  0.000  0.000  0.000  0.000   3.50   0.00   0.00      0      0    317.0   0.00   0.00   0.22   0.38   0.24   0.03   0.00   0.00   0.00   0.00   0.00   0.00   0.00      0      0      0       0       1
 1990 227    36    33    5.0      1   0.07     24     14      0     28     38      0    0.0  0.000      0      0  0.000  0.000  0.000  0.000   3.96   0.00   0.00      0      0    308.3   0.00   0.00   0.22   0.38   0.25   0.04   0.00   0.00   0.00   0.00   0.00   0.00   0.00      0      0      0       0       1
 1990 228    37    34    5.0      1   0.08     28     14      0     35     42      0    0.0  0.000      0      0  0.000  0.000  0.000  0.000   3.88   0.00   0.00      0      0    298.8   0.00   0.00   0.23   0.41   0.33   0.07   0.00   0.00   0.00   0.00   0.00   0.00   0.00      0      0      0       0       1
 1990 229    38    35    5.0      1   0.10     33     14      0     44     47      0    0.0  0.000      0      0  0.000  0.000  0.000  0.000   3.80   0.00   0.00      0      0    288.6   0.00   0.00   0.23   0.45   0.42   0.12   0.00   0.00   0.00   0.00   0.00   0.00   0.00      0      0      0       0       1
 1990 230    39    36    5.0      1   0.11     38     14      0     55     52      0    0.0  0.000      0      0  0.000  0.000  0.000  0.000   3.86   0.00   0.00      0      0    280.7   0.00   0.00   0.24   0.50   0.52   0.17   0.00   0.00   0.00   0.00   0.00   0.00   0.00      0      0      0       0       1
 1990 231    40    37    5.0      1   0.12     44     14      0     63     58      0    0.0  0.000      0      0  0.000  0.000  0.000  0.000   3.75   0.00   0.00      0      0    271.5   0.00   0.00   0.25   0.54   0.59   0.22   0.00   0.00   0.00   0.00   0.00   0.00   0.00      0      0      0       0       1
 1990 232    41    38    5.0      1   0.14     52     14      0     77     66      0    0.0  0.000      0      0  0.000  0.000  0.000  0.000   3.73   0.00   0.00      0      0    262.9   0.00   0.00   0.25   0.60   0.71   0.29   0.00   0.00   0.00   0.00   0.00   0.00   0.00      0      0      0       0       2
 1990 233    42    39    6.0      1   0.15     58     14      0     90     72      0    0.0  0.000      0      0  0.000  0.000  0.000  0.000   3.83   0.00   0.00      0      0    256.8   0.00   0.00   0.26   0.66   0.82   0.37   0.00   0.00   0.00   0.00   0.00   0.00   0.00      0      0      0       0       2
 1990 234    43    40    6.0      1   0.16     64     14      0    102     78      0    0.0  0.000      0      0  0.000  0.000  0.000  0.000   3.86   0.00   0.00      0      0    251.6   0.00   0.00   0.27   0.72   0.92   0.44   0.00   0.00   0.00   0.00   0.00   0.00   0.00      0      0      0       0       3
 1990 235    44    41    6.0      1   0.16     67     14      0    115     81      0    0.0  0.000      0      0  0.000  0.000  0.000  0.000   4.03   0.00   0.00      0      0    243.1   0.00   0.00   0.27   0.78   1.02   0.52   0.00   0.00   0.00   0.00   0.00   0.00   0.00      0      0      0       0       3
 1990 236    45    42    6.0      1   0.16     71     14      0    124     85      0    0.0  0.000      0      0  0.000  0.000  0.000  0.000   3.98   0.00   0.00      0      0    228.2   0.00   0.00   0.27   0.83   1.09   0.58   0.00   0.00   0.00   0.00   0.00   0.00   0.00      0      0      0       0       4
 1990 237    46    43    6.0      1   0.19     83     14      0    135     97      0    0.0  0.000      0      0  0.000  0.000  0.000  0.000   3.63   0.00   0.00      0      0    223.7   0.00   0.00   0.28   0.88   1.17   0.65   0.00   0.00   0.00   0.00   0.00   0.00   0.00      0      0      0       0       4
 1990 238    47    44    7.0      1   0.22     99     14      0    152    113      0    0.0  0.000      0      0  0.000  0.000  0.000  0.000   3.54   0.00   0.00      0      0    218.5   0.00   0.00   0.29   0.97   1.29   0.76   0.00   0.00   0.00   0.00   0.00   0.00   0.00      0      0      0       0       5
 1990 239    48    45    7.0      1   0.23    105     14      0    158    119      0    0.0  0.000      0      0  0.000  0.000  0.000  0.000   3.92   0.00   0.00      0      0    216.3   0.00   0.00   0.29   0.95   1.30   0.79   0.00   0.00   0.00   0.00   0.00   0.00   0.00      0      0      0       0       6
 1990 240    49    46    7.0      1   0.19    105     14      0    162    119      0    0.0  0.000      0      0  0.000  0.000  0.000  0.000   4.11   0.00   0.00      0      0    181.7   0.00   0.00   0.29   0.94   1.31   0.81   0.00   0.00   0.00   0.00   0.00   0.00   0.00      0      0      0       0       7
 1990 241    50    47    7.0      1   0.09    107     14      0    172    121      0    0.0  0.000      0      0  0.000  0.000  0.000  0.000   4.03   0.00   0.00      0      0     87.5   0.00   0.00   0.30   0.95   1.38   0.89   0.00   0.00   0.00   0.00   0.00   0.00   0.00      0      0      0       0       7
 1990 242    51    48    7.0      1   0.10    116     14      0    180    130      0    0.0  0.000      0      0  0.000  0.000  0.000  0.000   3.76   0.00   0.00      0      0     85.7   0.00   0.00   0.30   0.97   1.43   0.95   0.00   0.00   0.00   0.00   0.00   0.00   0.00      0      0      0       0       7
 1990 243    52    49    7.0      1   0.10    117     14      0    180    131      0    0.0  0.000      0      0  0.000  0.000  0.008  0.000   4.05   0.00   0.00      0      0     86.5   0.00   0.00   0.30   0.95   1.41   0.94   0.00   0.00   0.00   0.00   0.00   0.00   0.00      0      0      0       0       7
 1990 244    53    50    7.0      1   0.07    117     14      0    180    131      0    0.0  0.000      0      0  0.000  0.000  0.000  0.000   4.09   0.00   0.00      0      0     63.1   0.00   0.00   0.30   0.94   1.40   0.94   0.00   0.00   0.00   0.00   0.00   0.00   0.00      0      0      0       0       8
 1990 245    54    51    7.0      1   0.02    117     14      0    180    131      0    0.0  0.000      0      0  0.000  0.000  0.000  0.000   4.08   0.00   0.00      0      0     19.8   0.00   0.00   0.30   0.94   1.40   0.94   0.00   0.00   0.00   0.00   0.00   0.00   0.00      0      0      0       0       9
 1990 246    55    52    7.0      1   0.03    122     14      0    180    136      0    0.0  0.000      0      0  0.000  0.000  0.000  0.000   3.93   0.00   0.00      0      0     23.0   0.00   0.00   0.30   0.93   1.39   0.94   0.00   0.00   0.00   0.00   0.00   0.00   0.00      0      0      0       0       9
 1990 247    56    53    7.0      1   0.04    129     14      0    180    143      0    0.0  0.000      0      0  0.000  0.000  0.000  0.000   3.89   0.00   0.00      0      0     30.8   0.00   0.00   0.30   0.93   1.39   0.94   0.00   0.00   0.00   0.00   0.00   0.00   0.00      0      0      0       0      10
 1990 248    57    54    7.0      1   0.06    131     14      0    179    145      0    0.0  0.000      0      0  0.000  0.000  0.000  0.000   4.00   0.00   0.00      0      0     48.4   0.00   0.00   0.31   0.92   1.38   0.94   0.00   0.00   0.00   0.00   0.00   0.00   0.00      0      0      0       0      11
 1990 249    58    55    7.0      1   0.07    134     14      0    179    148      0    0.0  0.000      0      0  0.000  0.000  0.000  0.000   3.96   0.00   0.00      0      0     51.5   0.00   0.00   0.31   0.92   1.38   0.94   0.00   0.00   0.00   0.00   0.00   0.00   0.00      0      0      0       0      12
 1990 250    59    56    8.0      1   0.08    137     14      0    179    151      0    0.0  0.000      0      0  0.000  0.000  0.000  0.000   3.94   0.00   0.00      0      0     54.9   0.00   0.00   0.32   0.92   1.38   0.94   0.00   0.00   0.00   0.00   0.00   0.00   0.00      0      0      0       0      13
 1990 251    60    57    8.0      1   0.08    140     14      0    179    154      0    0.0  0.000      0      0  0.000  0.000  0.000  0.000   3.95   0.00   0.00      0      0     57.5   0.00   0.00   0.32   0.90   1.35   0.92   0.00   0.00   0.00   0.00   0.00   0.00   0.00      0      0      0       0      14
 1990 252    61    58    8.0      1   0.12    159     14      0    181    173      0    0.0  0.000      0      0  0.000  0.000  0.000  0.000   3.55   0.00   0.00      0      0     73.0   0.00   0.00   0.33   0.89   1.35   0.93   0.00   0.00   0.00   0.00   0.00   0.00   0.00      0      0      0       0      15
 1990 253    62    59    8.0      1   0.15    180     14      0    184    194      0    0.0  0.000      0      0  0.000  0.000  0.000  0.000   3.54   0.00   0.00      0      0     85.6   0.00   0.00   0.34   0.88   1.36   0.95   0.00   0.00   0.00   0.00   0.00   0.00   0.00      0      0      0       0      16
 1990 254    63    60    8.0      1   0.18    197     14      0    186    211      0    0.0  0.000      0      0  0.000  0.000  0.000  0.001   3.63   0.00   0.00      0      0     93.5   0.00   0.00   0.35   0.84   1.31   0.93   0.00   0.00   0.00   0.00   0.00   0.00   0.00      0      0      0       0      16
 1990 255    64    61    8.0      1   0.22    216     14      0    189    230      0    0.0  0.000      0      0  0.000  0.000  0.000  0.001   3.62   0.00   0.00      0      0     99.8   0.00   0.00   0.35   0.81   1.29   0.93   0.01   0.00   0.00   0.00   0.00   0.00   0.00      0      0      0       0      17
 1990 256    65    62    9.0      1   0.21    230     14      0    191    244      0    0.0  0.000      0      0  0.000  0.000  0.000  0.000   3.71   0.00   0.00      0      0     92.8   0.00   0.00   0.35   0.80   1.28   0.93   0.01   0.00   0.00   0.00   0.00   0.00   0.00      0      0      0       0      18
 1990 257    66    63    9.0      1   0.17    252     14      0    194    266      0    0.0  0.000      0      0  0.000  0.000  0.000  0.000   3.62   0.00   0.00      0      0     69.2   0.00   0.00   0.36   0.79   1.28   0.95   0.01   0.00   0.00   0.00   0.00   0.00   0.00      0      0      0       0      19
 1990 258    67    64    9.0      1   0.18    286     14      0    200    300      0    0.0  0.000      0      0  0.000  0.000  0.000  0.000   3.48   0.00   0.00      0      0     63.1   0.00   0.00   0.36   0.79   1.31   1.00   0.02   0.00   0.00   0.00   0.00   0.00   0.00      0      0      0       0      20
 1990 259    68    65    9.0      1   0.22    310     14      0    213    324      0    0.0  0.000      0      0  0.000  0.000  0.000  0.000   3.62   0.00   0.00      0      0     69.9   0.00   0.00   0.37   0.79   1.37   1.11   0.03   0.00   0.00   0.00   0.00   0.00   0.00      0      0      0       0      21
 1990 260    69    66    9.0      1   0.25    331     14      0    217    345      0    0.0  0.000      0      0  0.000  0.000  0.000  0.000   3.66   0.00   0.00      0      0     74.9   0.00   0.00   0.37   0.79   1.39   1.15   0.04   0.00   0.00   0.00   0.00   0.00   0.00      0      0      0       0      22
 1990 261    70    67    9.0      2   0.29    329     14      0    234    343      0    0.0  0.000      0      0  0.000  0.000  0.000  0.008   3.90   0.00   0.00      0      0     87.2   0.00   0.00   0.38   0.75   1.39   1.23   0.06   0.00   0.00   0.00   0.00   0.00   0.00      0      0      0       0      23
 1990 262    71    68    9.0      2   0.32    353     14      0    249    367      0    0.0  0.000      0      0  0.000  0.000  0.002  0.007   3.64   0.00   0.00      0      0     91.9   0.00   0.00   0.39   0.73   1.41   1.32   0.08   0.00   0.00   0.00   0.00   0.00   0.00      0      0      0       0      25
 1990 263    72    69   10.0      2   0.36    374     14      0    251    388      0    0.0  0.000      0      0  0.000  0.000  0.000  0.005   3.61   0.00   0.00      0      0     95.5   0.00   0.00   0.39   0.71   1.39   1.33   0.08   0.00   0.00   0.00   0.00   0.00   0.00      0      0      0       0      26
 1990 264    73    70   10.0      2   0.39    397     14      0    255    411      0    0.0  0.000      0      0  0.000  0.000  0.000  0.003   3.78   0.00   0.00      0      0     98.8   0.00   0.00   0.40   0.70   1.39   1.35   0.09   0.00   0.00   0.00   0.00   0.00   0.00      0      0      0       0      27
 1990 265    74    71   10.0      3   0.43    426     14      0    298    440      0    0.0  0.000      0      0  0.000  0.000  0.022  0.001   3.68   0.00   0.00      0      0    100.6   0.00   0.00   0.41   0.70   1.55   1.71   0.17   0.00   0.00   0.00   0.00   0.00   0.00      0      0      0       0      28
 1990 266    75    72   10.0      3   0.44    435     14      0    323    449      0    0.0  0.000      0      0  0.000  0.000  0.022  0.000   3.66   0.00   0.00      0      0    101.3   0.00   0.00   0.41   0.70   1.64   1.92   0.22   0.00   0.00   0.00   0.00   0.00   0.00      0      0      0       0      30
 1990 267    76    73   10.0      3   0.42    446     14      0    358    460      0    0.0  0.000      0      0  0.000  0.000  0.022  0.000   3.65   0.00   0.00      0      0     94.4   0.00   0.00   0.41   0.70   1.77   2.22   0.30   0.00   0.00   0.00   0.00   0.00   0.00      0      0      0       0      31
 1990 268    77    74   10.0      3   0.40    460     14      0    398    474      0    0.0  0.000      0      0  0.000  0.000  0.022  0.000   3.63   0.00   0.00      0      0     87.9   0.00   0.00   0.42   0.70   1.91   2.56   0.39   0.00   0.00   0.00   0.00   0.00   0.00      0      0      0       0      33
 1990 269    78    75   10.0      3   0.45    491     14      0    451    505      0    0.0  0.000      0      0  0.000  0.000  0.022  0.000   3.56   0.00   0.00      0      0     90.7   0.00   0.00   0.42   0.71   2.10   3.01   0.51   0.00   0.00   0.00   0.00   0.00   0.00      0      0      0       0      35
 1990 270    79    76   11.0      3   0.51    540     15      0    493    555      0    0.0  0.000      0      0  0.000  0.000  0.022  0.000   3.53   0.00   0.00      0      0     95.3   0.00   0.00   0.43   0.73   2.25   3.36   0.62   0.00   0.00   0.00   0.00   0.00   0.00      0      0      0       0      37
 1990 271    80    77   11.0      3   0.58    584     16      0    493    600      0    0.0  0.000      0      0  0.000  0.000  0.022  0.000   3.50   0.00   0.00      0      0     98.5   0.00   0.00   0.44   0.72   2.25   3.36   0.62   0.00   0.00   0.00   0.00   0.00   0.00      0      0      0       0      40
 1990 272    81    78   11.0      3   0.64    633     17      0    543    650      0    0.0  0.000      0      0  0.000  0.000  0.022  0.000   3.47   0.00   0.00      0      0    101.3   0.00   0.00   0.45   0.74   2.41   3.75   0.77   0.00   0.00   0.00   0.00   0.00   0.00      0      0      0       0      42
 1990 273    82    79   11.0      3   0.71    688     19      0    596    707      0    0.0  0.000      0      0  0.000  0.000  0.022  0.000   3.44   0.00   0.00      0      0    103.8   0.00   0.00   0.46   0.75   2.57   4.00   0.94   0.00   0.00   0.00   0.00   0.00   0.00      0      0      0       0      45
 1990 274    83    80   12.0      3   0.84    781     25      0    646    806      0    0.0  0.000      0      0  0.000  0.000  0.022  0.000   3.41   0.00   0.00      0      0    107.1   0.00   0.00   0.46   0.75   2.70   4.00   1.10   0.00   0.00   0.00   0.00   0.00   0.00      0      0      0       0      48
 1990 275    84    81   12.0      3   0.93    857     30      0    729    888      0    0.0  0.000      0      0  0.000  0.000  0.022  0.000   3.37   0.00   0.00      0      0    108.9   0.00   0.00   0.46   0.76   2.90   4.00   1.41   0.00   0.00   0.00   0.00   0.00   0.00      0      0      0       0      51
 1990 276    85    82   12.0      3   1.05    951     40      0    798    991      0    0.0  0.000      0      0  0.000  0.000  0.022  0.000   3.34   0.00   0.00      0      0    110.5   0.00   0.00   0.46   0.77   3.02   4.00   1.71   0.00   0.00   0.00   0.00   0.00   0.00      0      0      0       0      55
 1990 277    86    83   13.0      3   1.20   1077     57      0    831   1134      0    0.0  0.000      0      0  0.000  0.000  0.022  0.000   3.29   0.00   0.00      0      0    111.9   0.00   0.00   0.46   0.78   3.04   4.00   1.90   0.00   0.00   0.00   0.00   0.00   0.00      0      0      0       0      59
 1990 278    87    84   13.0      3   1.29   1149     69      0    832   1219      0    0.0  0.000      0      0  0.000  0.000  0.022  0.000   3.26   0.00   0.00      0      0    112.3   0.00   0.00   0.46   0.78   3.03   4.00   1.92   0.00   0.00   0.00   0.00   0.00   0.00      0      0      0       0      63
 1990 279    88    85   13.0      3   1.40   1246     89      0    834   1335      0    0.0  0.000      0      0  0.000  0.000  0.022  0.000   3.22   0.00   0.00      0      0    112.6   0.00   0.00   0.46   0.78   3.02   4.00   1.96   0.00   0.00   0.00   0.00   0.00   0.00      0      0      0       0      67
 1990 280    89    86   13.0      3   1.49   1321    107      0    835   1428      0    0.0  0.000      0      0  0.000  0.000  0.022  0.000   3.18   0.00   0.00      0      0    112.7   0.00   0.00   0.46   0.78   3.01   3.99   2.00   0.00   0.00   0.00   0.00   0.00   0.00      0      0      0       0      71
 1990 281    90    87   14.0      3   1.58   1398    128      0    867   1526      0    0.0  0.000      0      0  0.000  0.000  0.022  0.000   3.03   0.00   0.00      0      0    112.7   0.00   0.00   0.46   0.76   2.85   3.76   2.26   0.00   0.00   0.00   0.00   0.00   0.00      0      0      0       0      76
 1990 282    91    88   14.0      3   1.65   1466    149      0    997   1614      0    0.0  0.000      0      0  0.000  0.000  0.022  0.000   2.91   0.00   0.00      0      0    112.6   0.00   0.00   0.46   0.87   2.87   3.72   3.60   0.00   0.00   0.00   0.00   0.00   0.00      0      0      0       0      80
 1990 283    92    89   14.0      3   1.73   1542    174      0   1105   1716      0    0.0  0.000      0      0  0.000  0.000  0.023  0.000   2.77   0.00   0.00      0      0    112.4   0.00   0.00   0.46   0.97   2.92   3.73   4.00   0.00   0.00   0.00   0.00   0.00   0.00      0      0      0       0      85
 1990 284    93    90   14.0      3   1.83   1631    208      0   1109   1839      0    0.0  0.000      0      0  0.000  0.000  0.027  0.000   2.64   0.00   0.00      0      0    112.1   0.00   0.00   0.46   0.97   2.88   3.67   4.00   0.00   0.00   0.00   0.00   0.00   0.00      0      0      0       0      90
 1990 285    94    91   15.0      3   1.89   1695    234      0   1264   1929      0    0.0  0.000      0      0  0.000  0.000  0.031  0.000   2.54   0.00   0.00      0      0    111.8   0.00   0.00   0.46   1.17   2.96   3.66   4.00   0.00   0.00   0.00   0.00   0.00   0.00      0      0      0       0      96
 1990 286    95    92   15.0      3   1.95   1751    259      0   1429   2010      0    0.0  0.000      0      0  0.000  0.000  0.039  0.000   2.45   0.00   0.00      0      0    111.2   0.00   0.00   0.46   1.47   3.18   3.79   4.00   0.00   0.00   0.00   0.00   0.00   0.00      0      0      0       0     102
 1990 287    96    93   15.0      3   2.02   1828    296      0   1567   2124      0    0.0  0.000      0      0  0.000  0.000  0.044  0.000   2.34   0.00   0.00      0      0    110.6   0.00   0.00   0.46   1.77   3.43   3.97   4.00   0.00   0.00   0.00   0.00   0.00   0.00      0      0      0       0     109
 1990 288    97    94   15.0      3   2.07   1882    324      0   1727   2207      0    0.0  0.000      0      0  0.000  0.000  0.049  0.000   2.27   0.00   0.00      0      0    110.0   0.00   0.00   0.46   2.19   3.82   4.00   4.00   0.00   0.00   0.00   0.00   0.00   0.00      0      0      0       0     117
 1990 289    98    95   15.0      3   2.10   1926    348      0   1902   2275      0    0.0  0.000      0      0  0.000  0.000  0.057  0.000   2.22   0.00   0.00      0      0    108.9   0.00   0.00   0.46   2.72   4.00   4.00   4.00   0.00   0.00   0.00   0.00   0.00   0.00      0      0      0       0     126
 1990 290    99    96   15.0      3   2.14   1985    382      0   1971   2367      0    0.0  0.000      0      0  0.000  0.000  0.062  0.000   2.15   0.00   0.00      0      0    108.1   0.00   0.00   0.46   2.96   4.00   4.00   4.00   0.00   0.00   0.00   0.00   0.00   0.00      0      0      0       0     135
 1990 291   100    97   16.0      3   2.23   2077    442      0   2088   2519      0    0.0  0.000      0      0  0.000  0.000  0.065  0.000   2.03   0.00   0.00      0      0    107.2   0.00   0.00   0.46   3.42   4.00   4.00   4.00   0.00   0.00   0.00   0.00   0.00   0.00      0      0      0       0     145
 1990 292   101    98   16.0      3   2.31   2172    509      0   2140   2681      0    0.0  0.000      0      0  0.000  0.000  0.070  0.000   1.92   0.00   0.00      0      0    106.3   0.00   0.00   0.46   3.68   4.00   4.00   4.00   0.00   0.00   0.00   0.00   0.00   0.00      0      0      0       0     156
 1990 293   102    99   16.0      3   2.38   2264    581      0   2184   2845      0    0.0  0.000      0      0  0.000  0.000  0.081  0.000   1.82   0.00   0.00      0      0    105.3   0.00   0.00   0.46   3.92   4.00   4.00   4.00   0.00   0.00   0.00   0.00   0.00   0.00      0      0      0       0     166
 1990 294   103   100   17.0      3   2.44   2349    653      0   2278   3002      0    0.0  0.000      0      0  0.000  0.000  0.094  0.000   1.74   0.00   0.00      0      0    104.1   0.00   0.00   0.46   4.00   4.00   4.00   4.00   0.00   0.00   0.00   0.00   0.00   0.00      0      0      0       0     177
 1990 295   104   101   17.0      3   2.50   2430    728      0   2412   3158      0    0.0  0.000      0      0  0.000  0.000  0.107  0.000   1.66   0.00   0.00      0      0    102.7   0.00   0.00   0.46   4.00   4.00   4.00   4.00   0.00   0.00   0.00   0.00   0.00   0.00      0      0      0       0     189
 1990 296   105   102   17.0      3   2.54   2511    809      0   2491   3320      0    0.0  0.000      0      0  0.000  0.000  0.118  0.000   1.59   0.00   0.00      0      0    101.3   0.00   0.00   0.46   4.00   4.00   4.00   4.00   0.00   0.00   0.00   0.00   0.00   0.00      0      0      0       0     201
 1990 297   106   103   17.0      3   2.57   2580    882      0   2576   3462      0    0.0  0.000      0      0  0.000  0.000  0.130  0.000   1.53   0.00   0.00      0      0     99.7   0.00   0.00   0.46   4.00   4.00   4.00   4.00   0.00   0.00   0.00   0.00   0.00   0.00      0      0      0       0     213
 1990 298   107   104   18.0      3   2.59   2647    960      0   2605   3607      0    0.0  0.000      0      0  0.000  0.000  0.142  0.000   1.48   0.00   0.00      0      0     98.0   0.00   0.00   0.46   4.00   4.00   4.00   4.00   0.00   0.00   0.00   0.00   0.00   0.00      0      0      0       0     226
 1990 299   108   105   18.0      3   2.72   2816   1103      0   2636   3919      0    0.0  0.000      0      0  0.000  0.000  0.151  0.000   1.37   0.00   0.00      0      0     96.4   0.00   0.00   0.46   4.00   4.00   4.00   4.00   0.00   0.00   0.00   0.00   0.00   0.00      0      0      0       0     239
 1990 300   109   106   18.0      3   2.78   2931   1251      0   2647   4182      0    0.0  0.000      0      0  0.000  0.000  0.158  0.000   1.29   0.00   0.00      0      0     94.7   0.00   0.00   0.46   4.00   4.00   4.00   4.00   0.00   0.00   0.00   0.00   0.00   0.00      0      0      0       0     252
 1990 301   110   107   19.0      3   2.76   2979   1326      0   2641   4305      0    0.0  0.000      0      0  0.000  0.000  0.184  0.000   1.26   0.00   0.00      0      0     92.7   0.00   0.00   0.46   4.00   4.00   4.00   3.99   0.00   0.00   0.00   0.00   0.00   0.00      0      0      0       0     266
 1990 302   111   108   19.0      3   2.75   3036   1435      0   2637   4471      0    0.0  0.000      0      0  0.000  0.000  0.204  0.000   1.21   0.00   0.00      0      0     90.5   0.00   0.00   0.46   4.00   4.00   4.00   3.98   0.00   0.00   0.00   0.00   0.00   0.00      0      0      0       0     279
 1990 303   112   109   20.0      3   2.73   3095   1560      0   2729   4656      0    0.0  0.000      0      0  0.000  0.000  0.213  0.000   1.17   0.00   0.00      0      0     88.3   0.00   0.00   0.46   4.00   4.00   4.00   4.00   0.00   0.00   0.00   0.00   0.00   0.00      0      0      0       0     292
 1990 304   113   110   20.0      3   2.70   3135   1650      0   2842   4785      0    0.0  0.000      0      0  0.000  0.000  0.240  0.000   1.14   0.00   0.00      0      0     86.1   0.00   0.00   0.46   4.00   4.00   4.00   4.00   0.00   0.00   0.00   0.00   0.00   0.00      0      0      0       0     306
 1990 305   114   111   20.0      3   2.66   3172   1742      0   2922   4914      0    0.0  0.000      0      0  0.000  0.000  0.269  0.000   1.12   0.00   0.00      0      0     83.9   0.00   0.00   0.46   4.00   4.00   4.00   4.00   0.00   0.00   0.00   0.00   0.00   0.00      0      0      0       0     320
 1990 306   115   112   21.0      3   2.62   3207   1834      0   2981   5041      0    0.0  0.000      0      0  0.000  0.000  0.277  0.000   1.10   0.00   0.00      0      0     81.7   0.00   0.00   0.46   4.00   4.00   4.00   4.00   0.00   0.00   0.00   0.00   0.00   0.00      0      0      0       0     334
 1990 307   116   113   21.0      3   2.58   3245   1940      0   2974   5185      0    0.0  0.000      0      0  0.000  0.000  0.276  0.000   1.07   0.00   0.00      0      0     79.6   0.00   0.00   0.46   4.00   4.00   4.00   3.99   0.00   0.00   0.00   0.00   0.00   0.00      0      0      0       0     349
 1990 308   117   114   21.0      3   2.53   3266   2001      0   3058   5267      0    0.0  0.000      0      0  0.000  0.000  0.288  0.000   1.06   0.00   0.00      0      0     77.4   0.00   0.00   0.46   4.00   4.00   4.00   4.00   0.00   0.00   0.00   0.00   0.00   0.00      0      0      0       0     364
 1990 309   118   115   21.0      3   2.46   3277   2035      0   3205   5311      0    0.0  0.000      0      0  0.000  0.000  0.310  0.000   1.05   0.00   0.00      0      0     75.2   0.00   0.00   0.46   4.00   4.00   4.00   4.00   0.00   0.00   0.00   0.00   0.00   0.00      0      0      0       0     380
 1990 310   119   116   21.0      3   2.41   3293   2085      0   3265   5378      0    0.0  0.000      0      0  0.000  0.000  0.322  0.000   1.04   0.00   0.00      0      0     73.1   0.00   0.00   0.46   4.00   4.00   4.00   4.00   0.00   0.00   0.00   0.00   0.00   0.00      0      0      0       0     396
 1990 311   120   117   21.0      3   2.36   3316   2155      0   3348   5471      0    0.0  0.000      0      0  0.000  0.000  0.320  0.000   1.03   0.00   0.00      0      0     71.0   0.00   0.00   0.46   4.00   4.00   4.00   4.00   0.00   0.00   0.00   0.00   0.00   0.00      0      0      0       0     412
 1990 312   121   118   21.0      3   2.30   3331   2200      0   3352   5531      0    0.0  0.000      0      0  0.000  0.000  0.325  0.000   1.02   0.00   0.00      0      0     69.0   0.00   0.00   0.46   4.00   4.00   4.00   4.00   0.00   0.00   0.00   0.00   0.00   0.00      0      0      0       0     429
 1990 313   122   119   21.0      3   2.25   3353   2270      0   3387   5623      0    0.0  0.000      0      0  0.000  0.000  0.333  0.000   1.01   0.00   0.00      0      0     67.1   0.00   0.00   0.46   4.00   4.00   4.00   4.00   0.00   0.00   0.00   0.00   0.00   0.00      0      0      0       0     445
 1990 314   123   120   21.0      3   2.20   3377   2343      0   3448   5721      0    0.0  0.000      0      0  0.000  0.000  0.334  0.000   1.00   0.00   0.00      0      0     65.3   0.00   0.00   0.46   4.00   4.00   4.00   4.00   0.00   0.00   0.00   0.00   0.00   0.00      0      0      0       0     462
 1990 315   124   121   21.0      3   2.16   3405   2428      0   3513   5833      0    0.0  0.000      0      0  0.000  0.000  0.341  0.000   0.98   0.00   0.00      0      0     63.5   0.00   0.00   0.46   4.00   4.00   4.00   4.00   0.00   0.00   0.00   0.00   0.00   0.00      0      0      0       0     480
 1990 316   125   122   21.0      3   2.12   3429   2499      0   3518   5928      0    0.0  0.000      0      0  0.000  0.000  0.350  0.000   0.97   0.00   0.00      0      0     61.8   0.00   0.00   0.46   4.00   4.00   4.00   4.00   0.00   0.00   0.00   0.00   0.00   0.00      0      0      0       0     497
 1990 317   126   123   21.0      3   2.09   3467   2614      0   3574   6082      0    0.0  0.000      0      0  0.000  0.000  0.356  0.000   0.95   0.00   0.00      0      0     60.2   0.00   0.00   0.46   4.00   4.00   4.00   4.00   0.00   0.00   0.00   0.00   0.00   0.00      0      0      0       0     515
 1990 318   127   124   21.0      4   2.02   3429   2221      0   3571   6193      0    0.0  0.000    544      0  0.000  0.000  0.358  0.000   1.02   0.00   0.09      0    544     59.0   0.00   0.00   0.46   4.00   4.00   4.00   4.00   0.00   0.00   0.00   0.00   0.00   0.00      0      0      0       0     533
 1990 319   128   125   21.0      4   1.96   3388   2245      0   3557   6239      0    0.0  0.000    606      0  0.000  0.000  0.368  0.000   1.03   0.00   0.10      0    606     57.8   0.00   0.00   0.46   4.00   4.00   4.00   3.98   0.00   0.00   0.00   0.00   0.00   0.00      0      0      0       0     550
 1990 320   129   126   21.0      4   1.90   3346   2271      0   3607   6288      0    0.0  0.000    671      0  0.000  0.000  0.243  0.000   1.04   0.00   0.11      0    671     56.9   0.00   0.00   0.46   4.00   4.00   4.00   4.00   0.00   0.00   0.00   0.00   0.00   0.00      0      0      0       0     568
 1990 321   130   127   21.0      4   1.85   3302   2300      0   3728   6345      0    0.0  0.000    743      0  0.000  0.000  0.222  0.000   1.04   0.00   0.12      0    743     56.2   0.00   0.00   0.46   4.00   4.00   4.00   4.00   0.00   0.00   0.00   0.00   0.00   0.00      0      0      0       0     586
 1990 322   131   128   21.0      4   1.81   3255   2347      0   3814   6462      0    0.0  0.000    860      0  0.000  0.000  0.199  0.000   1.05   0.00   0.13      0    860     55.6   0.00   0.00   0.46   4.00   4.00   4.00   4.00   0.00   0.00   0.00   0.00   0.00   0.00      0      0      0       0     605
 1990 323   132   129   21.0      4   1.77   3205   2411      0   3866   6635      0    0.0  0.000   1019      0  0.000  0.000  0.189  0.000   1.05   0.00   0.15      0   1019     55.1   0.00   0.00   0.46   4.00   4.00   4.00   4.00   0.00   0.00   0.00   0.00   0.00   0.00      0      0      0       0     624
 1990 324   133   130   21.0      4   1.73   3152   2454      0   3853   6733      0    0.0  0.000   1127      0  0.000  0.000  0.180  0.000   1.05   0.00   0.17      0   1127     54.8   0.00   0.00   0.46   4.00   4.00   4.00   3.99   0.00   0.00   0.00   0.00   0.00   0.00      0      0      0       0     643
 1990 325   134   131   21.0      4   1.69   3096   2509      0   3944   6870      0    0.0  0.000   1265      0  0.000  0.000  0.173  0.000   1.06   0.00   0.18      0   1265     54.6   0.00   0.00   0.46   4.00   4.00   4.00   4.00   0.00   0.00   0.00   0.00   0.00   0.00      0      0      0       0     663
 1990 326   135   132   21.0      4   1.65   3038   2558      0   4026   6984      0    0.0  0.000   1388      0  0.000  0.000  0.165  0.000   1.26   0.00   0.20      0   1388     54.5   0.00   0.00   0.46   4.00   4.00   4.00   3.99   0.00   0.00   0.00   0.00   0.00   0.00      0      0      0       0     682
 1990 327   136   133   21.0      4   1.63   2977   2620      0   4113   7138      0    0.0  0.000   1542      0  0.000  0.000  0.098  0.000   1.32   0.00   0.22      0   1542     54.9   0.00   0.00   0.46   4.00   4.00   4.00   3.98   0.00   0.00   0.00   0.00   0.00   0.00      0      0      0       0     702
 1990 328   137   134   21.0      4   1.62   2914   2693      0   4152   7330      0    0.0  0.000   1724      0  0.000  0.000  0.079  0.000   1.34   0.00   0.24      0   1724     55.5   0.00   0.00   0.46   4.00   4.00   4.00   3.97   0.00   0.00   0.00   0.00   0.00   0.00      0      0      0       0     723
 1990 329   138   135   21.0      5   1.59   2914   2693    200   4150   7530   2302    8.7  0.027   1924      7  0.000  0.000  0.135  0.000   1.31  10.40   0.26      0   1924     54.6   0.00   0.00   0.46   4.00   4.00   4.00   3.95   0.00   0.00   0.00   0.00   0.00   0.00      0      0      0       0     744
 1990 330   139   136   21.0      5   1.56   2914   2693    343   4170   7673   2302   14.9  0.045   2066      7  0.000  0.000  0.145  0.000   1.29  16.58   0.27      0   2066     53.6   0.00   0.00   0.46   4.00   4.00   4.00   3.96   0.00   0.00   0.00   0.00   0.00   0.00      0      0      0       0     764
 1990 331   140   137   21.0      5   1.53   2914   2693    418   4231   7748   2302   18.2  0.054   2142      7  0.000  0.000  0.147  0.000   1.28  19.53   0.28      0   2142     52.6   0.00   0.00   0.46   4.00   4.00   4.00   4.00   0.00   0.00   0.00   0.00   0.00   0.00      0      0      0       0     785
 1990 332   141   138   21.0      5   1.50   2914   2693    511   4288   7841   2302   22.2  0.065   2235      7  0.000  0.000  0.147  0.000   1.26  22.86   0.29      0   2235     51.6   0.00   0.00   0.46   4.00   4.00   4.00   4.00   0.00   0.00   0.00   0.00   0.00   0.00      0      0      0       0     806
 1990 333   142   139   21.0      5   1.48   2914   2693    644   4334   7974   2302   28.0  0.081   2367      7  0.000  0.000  0.148  0.000   1.23  27.19   0.30      0   2367     50.7   0.00   0.00   0.46   4.00   4.00   4.00   4.00   0.00   0.00   0.00   0.00   0.00   0.00      0      0      0       0     828
 1990 334   143   140   21.0      5   1.45   2914   2693    793   4323   8123   2302   34.5  0.098   2517      7  0.000  0.000  0.151  0.000   1.20  31.51   0.31      0   2517     49.7   0.00   0.00   0.46   4.00   4.00   4.00   3.99   0.00   0.00   0.00   0.00   0.00   0.00      0      0      0       0     850
 1990 335   144   141   21.0      5   1.42   2914   2693    938   4339   8268   2302   40.8  0.113   2662      7  0.000  0.000  0.156  0.000   1.18  35.25   0.32      0   2662     48.8   0.00   0.00   0.46   4.00   4.00   4.00   4.00   0.00   0.00   0.00   0.00   0.00   0.00      0      0      0       0     871
 1990 336   145   142   21.0      5   1.39   2914   2684   1059   4317   8380   2302   46.0  0.126   2783      7  0.000  0.000  0.161  0.000   1.15  38.06   0.33      0   2783     47.8   0.00   0.00   0.46   4.00   4.00   4.00   4.00   0.00   0.00   0.00   0.00   0.00   0.00      0      0      0       0     893
 1990 337   146   143   21.0      5   1.36   2914   2693   1157   4364   8487   2302   50.2  0.136   2880      7  0.000  0.000  0.164  0.000   1.14  40.15   0.34      0   2880     46.8   0.00   0.00   0.46   4.00   4.00   4.00   4.00   0.00   0.00   0.00   0.00   0.00   0.00      0      0      0       0     914
 1990 338   147   144   21.0      5   1.34   2914   2693   1284   4397   8614   2302   55.8  0.149   3007      7  0.000  0.000  0.165  0.000   1.11  42.68   0.35      0   3007     45.8   0.00   0.00   0.46   4.00   4.00   4.00   4.00   0.00   0.00   0.00   0.00   0.00   0.00      0      0      0       0     936
 1990 339   148   145   21.0      5   1.31   2914   2693   1456   4382   8786   2302   63.3  0.166   3180      7  0.000  0.000  0.167  0.000   1.08  45.79   0.36      0   3180     44.9   0.00   0.00   0.46   4.00   4.00   4.00   3.99   0.00   0.00   0.00   0.00   0.00   0.00      0      0      0       0     958
 1990 340   149   146   21.0      5   1.28   2914   2693   1616   4370   8946   2302   70.2  0.181   3339      7  0.000  0.000  0.174  0.000   1.05  48.38   0.37      0   3339     43.9   0.00   0.00   0.46   4.00   4.00   4.00   3.98   0.00   0.00   0.00   0.00   0.00   0.00      0      0      0       0     980
 1990 341   150   147   21.0      5   1.25   2914   2693   1762   4389   9092   2302   76.5  0.194   3485      7  0.000  0.000  0.179  0.000   1.02  50.54   0.38      0   3485     42.9   0.00   0.00   0.46   3.98   3.98   3.94   3.78   0.00   0.00   0.00   0.00   0.00   0.00      0      0      0       0    1002
 1990 342   151   148   21.0      5   1.22   2914   2693   1878   4423   9208   2302   81.6  0.204   3602      7  0.000  0.000  0.186  0.019   1.00  52.14   0.39      0   3602     41.9   0.00   0.00   0.46   4.00   4.00   4.00   3.69   0.00   0.00   0.00   0.00   0.00   0.00      0      0      0       0    1024
 1990 343   152   149   21.0      5   1.19   2914   2693   1973   4402   9303   2302   85.7  0.212   3697      7  0.000  0.000  0.191  0.047   0.99  53.37   0.40      0   3697     40.9   0.00   0.00   0.46   3.89   3.89   3.89   3.59   0.00   0.00   0.00   0.00   0.00   0.00      0      0      0       0    1046
 1990 344   153   150   21.0      5   1.16   2914   2686   2078   4380   9402   2302   90.3  0.221   3802      7  0.000  0.000  0.194  0.303   0.97  54.66   0.40      0   3802     39.9   0.00   0.00   0.46   3.89   3.89   3.89   3.59   0.00   0.00   0.00   0.00   0.00   0.00      0      0      0       0    1068
 1990 345   154   151   21.0      5   1.13   2914   2693   2213   4390   9543   2302   96.2  0.232   3937      7  0.000  0.000  0.198  0.177   0.94  56.22   0.41      0   3937     38.9   0.00   0.00   0.46   3.92   3.92   3.89   3.48   0.00   0.00   0.00   0.00   0.00   0.00      0      0      0       0    1090
 1990 346   155   152   21.0      5   1.11   2914   2693   2298   4385   9628   2302   99.8  0.239   4022      7  0.000  0.000  0.212  0.090   0.93  57.14   0.42      0   4022     37.9   0.00   0.00   0.46   3.92   3.92   3.87   3.41   0.00   0.00   0.00   0.00   0.00   0.00      0      0      0       0    1112
 1990 347   156   153   21.0      5   1.08   2914   2693   2424   4379   9754   2302  105.3  0.249   4148      7  0.000  0.000  0.218  0.030   0.91  58.44   0.43      0   4148     37.0   0.00   0.00   0.46   3.94   3.94   3.88   3.37   0.00   0.00   0.00   0.00   0.00   0.00      0      0      0       0    1134
 1990 348   157   154   21.0      5   1.05   2914   2693   2507   4408   9837   2302  108.9  0.255   4231      7  0.000  0.000  0.236  0.000   0.89  59.25   0.43      0   4231     36.0   0.00   0.00   0.46   4.00   4.00   4.00   3.39   0.00   0.00   0.00   0.00   0.00   0.00      0      0      0       0    1156
 1990 349   158   155   21.0      5   1.02   2914   2693   2632   4430   9962   2302  114.3  0.264   4356      7  0.000  0.000  0.240  0.000   0.88  60.42   0.44      0   4356     35.0   0.00   0.00   0.46   4.00   4.00   4.00   3.42   0.00   0.00   0.00   0.00   0.00   0.00      0      0      0       0    1178
 1990 350   159   156   21.0      5   0.99   2914   2693   2797   4432  10127   2302  121.5  0.276   4520      7  0.000  0.000  0.251  0.000   0.85  61.87   0.45      0   4520     34.1   0.00   0.00   0.46   4.00   4.00   4.00   3.42   0.00   0.00   0.00   0.00   0.00   0.00      0      0      0       0    1200
 1990 351   160   157   21.0      5   0.97   2914   2647   2969   4410  10254   2302  129.0  0.290   4693      7  0.000  0.000  0.270  0.000   0.83  63.27   0.46      0   4693     33.1   0.00   0.00   0.46   4.00   4.00   4.00   3.42   0.00   0.00   0.00   0.00   0.00   0.00      0      0      0       0    1222
 1990 352   161   158   21.0      5   0.94   2914   2683   3127   4406  10447   2302  135.9  0.299   4851      7  0.000  0.000  0.293  0.000   0.80  64.47   0.46      0   4851     32.2   0.00   0.00   0.46   4.00   4.00   4.00   3.41   0.00   0.00   0.00   0.00   0.00   0.00      0      0      0       0    1244
 1990 353   162   159   21.0      5   0.91   2914   2693   3265   4413  10595   2302  141.8  0.308   4989      7  0.000  0.000  0.304  0.000   0.78  65.45   0.47      0   4989     31.2   0.00   0.00   0.46   4.00   4.00   4.00   3.42   0.00   0.00   0.00   0.00   0.00   0.00      0      0      0       0    1266
 1990 354   163   160   21.0      5   0.88   2914   2693   3410   4415  10740   2302  148.1  0.318   5134      7  0.000  0.000  0.330  0.000   0.76  66.42   0.48      0   5134     30.3   0.00   0.00   0.46   4.00   4.00   4.00   3.43   0.00   0.00   0.00   0.00   0.00   0.00      0      0      0       0    1288
 1990 355   164   161   21.0      5   0.85   2914   2693   3583   4397  10913   2302  155.6  0.328   5306      7  0.000  0.000  0.349  0.000   0.74  67.52   0.49      0   5306     29.3   0.00   0.00   0.46   3.99   3.99   3.99   3.41   0.00   0.00   0.00   0.00   0.00   0.00      0      0      0       0    1310
 1990 356   165   162   21.0      5   0.83   2914   2591   3753   4375  10981   2302  163.1  0.342   5477      7  0.000  0.000  0.371  0.000   0.73  68.53   0.50      0   5477     28.4   0.00   0.00   0.46   3.99   3.99   3.99   3.41   0.00   0.00   0.00   0.00   0.00   0.00      0      0      0       0    1332
 1990 357   166   163   21.0      5   0.80   2914   2545   3926   4353  11108   2302  170.6  0.353   5650      7  0.000  0.000  0.393  0.000   0.71  69.49   0.51      0   5650     27.4   0.00   0.00   0.46   3.99   3.99   3.99   3.41   0.00   0.00   0.00   0.00   0.00   0.00      0      0      0       0    1354
 1990 358   167   164   21.0      5   0.77   2914   2490   4063   4331  11190   2302  176.5  0.363   5787      7  0.000  0.000  0.402  0.000   0.70  70.21   0.52      0   5787     26.5   0.00   0.00   0.46   3.99   3.99   3.99   3.41   0.00   0.00   0.00   0.00   0.00   0.00      0      0      0       0    1376
 1990 359   168   165   21.0      5   0.75   2914   2515   4189   4322  11342   2302  182.0  0.369   5913      7  0.000  0.000  0.412  0.000   0.68  70.85   0.52      0   5913     25.6   0.00   0.00   0.46   4.00   4.00   3.99   3.38   0.00   0.00   0.00   0.00   0.00   0.00      0      0      0       0    1398
 1990 360   169   166   21.0      5   0.72   2914   2520   4362   4303  11519   2302  189.5  0.379   6085      7  0.000  0.000  0.416  0.000   0.66  71.67   0.53      0   6085     24.8   0.00   0.00   0.46   3.97   3.97   3.96   3.34   0.00   0.00   0.00   0.00   0.00   0.00      0      0      0       0    1419
 1990 361   170   167   21.0      5   0.70   2914   2516   4534   4281  11688   2302  197.0  0.388   6258      7  0.000  0.000  0.447  0.000   0.64  72.46   0.54      0   6258     23.9   0.00   0.00   0.46   3.97   3.97   3.96   3.34   0.00   0.00   0.00   0.00   0.00   0.00      0      0      0       0    1441
 1990 362   171   168   21.0      5   0.67   2914   2545   4632   4274  11815   2302  201.2  0.392   6356      7  0.000  0.000  0.477  0.000   0.63  72.88   0.54      0   6356     23.0   0.00   0.00   0.46   4.00   4.00   3.99   3.33   0.00   0.00   0.00   0.00   0.00   0.00      0      0      0       0    1462
 1990 363   172   169   21.0      5   0.65   2914   2572   4718   4266  11928   2302  205.0  0.396   6442      7  0.000  0.000  0.486  0.000   0.62  73.24   0.54      0   6442     22.2   0.00   0.00   0.46   4.00   4.00   4.00   3.32   0.00   0.00   0.00   0.00   0.00   0.00      0      0      0       0    1484
 1990 364   173   170   21.0      5   0.62   2914   2578   4846   4248  12061   2302  210.5  0.402   6570      7  0.000  0.000  0.498  0.000   0.60  73.76   0.54      0   6570     21.3   0.00   0.00   0.46   3.99   3.99   3.99   3.30   0.00   0.00   0.00   0.00   0.00   0.00      0      0      0       0    1505
 1990 365   174   171   21.0      5   0.60   2914   2543   5013   4227  12193   2302  217.8  0.411   6737      7  0.000  0.000  0.518  0.000   0.59  74.41   0.55      0   6737     20.5   0.00   0.00   0.46   3.99   3.99   3.99   3.30   0.00   0.00   0.00   0.00   0.00   0.00      0      0      0       0    1526
 1991 001   175   172   21.0      5   0.57   2914   2464   5186   4205  12287   2302  225.3  0.422   6909      7  0.000  0.000  0.543  0.000   0.58  75.05   0.56      0   6909     19.7   0.00   0.00   0.46   3.99   3.99   3.99   3.30   0.00   0.00   0.00   0.00   0.00   0.00      0      0      0       0    1547
 1991 002   176   173   21.0      5   0.55   2914   2378   5358   4184  12374   2302  232.8  0.433   7082      7  0.000  0.000  0.561  0.000   0.57  75.66   0.57      0   7082     18.9   0.00   0.00   0.46   3.99   3.99   3.99   3.30   0.00   0.00   0.00   0.00   0.00   0.00      0      0      0       0    1568
 1991 003   177   174   21.0      5   0.53   2914   2297   5531   4164  12465   2302  240.3  0.444   7255      7  0.000  0.000  0.571  0.000   0.56  76.24   0.58      0   7255     18.2   0.00   0.00   0.46   3.99   3.99   3.99   3.30   0.00   0.00   0.00   0.00   0.00   0.00      0      0      0       0    1589
 1991 004   178   175   21.0      5   0.51   2914   2246   5682   4143  12566   2302  246.9  0.452   7406      7  0.000  0.000  0.580  0.000   0.56  76.73   0.59      0   7406     17.4   0.00   0.00   0.46   3.99   3.99   3.99   3.30   0.00   0.00   0.00   0.00   0.00   0.00      0      0      0       0    1610
 1991 005   179   176   21.0      5   0.49   2914   2191   5834   4122  12663   2302  253.4  0.461   7558      7  0.000  0.000  0.586  0.000   0.55  77.19   0.60      0   7558     16.7   0.00   0.00   0.46   3.99   3.99   3.99   3.30   0.00   0.00   0.00   0.00   0.00   0.00      0      0      0       0    1631
 1991 006   180   177   21.0      5   0.47   2914   2121   5994   4101  12753   2302  260.4  0.470   7718      7  0.000  0.000  0.599  0.000   0.54  77.66   0.61      0   7718     16.0   0.00   0.00   0.46   3.99   3.99   3.99   3.30   0.00   0.00   0.00   0.00   0.00   0.00      0      0      0       0    1651
 1991 007   181   178   21.0      5   0.45   2914   2029   6167   4081  12833   2302  267.9  0.481   7890      7  0.000  0.000  0.608  0.000   0.54  78.15   0.61      0   7890     15.3   0.00   0.00   0.46   3.99   3.99   3.99   3.30   0.00   0.00   0.00   0.00   0.00   0.00      0      0      0       0    1672
 1991 008   182   179   21.0      5   0.45   2914   2029   6167   4081  12833   2302  267.9  0.481   7890      7  0.000  0.000  0.608  0.000   0.54  78.15   0.61      0   7890     15.3   0.00   0.00   0.46   3.99   3.99   3.99   3.30   0.00   0.00   0.00   0.00   0.00   0.00      0      0      0       0    1672
 1991 009   183   180   21.0      5   0.45   2914   2029   6167   4081  12833   2302  267.9  0.481   7890      7  0.000  0.000  0.608  0.000   0.54  78.15   0.61      0   7890     15.3   0.00   0.00   0.46   3.99   3.99   3.99   3.30   0.00   0.00   0.00   0.00   0.00   0.00      0      0      0       0    1672
 1991 010   184   181   21.0      5   0.45   2914   2029   6167   4081  12833   2302  267.9  0.481   7890      7  0.000  0.000  0.608  0.000   0.54  78.15   0.61      0   7890     15.3   0.00   0.00   0.46   3.99   3.99   3.99   3.30   0.00   0.00   0.00   0.00   0.00   0.00      0      0      0       0    1672

*DSSAT Cropping System Model Ver. 4.0.2.000               Aug 03, 2016; 12:24:37

*RUN   2        : UYMZ                    
 MODEL          : MZCER040 - Maize           
 EXPERIMENT     : UYMZ0110 MZ    late to create DSS                             
 TREATMENT  1   : UYMZ                    

@YEAR DOY   DAS   DAP   L#SD   GSTD   LAID   LWAD   SWAD   GWAD   RWAD   CWAD   G#AD   GWGD   HIAD   PWAD   P#AD   WSPD   WSGD   NSTD   EWSD   LN%D   SH%D   HIPD   PWDD   PWTD     SLAD   CHTD   CWID   RDPD   RL1D   RL2D   RL3D   RL4D   RL5D   RL6D   RL7D   RL8D   RL9D   RL10   CDAD   LDAD   SDAD   SNW0C   SNW1C
 1991 194     3     0    0.0      0   0.00      0      0      0      0      0      0    0.0  0.000      0      0  0.000  0.000  0.000  0.000   0.00   0.00   0.00      0      0      0.0   0.00   0.00   0.03   0.00   0.00   0.00   0.00   0.00   0.00   0.00   0.00   0.00   0.00      0      0      0       0       0
 1991 195     4     1    0.0      0   0.00      0      0      0      0      0      0    0.0  0.000      0      0  0.000  0.000  0.000  0.000   0.00   0.00   0.00      0      0      0.0   0.00   0.00   0.03   0.00   0.00   0.00   0.00   0.00   0.00   0.00   0.00   0.00   0.00      0      0      0       0       0
 1991 196     5     2    0.0      0   0.00      0      0      0      0      0      0    0.0  0.000      0      0  0.000  0.000  0.000  0.000   0.00   0.00   0.00      0      0      0.0   0.00   0.00   0.03   0.00   0.00   0.00   0.00   0.00   0.00   0.00   0.00   0.00   0.00      0      0      0       0       0
 1991 197     6     3    0.0      0   0.00      0      0      0      0      0      0    0.0  0.000      0      0  0.000  0.000  0.000  0.000   0.00   0.00   0.00      0      0      0.0   0.00   0.00   0.03   0.00   0.00   0.00   0.00   0.00   0.00   0.00   0.00   0.00   0.00      0      0      0       0       0
 1991 198     7     4    0.0      0   0.00      0      0      0      0      0      0    0.0  0.000      0      0  0.000  0.000  0.000  0.000   0.00   0.00   0.00      0      0      0.0   0.00   0.00   0.04   0.00   0.00   0.00   0.00   0.00   0.00   0.00   0.00   0.00   0.00      0      0      0       0       0
 1991 199     8     5    0.0      0   0.00      0      0      0      0      0      0    0.0  0.000      0      0  0.000  0.000  0.000  0.000   0.00   0.00   0.00      0      0      0.0   0.00   0.00   0.05   0.00   0.00   0.00   0.00   0.00   0.00   0.00   0.00   0.00   0.00      0      0      0       0       0
 1991 200     9     6    0.0      0   0.00      0      0      0      0      0      0    0.0  0.000      0      0  0.000  0.000  0.000  0.000   0.00   0.00   0.00      0      0      0.0   0.00   0.00   0.05   0.00   0.00   0.00   0.00   0.00   0.00   0.00   0.00   0.00   0.00      0      0      0       0       0
 1991 201    10     7    0.0      0   0.00      0      0      0      0      0      0    0.0  0.000      0      0  0.000  0.000  0.000  0.000   0.00   0.00   0.00      0      0      0.0   0.00   0.00   0.07   0.00   0.00   0.00   0.00   0.00   0.00   0.00   0.00   0.00   0.00      0      0      0       0       0
 1991 202    11     8    0.0      0   0.00      0      0      0      0      0      0    0.0  0.000      0      0  0.000  0.000  0.000  0.000   0.00   0.00   0.00      0      0      0.0   0.00   0.00   0.07   0.00   0.00   0.00   0.00   0.00   0.00   0.00   0.00   0.00   0.00      0      0      0       0       0
 1991 203    12     9    0.0      0   0.00      0      0      0      0      0      0    0.0  0.000      0      0  0.000  0.000  0.000  0.000   0.00   0.00   0.00      0      0      0.0   0.00   0.00   0.07   0.00   0.00   0.00   0.00   0.00   0.00   0.00   0.00   0.00   0.00      0      0      0       0       0
 1991 204    13    10    0.0      0   0.00      0      0      0      0      0      0    0.0  0.000      0      0  0.000  0.000  0.000  0.000   0.00   0.00   0.00      0      0      0.0   0.00   0.00   0.07   0.00   0.00   0.00   0.00   0.00   0.00   0.00   0.00   0.00   0.00      0      0      0       0       0
 1991 205    14    11    0.0      0   0.00      0      0      0      0      0      0    0.0  0.000      0      0  0.000  0.000  0.000  0.000   0.00   0.00   0.00      0      0      0.0   0.00   0.00   0.08   0.00   0.00   0.00   0.00   0.00   0.00   0.00   0.00   0.00   0.00      0      0      0       0       0
 1991 206    15    12    0.0      0   0.00      0      0      0      0      0      0    0.0  0.000      0      0  0.000  0.000  0.000  0.000   0.00   0.00   0.00      0      0      0.0   0.00   0.00   0.08   0.00   0.00   0.00   0.00   0.00   0.00   0.00   0.00   0.00   0.00      0      0      0       0       0
 1991 207    16    13    0.0      0   0.00      0      0      0      0      0      0    0.0  0.000      0      0  0.000  0.000  0.000  0.000   0.00   0.00   0.00      0      0      0.0   0.00   0.00   0.09   0.00   0.00   0.00   0.00   0.00   0.00   0.00   0.00   0.00   0.00      0      0      0       0       0
 1991 208    17    14    0.0      0   0.00      0      0      0      0      0      0    0.0  0.000      0      0  0.000  0.000  0.000  0.000   0.00   0.00   0.00      0      0      0.0   0.00   0.00   0.11   0.00   0.00   0.00   0.00   0.00   0.00   0.00   0.00   0.00   0.00      0      0      0       0       0
 1991 209    18    15    1.0      1   0.00     14     14      0     14     28      0    0.0  0.000      0      0  0.000  0.000  0.012  0.000   4.40   0.00   0.00      0      0     23.9   0.00   0.00   0.12   0.28   0.09   0.00   0.00   0.00   0.00   0.00   0.00   0.00   0.00      0      0      0       0       0
 1991 210    19    16    2.0      1   0.01     14     14      0     14     28      0    0.0  0.000      0      0  0.000  0.000  0.013  0.000   4.51   0.00   0.00      0      0     46.3   0.00   0.00   0.14   0.28   0.09   0.00   0.00   0.00   0.00   0.00   0.00   0.00   0.00      0      0      0       0       0
 1991 211    20    17    2.0      1   0.01     14     14      0     14     28      0    0.0  0.000      0      0  0.000  0.000  0.000  0.000   4.51   0.00   0.00      0      0     58.0   0.00   0.00   0.14   0.27   0.10   0.00   0.00   0.00   0.00   0.00   0.00   0.00   0.00      0      0      0       0       0
 1991 212    21    18    2.0      1   0.01     14     14      0     15     28      0    0.0  0.000      0      0  0.000  0.000  0.000  0.000   4.49   0.00   0.00      0      0     63.1   0.00   0.00   0.15   0.27   0.10   0.00   0.00   0.00   0.00   0.00   0.00   0.00   0.00      0      0      0       0       0
 1991 213    22    19    2.0      1   0.01     14     14      0     15     28      0    0.0  0.000      0      0  0.000  0.000  0.000  0.000   4.49   0.00   0.00      0      0     44.0   0.00   0.00   0.15   0.27   0.10   0.00   0.00   0.00   0.00   0.00   0.00   0.00   0.00      0      0      0       0       0
 1991 214    23    20    2.0      1   0.00     14     14      0     15     28      0    0.0  0.000      0      0  0.000  0.000  0.000  0.000   4.49   0.00   0.00      0      0     17.2   0.00   0.00   0.15   0.27   0.10   0.00   0.00   0.00   0.00   0.00   0.00   0.00   0.00      0      0      0       0       0
 1991 215    24    21    2.0      1   0.00     14     14      0     15     28      0    0.0  0.000      0      0  0.000  0.000  0.000  0.000   4.49   0.00   0.00      0      0      9.3   0.00   0.00   0.15   0.26   0.10   0.00   0.00   0.00   0.00   0.00   0.00   0.00   0.00      0      0      0       0       0
 1991 216    25    22    2.0      1   0.00     14     14      0     15     28      0    0.0  0.000      0      0  0.000  0.000  0.000  0.000   4.49   0.00   0.00      0      0      9.3   0.00   0.00   0.15   0.25   0.10   0.00   0.00   0.00   0.00   0.00   0.00   0.00   0.00      0      0      0       0       0
 1991 217    26    23    2.0      1   0.00     14     14      0     15     28      0    0.0  0.000      0      0  0.000  0.000  0.000  0.000   4.49   0.00   0.00      0      0     13.1   0.00   0.00   0.15   0.25   0.10   0.00   0.00   0.00   0.00   0.00   0.00   0.00   0.00      0      0      0       0       0
 1991 218    27    24    2.0      1   0.00     14     14      0     15     28      0    0.0  0.000      0      0  0.000  0.000  0.000  0.000   4.49   0.00   0.00      0      0     10.9   0.00   0.00   0.15   0.24   0.10   0.00   0.00   0.00   0.00   0.00   0.00   0.00   0.00      0      0      0       0       0
 1991 219    28    25    2.0      1   0.00     14     14      0     15     28      0    0.0  0.000      0      0  0.000  0.000  0.000  0.000   4.49   0.00   0.00      0      0     11.9   0.00   0.00   0.15   0.24   0.10   0.00   0.00   0.00   0.00   0.00   0.00   0.00   0.00      0      0      0       0       0
 1991 220    29    26    3.0      1   0.00     14     14      0     15     28      0    0.0  0.000      0      0  0.000  0.000  0.000  0.000   4.49   0.00   0.00      0      0     20.7   0.00   0.00   0.16   0.24   0.10   0.00   0.00   0.00   0.00   0.00   0.00   0.00   0.00      0      0      0       0       0
 1991 221    30    27    3.0      1   0.00     14     14      0     15     28      0    0.0  0.000      0      0  0.000  0.000  0.000  0.000   4.49   0.00   0.00      0      0     31.2   0.00   0.00   0.16   0.24   0.10   0.00   0.00   0.00   0.00   0.00   0.00   0.00   0.00      0      0      0       0       0
 1991 222    31    28    3.0      1   0.00     14     14      0     15     28      0    0.0  0.000      0      0  0.000  0.000  0.000  0.000   4.49   0.00   0.00      0      0     35.3   0.00   0.00   0.16   0.23   0.10   0.00   0.00   0.00   0.00   0.00   0.00   0.00   0.00      0      0      0       0       0
 1991 223    32    29    3.0      1   0.01     14     14      0     15     28      0    0.0  0.000      0      0  0.000  0.000  0.000  0.000   4.49   0.00   0.00      0      0     38.4   0.00   0.00   0.16   0.23   0.10   0.00   0.00   0.00   0.00   0.00   0.00   0.00   0.00      0      0      0       0       0
 1991 224    33    30    3.0      1   0.00     14     14      0     15     28      0    0.0  0.000      0      0  0.000  0.000  0.000  0.000   4.49   0.00   0.00      0      0     33.9   0.00   0.00   0.17   0.23   0.10   0.00   0.00   0.00   0.00   0.00   0.00   0.00   0.00      0      0      0       0       0
 1991 225    34    31    3.0      1   0.01     14     14      0     16     28      0    0.0  0.000      0      0  0.000  0.000  0.000  0.000   4.49   0.00   0.00      0      0     45.7   0.00   0.00   0.17   0.23   0.11   0.00   0.00   0.00   0.00   0.00   0.00   0.00   0.00      0      0      0       0       0
 1991 226    35    32    3.0      1   0.01     14     14      0     16     28      0    0.0  0.000      0      0  0.000  0.000  0.000  0.000   4.49   0.00   0.00      0      0     72.4   0.00   0.00   0.18   0.23   0.12   0.01   0.00   0.00   0.00   0.00   0.00   0.00   0.00      0      0      0       0       0
 1991 227    36    33    4.0      1   0.02     14     14      0     17     28      0    0.0  0.000      0      0  0.000  0.000  0.000  0.000   4.49   0.00   0.00      0      0    176.5   0.00   0.00   0.19   0.23   0.13   0.01   0.00   0.00   0.00   0.00   0.00   0.00   0.00      0      0      0       0       0
 1991 228    37    34    4.0      1   0.04     15     14      0     19     29      0    0.0  0.000      0      0  0.000  0.000  0.000  0.000   4.14   0.00   0.00      0      0    278.0   0.00   0.00   0.20   0.23   0.14   0.03   0.00   0.00   0.00   0.00   0.00   0.00   0.00      0      0      0       0       0
 1991 229    38    35    4.0      1   0.06     21     14      0     22     35      0    0.0  0.000      0      0  0.000  0.000  0.000  0.000   3.55   0.00   0.00      0      0    273.7   0.00   0.00   0.21   0.23   0.17   0.05   0.00   0.00   0.00   0.00   0.00   0.00   0.00      0      0      0       0       0
 1991 230    39    36    5.0      1   0.08     29     14      0     23     43      0    0.0  0.000      0      0  0.000  0.000  0.000  0.000   3.56   0.00   0.00      0      0    267.0   0.00   0.00   0.22   0.23   0.17   0.06   0.00   0.00   0.00   0.00   0.00   0.00   0.00      0      0      0       0       0
 1991 231    40    37    5.0      1   0.10     37     14      0     27     51      0    0.0  0.000      0      0  0.000  0.000  0.000  0.000   3.55   0.00   0.00      0      0    259.6   0.00   0.00   0.23   0.23   0.20   0.09   0.00   0.00   0.00   0.00   0.00   0.00   0.00      0      0      0       0       1
 1991 232    41    38    5.0      1   0.12     47     14      0     30     61      0    0.0  0.000      0      0  0.000  0.000  0.000  0.000   3.55   0.00   0.00      0      0    252.0   0.00   0.00   0.24   0.23   0.21   0.12   0.00   0.00   0.00   0.00   0.00   0.00   0.00      0      0      0       0       1
 1991 233    42    39    6.0      1   0.14     58     14      0     39     72      0    0.0  0.000      0      0  0.000  0.000  0.000  0.000   3.54   0.00   0.00      0      0    244.5   0.00   0.00   0.25   0.24   0.26   0.19   0.00   0.00   0.00   0.00   0.00   0.00   0.00      0      0      0       0       1
 1991 234    43    40    6.0      1   0.17     73     14      0     48     87      0    0.0  0.000      0      0  0.000  0.000  0.000  0.000   3.46   0.00   0.00      0      0    236.4   0.00   0.00   0.27   0.26   0.31   0.28   0.00   0.00   0.00   0.00   0.00   0.00   0.00      0      0      0       0       1
 1991 235    44    41    6.0      1   0.20     86     14      0     65    100      0    0.0  0.000      0      0  0.000  0.000  0.000  0.000   3.59   0.00   0.00      0      0    230.2   0.00   0.00   0.28   0.28   0.39   0.43   0.00   0.00   0.00   0.00   0.00   0.00   0.00      0      0      0       0       1
 1991 236    45    42    6.0      1   0.22     97     14      0     85    111      0    0.0  0.000      0      0  0.000  0.000  0.000  0.000   3.71   0.00   0.00      0      0    225.7   0.00   0.00   0.28   0.32   0.49   0.62   0.00   0.00   0.00   0.00   0.00   0.00   0.00      0      0      0       0       2
 1991 237    46    43    7.0      1   0.25    113     14      0    102    127      0    0.0  0.000      0      0  0.000  0.000  0.000  0.000   3.57   0.00   0.00      0      0    220.0   0.00   0.00   0.29   0.34   0.56   0.78   0.00   0.00   0.00   0.00   0.00   0.00   0.00      0      0      0       0       2
 1991 238    47    44    7.0      1   0.27    124     14      0    105    138      0    0.0  0.000      0      0  0.000  0.000  0.000  0.000   3.77   0.00   0.00      0      0    216.7   0.00   0.00   0.30   0.35   0.57   0.82   0.00   0.00   0.00   0.00   0.00   0.00   0.00      0      0      0       0       3
 1991 239    48    45    7.0      1   0.28    133     14      0    109    147      0    0.0  0.000      0      0  0.000  0.000  0.000  0.000   3.82   0.00   0.00      0      0    214.1   0.00   0.00   0.30   0.36   0.59   0.86   0.00   0.00   0.00   0.00   0.00   0.00   0.00      0      0      0       0       3
 1991 240    49    46    7.0      1   0.31    150     14      0    124    164      0    0.0  0.000      0      0  0.000  0.000  0.000  0.000   3.63   0.00   0.00      0      0    209.7   0.00   0.00   0.31   0.39   0.65   1.00   0.00   0.00   0.00   0.00   0.00   0.00   0.00      0      0      0       0       4
 1991 241    50    47    8.0      1   0.35    172     14      0    139    186      0    0.0  0.000      0      0  0.000  0.000  0.000  0.000   3.54   0.00   0.00      0      0    204.6   0.00   0.00   0.32   0.41   0.71   1.13   0.01   0.00   0.00   0.00   0.00   0.00   0.00      0      0      0       0       4
 1991 242    51    48    8.0      1   0.40    200     14      0    143    214      0    0.0  0.000      0      0  0.000  0.000  0.000  0.000   3.47   0.00   0.00      0      0    199.1   0.00   0.00   0.33   0.42   0.73   1.17   0.01   0.00   0.00   0.00   0.00   0.00   0.00      0      0      0       0       5
 1991 243    52    49    8.0      1   0.42    215     14      0    149    229      0    0.0  0.000      0      0  0.000  0.000  0.000  0.000   3.73   0.00   0.00      0      0    196.2   0.00   0.00   0.34   0.43   0.75   1.22   0.02   0.00   0.00   0.00   0.00   0.00   0.00      0      0      0       0       6
 1991 244    53    50    8.0      1   0.44    226     14      0    165    240      0    0.0  0.000      0      0  0.000  0.000  0.000  0.000   3.79   0.00   0.00      0      0    194.2   0.00   0.00   0.34   0.43   0.82   1.37   0.04   0.00   0.00   0.00   0.00   0.00   0.00      0      0      0       0       6
 1991 245    54    51    8.0      1   0.46    243     14      0    172    257      0    0.0  0.000      0      0  0.000  0.000  0.000  0.000   3.69   0.00   0.00      0      0    191.2   0.00   0.00   0.35   0.43   0.84   1.43   0.05   0.00   0.00   0.00   0.00   0.00   0.00      0      0      0       0       7
 1991 246    55    52    9.0      1   0.51    274     14      0    191    288      0    0.0  0.000      0      0  0.000  0.000  0.000  0.000   3.51   0.00   0.00      0      0    186.5   0.00   0.00   0.36   0.44   0.92   1.59   0.08   0.00   0.00   0.00   0.00   0.00   0.00      0      0      0       0       8
 1991 247    56    53    9.0      1   0.57    313     14      0    237    327      0    0.0  0.000      0      0  0.000  0.000  0.000  0.000   3.43   0.00   0.00      0      0    181.4   0.00   0.00   0.37   0.44   1.08   1.98   0.17   0.00   0.00   0.00   0.00   0.00   0.00      0      0      0       0       9
 1991 248    57    54    9.0      2   0.65    339     14      0    296    353      0    0.0  0.000      0      0  0.000  0.000  0.000  0.000   3.59   0.00   0.00      0      0    190.5   0.00   0.00   0.38   0.46   1.26   2.46   0.34   0.00   0.00   0.00   0.00   0.00   0.00      0      0      0       0      10
 1991 249    58    55   10.0      2   0.70    374     14      0    301    388      0    0.0  0.000      0      0  0.000  0.000  0.003  0.000   3.55   0.00   0.00      0      0    186.7   0.00   0.00   0.39   0.46   1.27   2.50   0.36   0.00   0.00   0.00   0.00   0.00   0.00      0      0      0       0      12
 1991 250    59    56   10.0      2   0.74    404     14      0    309    418      0    0.0  0.000      0      0  0.000  0.000  0.000  0.000   3.54   0.00   0.00      0      0    183.7   0.00   0.00   0.40   0.46   1.29   2.56   0.39   0.00   0.00   0.00   0.00   0.00   0.00      0      0      0       0      13
 1991 251    60    57   10.0      2   0.78    430     14      0    320    444      0    0.0  0.000      0      0  0.000  0.000  0.000  0.000   3.81   0.00   0.00      0      0    181.2   0.00   0.00   0.41   0.46   1.32   2.64   0.44   0.00   0.00   0.00   0.00   0.00   0.00      0      0      0       0      15
 1991 252    61    58   10.0      3   0.82    461     14      0    382    475      0    0.0  0.000      0      0  0.000  0.000  0.022  0.000   3.68   0.00   0.00      0      0    177.2   0.00   0.00   0.41   0.49   1.40   3.05   0.76   0.00   0.00   0.00   0.00   0.00   0.00      0      0      0       0      16
 1991 253    62    59   10.0      3   0.88    503     14      0    449    518      0    0.0  0.000      0      0  0.000  0.000  0.022  0.000   3.58   0.00   0.00      0      0    174.0   0.00   0.00   0.42   0.52   1.45   3.46   1.20   0.00   0.00   0.00   0.00   0.00   0.00      0      0      0       0      18
 1991 254    63    60   11.0      3   0.95    560     15      0    529    574      0    0.0  0.000      0      0  0.000  0.000  0.022  0.000   3.54   0.00   0.00      0      0    170.4   0.00   0.00   0.43   0.56   1.49   3.85   1.80   0.00   0.00   0.00   0.00   0.00   0.00      0      0      0       0      20
 1991 255    64    61   11.0      3   1.05    631     16      0    604    647      0    0.0  0.000      0      0  0.000  0.000  0.022  0.000   3.44   0.00   0.00      0      0    166.4   0.00   0.00   0.44   0.62   1.54   4.00   2.57   0.00   0.00   0.00   0.00   0.00   0.00      0      0      0       0      23
 1991 256    65    62   11.0      3   1.17    724     19      0    647    743      0    0.0  0.000      0      0  0.000  0.000  0.022  0.000   3.23   0.00   0.00      0      0    162.1   0.00   0.00   0.46   0.65   1.57   4.00   3.08   0.00   0.00   0.00   0.00   0.00   0.00      0      0      0       0      26
 1991 257    66    63   11.0      3   1.22    764     21      0    662    786      0    0.0  0.000      0      0  0.000  0.000  0.022  0.000   3.26   0.00   0.00      0      0    160.1   0.00   0.00   0.46   0.67   1.58   3.99   3.27   0.00   0.00   0.00   0.00   0.00   0.00      0      0      0       0      29
 1991 258    67    64   12.0      3   1.24    781     22      0    671    804      0    0.0  0.000      0      0  0.000  0.000  0.022  0.000   3.34   0.00   0.00      0      0    159.0   0.00   0.00   0.46   0.68   1.58   3.99   3.38   0.00   0.00   0.00   0.00   0.00   0.00      0      0      0       0      33
 1991 259    68    65   12.0      3   1.34    858     27      0    704    885      0    0.0  0.000      0      0  0.000  0.000  0.022  0.000   3.14   0.00   0.00      0      0    156.1   0.00   0.00   0.46   0.72   1.62   4.00   3.76   0.00   0.00   0.00   0.00   0.00   0.00      0      0      0       0      36
 1991 260    69    66   12.0      3   1.43    931     34      0    705    964      0    0.0  0.000      0      0  0.000  0.000  0.022  0.000   2.99   0.00   0.00      0      0    153.5   0.00   0.00   0.46   0.72   1.62   3.98   3.79   0.00   0.00   0.00   0.00   0.00   0.00      0      0      0       0      40
 1991 261    70    67   12.0      3   1.51    997     41      0    802   1038      0    0.0  0.000      0      0  0.000  0.000  0.024  0.000   2.79   0.00   0.00      0      0    151.2   0.00   0.00   0.46   0.85   1.68   3.86   4.00   0.00   0.00   0.00   0.00   0.00   0.00      0      0      0       0      43
 1991 262    71    68   12.0      3   1.55   1036     45      0    920   1081      0    0.0  0.000      0      0  0.000  0.000  0.034  0.000   2.71   0.00   0.00      0      0    149.6   0.00   0.00   0.46   1.05   1.85   3.90   4.00   0.00   0.00   0.00   0.00   0.00   0.00      0      0      0       0      47
[...]
 1992 319   128   125   21.0      3   2.47   3591   2255      0   4908   5846      0    0.0  0.000      0      0  0.000  0.000  0.206  0.000   1.10   0.00   0.00      0      0     68.7   0.00   0.00   0.45   4.00   4.00   4.00   4.00   0.00   0.00   0.00   0.00   0.00   0.00      0      0      0       0     669
 1992 320   129   126   21.0      3   2.44   3627   2364      0   4977   5991      0    0.0  0.000      0      0  0.000  0.000  0.221  0.000   1.08   0.00   0.00      0      0     67.2   0.00   0.00   0.45   4.00   4.00   4.00   4.00   0.00   0.00   0.00   0.00   0.00   0.00      0      0      0       0     693
 1992 321   130   127   21.0      3   2.39   3648   2425      0   5111   6073      0    0.0  0.000      0      0  0.000  0.000  0.246  0.000   1.07   0.00   0.00      0      0     65.5   0.00   0.00   0.45   4.00   4.00   4.00   4.00   0.00   0.00   0.00   0.00   0.00   0.00      0      0      0       0     718
 1992 322   131   128   21.0      3   2.34   3664   2474      0   5241   6138      0    0.0  0.000      0      0  0.000  0.000  0.269  0.000   1.06   0.00   0.00      0      0     63.8   0.00   0.00   0.45   4.00   4.00   4.00   4.00   0.00   0.00   0.00   0.00   0.00   0.00      0      0      0       0     744
 1992 323   132   129   21.0      3   2.29   3682   2530      0   5367   6212      0    0.0  0.000      0      0  0.000  0.000  0.276  0.000   1.05   0.00   0.00      0      0     62.2   0.00   0.00   0.45   4.00   4.00   4.00   4.00   0.00   0.00   0.00   0.00   0.00   0.00      0      0      0       0     770
 1992 324   133   130   21.0      3   2.25   3711   2615      0   5476   6326      0    0.0  0.000      0      0  0.000  0.000  0.274  0.000   1.04   0.00   0.00      0      0     60.7   0.00   0.00   0.45   4.00   4.00   4.00   4.00   0.00   0.00   0.00   0.00   0.00   0.00      0      0      0       0     797
 1992 325   134   131   21.0      3   2.22   3746   2717      0   5525   6463      0    0.0  0.000      0      0  0.000  0.000  0.273  0.000   1.02   0.00   0.00      0      0     59.3   0.00   0.00   0.45   4.00   4.00   4.00   4.00   0.00   0.00   0.00   0.00   0.00   0.00      0      0      0       0     824
 1992 326   135   132   21.0      4   2.16   3708   2288      0   5510   6512      0    0.0  0.000    516      0  0.000  0.000  0.285  0.000   1.31   0.00   0.08      0    516     58.2   0.00   0.00   0.45   4.00   3.98   3.98   3.98   0.00   0.00   0.00   0.00   0.00   0.00      0      0      0       0     852
 1992 327   136   133   21.0      4   2.12   3669   2313      0   5631   6560      0    0.0  0.000    578      0  0.000  0.000  0.159  0.000   1.37   0.00   0.09      0    578     57.7   0.00   0.00   0.45   4.00   4.00   4.00   3.97   0.00   0.00   0.00   0.00   0.00   0.00      0      0      0       0     879
 1992 328   137   134   21.0      4   2.09   3629   2338      0   5730   6607      0    0.0  0.000    640      0  0.000  0.000  0.116  0.000   1.40   0.00   0.10      0    640     57.5   0.00   0.00   0.45   4.00   4.00   4.00   3.97   0.00   0.00   0.00   0.00   0.00   0.00      0      0      0       0     907
 1992 329   138   135   21.0      4   2.06   3587   2386      0   5806   6733      0    0.0  0.000    760      0  0.000  0.000  0.104  0.000   1.42   0.00   0.11      0    760     57.4   0.00   0.00   0.45   4.00   4.00   4.00   4.00   0.00   0.00   0.00   0.00   0.00   0.00      0      0      0       0     936
 1992 330   139   136   21.0      4   2.03   3542   2441      0   5854   6879      0    0.0  0.000    896      0  0.000  0.000  0.097  0.000   1.42   0.00   0.13      0    896     57.4   0.00   0.00   0.45   4.00   4.00   4.00   4.00   0.00   0.00   0.00   0.00   0.00   0.00      0      0      0       0     965
 1992 331   140   137   21.0      4   2.01   3496   2498      0   5874   7034      0    0.0  0.000   1040      0  0.000  0.000  0.093  0.000   1.42   0.00   0.15      0   1040     57.5   0.00   0.00   0.45   4.00   4.00   4.00   4.00   0.00   0.00   0.00   0.00   0.00   0.00      0      0      0       0     994
 1992 332   141   138   21.0      4   1.99   3447   2556      0   5981   7187      0    0.0  0.000   1184      0  0.000  0.000  0.089  0.000   1.42   0.00   0.16      0   1184     57.6   0.00   0.00   0.45   4.00   4.00   4.00   4.00   0.00   0.00   0.00   0.00   0.00   0.00      0      0      0       0    1024
 1992 333   142   139   21.0      4   1.97   3396   2617      0   6009   7349      0    0.0  0.000   1336      0  0.000  0.000  0.086  0.000   1.42   0.00   0.18      0   1336     57.9   0.00   0.00   0.45   4.00   4.00   4.00   4.00   0.00   0.00   0.00   0.00   0.00   0.00      0      0      0       0    1054
 1992 334   143   140   21.0      4   1.95   3342   2692      0   6003   7558      0    0.0  0.000   1525      0  0.000  0.000  0.081  0.000   1.41   0.00   0.20      0   1525     58.2   0.00   0.00   0.45   4.00   4.00   4.00   4.00   0.00   0.00   0.00   0.00   0.00   0.00      0      0      0       0    1084
 1992 335   144   141   21.0      4   1.93   3285   2768      0   6012   7769      0    0.0  0.000   1716      0  0.000  0.000  0.077  0.000   1.41   0.00   0.22      0   1716     58.7   0.00   0.00   0.45   4.00   4.00   4.00   4.00   0.00   0.00   0.00   0.00   0.00   0.00      0      0      0       0    1114
 1992 336   145   142   21.0      4   1.91   3226   2823      0   6118   7902      0    0.0  0.000   1853      0  0.000  0.000  0.074  0.000   1.41   0.00   0.23      0   1853     59.2   0.00   0.00   0.45   4.00   4.00   4.00   4.00   0.00   0.00   0.00   0.00   0.00   0.00      0      0      0       0    1144
 1992 337   146   143   21.0      4   1.89   3165   2868      0   6247   7997      0    0.0  0.000   1965      0  0.000  0.000  0.073  0.000   1.42   0.00   0.25      0   1965     59.8   0.00   0.00   0.45   4.00   4.00   4.00   4.00   0.00   0.00   0.00   0.00   0.00   0.00      0      0      0       0    1174
 1992 338   147   144   21.0      4   1.88   3102   2922      0   6327   8123      0    0.0  0.000   2099      0  0.000  0.000  0.069  0.000   1.43   0.00   0.26      0   2099     60.5   0.00   0.00   0.45   4.00   4.00   4.00   4.00   0.00   0.00   0.00   0.00   0.00   0.00      0      0      0       0    1206
 1992 339   148   145   21.0      4   1.86   3037   2990      0   6414   8298      0    0.0  0.000   2271      0  0.000  0.000  0.065  0.000   1.43   0.00   0.27      0   2271     61.3   0.00   0.00   0.45   4.00   4.00   4.00   4.00   0.00   0.00   0.00   0.00   0.00   0.00      0      0      0       0    1237
 1992 340   149   146   21.0      4   1.85   2969   3058      0   6410   8468      0    0.0  0.000   2441      0  0.000  0.000  0.060  0.000   1.43   0.00   0.29      0   2441     62.2   0.00   0.00   0.45   4.00   4.00   4.00   4.00   0.00   0.00   0.00   0.00   0.00   0.00      0      0      0       0    1269
 1992 341   150   147   21.0      5   1.82   2969   3058    232   6414   8700   2870    8.1  0.027   2672      7  0.000  0.000  0.109  0.000   1.38   8.68   0.31      0   2672     61.3   0.00   0.00   0.45   4.00   4.00   4.00   4.00   0.00   0.00   0.00   0.00   0.00   0.00      0      0      0       0    1301
 1992 342   151   148   21.0      5   1.79   2969   3058    419   6420   8887   2870   14.6  0.047   2860      7  0.000  0.000  0.122  0.000   1.34  14.66   0.32      0   2860     60.4   0.00   0.00   0.45   4.00   4.00   4.00   4.00   0.00   0.00   0.00   0.00   0.00   0.00      0      0      0       0    1333
 1992 343   152   149   21.0      5   1.76   2969   3058    614   6431   9082   2870   21.4  0.068   3055      7  0.000  0.000  0.128  0.000   1.30  20.11   0.34      0   3055     59.4   0.00   0.00   0.45   4.00   4.00   4.00   4.00   0.00   0.00   0.00   0.00   0.00   0.00      0      0      0       0    1366
 1992 344   153   150   21.0      5   1.74   2969   3058    814   6424   9282   2870   28.4  0.088   3254      7  0.000  0.000  0.134  0.000   1.26  25.00   0.35      0   3254     58.4   0.00   0.00   0.45   4.00   4.00   4.00   4.00   0.00   0.00   0.00   0.00   0.00   0.00      0      0      0       0    1398
 1992 345   154   151   21.0      5   1.70   2969   3058   1029   6417   9497   2870   35.9  0.108   3470      7  0.000  0.000  0.140  0.000   1.22  29.66   0.37      0   3470     57.4   0.00   0.00   0.45   4.00   4.00   4.00   4.00   0.00   0.00   0.00   0.00   0.00   0.00      0      0      0       0    1430
 1992 346   155   152   21.0      5   1.67   2969   3058   1220   6417   9688   2870   42.5  0.126   3660      7  0.000  0.000  0.149  0.000   1.19  33.32   0.38      0   3660     56.3   0.00   0.00   0.45   4.00   4.00   4.00   4.00   0.00   0.00   0.00   0.00   0.00   0.00      0      0      0       0    1462
 1992 347   156   153   21.0      5   1.64   2969   3058   1397   6441   9866   2870   48.7  0.142   3838      7  0.000  0.000  0.155  0.000   1.16  36.41   0.39      0   3838     55.2   0.00   0.00   0.45   4.00   4.00   4.00   4.00   0.00   0.00   0.00   0.00   0.00   0.00      0      0      0       0    1494
 1992 348   157   154   21.0      5   1.61   2969   3058   1613   6458  10081   2870   56.2  0.160   4053      7  0.000  0.000  0.161  0.000   1.12  39.79   0.40      0   4053     54.1   0.00   0.00   0.45   4.00   4.00   4.00   4.00   0.00   0.00   0.00   0.00   0.00   0.00      0      0      0       0    1526
 1992 349   158   155   21.0      5   1.57   2969   3058   1820   6468  10288   2870   63.4  0.177   4261      7  0.000  0.000  0.169  0.000   1.08  42.72   0.41      0   4261     53.0   0.00   0.00   0.45   4.00   4.00   4.00   4.00   0.00   0.00   0.00   0.00   0.00   0.00      0      0      0       0    1558
 1992 350   159   156   21.0      5   1.54   2969   3058   1974   6494  10442   2870   68.8  0.189   4415      7  0.000  0.000  0.178  0.000   1.05  44.71   0.42      0   4415     51.8   0.00   0.00   0.45   4.00   4.00   4.00   4.00   0.00   0.00   0.00   0.00   0.00   0.00      0      0      0       0    1591
 1992 351   160   157   21.0      5   1.50   2969   3058   2166   6492  10634   2870   75.5  0.204   4606      7  0.000  0.000  0.182  0.000   1.02  47.01   0.43      0   4606     50.6   0.00   0.00   0.45   4.00   4.00   4.00   4.00   0.00   0.00   0.00   0.00   0.00   0.00      0      0      0       0    1623
 1992 352   161   158   21.0      5   1.47   2969   3058   2381   6466  10849   2870   83.0  0.219   4821      7  0.000  0.000  0.189  0.000   0.99  49.38   0.44      0   4821     49.4   0.00   0.00   0.45   4.00   4.00   4.00   3.99   0.00   0.00   0.00   0.00   0.00   0.00      0      0      0       0    1656
 1992 353   162   159   21.0      5   1.43   2969   3058   2595   6469  11063   2870   90.4  0.235   5036      7  0.000  0.000  0.198  0.000   0.95  51.53   0.46      0   5036     48.2   0.00   0.00   0.45   4.00   4.00   4.00   4.00   0.00   0.00   0.00   0.00   0.00   0.00      0      0      0       0    1688
 1992 354   163   160   21.0      5   1.39   2969   3052   2810   6437  11273   2870   97.9  0.249   5251      7  0.000  0.000  0.220  0.000   0.92  53.52   0.47      0   5251     47.0   0.00   0.00   0.45   4.00   4.00   4.00   4.00   0.00   0.00   0.00   0.00   0.00   0.00      0      0      0       0    1720
 1992 355   164   161   21.0      5   1.36   2969   3058   3026   6440  11494   2870  105.4  0.263   5466      7  0.000  0.000  0.243  0.000   0.88  55.35   0.48      0   5466     45.7   0.00   0.00   0.45   4.00   4.00   4.00   4.00   0.00   0.00   0.00   0.00   0.00   0.00      0      0      0       0    1753
 1992 356   165   162   21.0      5   1.32   2969   3058   3241   6421  11709   2870  112.9  0.277   5682      7  0.000  0.000  0.268  0.000   0.85  57.04   0.49      0   5682     44.4   0.00   0.00   0.45   4.00   4.00   4.00   4.00   0.00   0.00   0.00   0.00   0.00   0.00      0      0      0       0    1785
 1992 357   166   163   21.0      5   1.28   2969   2956   3456   6389  11822   2870  120.4  0.292   5897      7  0.000  0.000  0.294  0.000   0.84  58.61   0.50      0   5897     43.2   0.00   0.00   0.45   4.00   4.00   4.00   4.00   0.00   0.00   0.00   0.00   0.00   0.00      0      0      0       0    1817
 1992 358   167   164   21.0      5   1.24   2969   2847   3671   6357  11929   2870  127.9  0.308   6112      7  0.000  0.000  0.322  0.000   0.82  60.07   0.51      0   6112     41.9   0.00   0.00   0.45   4.00   4.00   4.00   4.00   0.00   0.00   0.00   0.00   0.00   0.00      0      0      0       0    1849
 1992 359   168   165   21.0      5   1.20   2969   2867   3887   6336  12164   2870  135.4  0.320   6327      7  0.000  0.000  0.332  0.000   0.79  61.43   0.52      0   6327     40.6   0.00   0.00   0.45   4.00   4.00   4.00   3.99   0.00   0.00   0.00   0.00   0.00   0.00      0      0      0       0    1881
 1992 360   169   166   21.0      5   1.17   2969   2873   4080   6307  12363   2870  142.2  0.330   6521      7  0.000  0.000  0.342  0.000   0.76  62.57   0.53      0   6521     39.3   0.00   0.00   0.45   4.00   4.00   3.99   3.98   0.00   0.00   0.00   0.00   0.00   0.00      0      0      0       0    1912
 1992 361   170   167   21.0      5   1.13   2969   2915   4257   6296  12582   2870  148.3  0.338   6697      7  0.000  0.000  0.374  0.000   0.73  63.56   0.53      0   6697     38.1   0.00   0.00   0.45   4.00   4.00   4.00   3.99   0.00   0.00   0.00   0.00   0.00   0.00      0      0      0       0    1944
 1992 362   171   168   21.0      5   1.09   2969   2949   4434   6282  12792   2870  154.5  0.347   6874      7  0.000  0.000  0.399  0.000   0.71  64.50   0.54      0   6874     36.8   0.00   0.00   0.45   4.00   4.00   4.00   3.99   0.00   0.00   0.00   0.00   0.00   0.00      0      0      0       0    1975
 1992 363   172   169   21.0      5   1.05   2969   2951   4649   6251  13010   2870  162.0  0.357   7089      7  0.000  0.000  0.427  0.000   0.68  65.57   0.54      0   7089     35.5   0.00   0.00   0.45   3.99   3.99   3.99   3.97   0.00   0.00   0.00   0.00   0.00   0.00      0      0      0       0    2007
 1992 364   173   170   21.0      5   1.02   2969   2797   4864   6220  13072   2870  169.5  0.372   7305      7  0.000  0.000  0.462  0.000   0.67  66.59   0.56      0   7305     34.2   0.00   0.00   0.45   3.99   3.99   3.99   3.97   0.00   0.00   0.00   0.00   0.00   0.00      0      0      0       0    2038
 1992 365   174   171   21.0      5   0.98   2969   2657   5061   6189  13128   2870  176.3  0.386   7502      7  0.000  0.000  0.492  0.000   0.67  67.47   0.57      0   7502     33.0   0.00   0.00   0.45   3.99   3.99   3.99   3.97   0.00   0.00   0.00   0.00   0.00   0.00      0      0      0       0    2069
 1992 366   175   172   21.0      5   0.94   2969   2546   5227   6158  13184   2870  182.1  0.396   7668      7  0.000  0.000  0.491  0.000   0.66  68.17   0.58      0   7668     31.7   0.00   0.00   0.45   3.99   3.99   3.99   3.97   0.00   0.00   0.00   0.00   0.00   0.00      0      0      0       0    2100
 1993 001   176   173   21.0      5   0.91   2969   2422   5406   6127  13238   2870  188.4  0.408   7846      7  0.000  0.000  0.487  0.000   0.65  68.89   0.59      0   7846     30.6   0.00   0.00   0.45   3.99   3.99   3.99   3.97   0.00   0.00   0.00   0.00   0.00   0.00      0      0      0       0    2131
 1993 002   177   174   21.0      5   0.87   2969   2292   5588   6097  13290   2870  194.7  0.420   8028      7  0.000  0.000  0.498  0.451   0.65  69.60   0.60      0   8028     29.4   0.00   0.00   0.45   3.99   3.99   3.99   3.97   0.00   0.00   0.00   0.00   0.00   0.00      0      0      0       0    2161
 1993 003   178   175   21.0      5   0.84   2969   2157   5773   6066  13340   2870  201.2  0.433   8214      7  0.000  0.000  0.506  0.312   0.64  70.29   0.62      0   8214     28.3   0.00   0.00   0.45   3.99   3.99   3.99   3.97   0.00   0.00   0.00   0.00   0.00   0.00      0      0      0       0    2192
 1993 004   179   176   21.0      5   0.81   2969   2035   5988   6036  13434   2870  208.7  0.446   8429      7  0.000  0.000  0.511  0.309   0.63  71.05   0.63      0   8429     27.2   0.00   0.00   0.45   3.99   3.99   3.99   3.97   0.00   0.00   0.00   0.00   0.00   0.00      0      0      0       0    2222
 1993 005   180   177   21.0      5   0.78   2969   1954   6204   6006  13567   2870  216.2  0.457   8644      7  0.000  0.000  0.523  0.101   0.61  71.77   0.64      0   8644     26.2   0.00   0.00   0.45   3.99   3.99   3.99   3.97   0.00   0.00   0.00   0.00   0.00   0.00      0      0      0       0    2252
 1993 006   181   178   21.0      5   0.75   2969   1924   6345   5976  13679   2870  221.1  0.464   8786      7  0.000  0.000  0.539  0.022   0.59  72.22   0.64      0   8786     25.2   0.00   0.00   0.45   3.99   3.99   3.99   3.97   0.00   0.00   0.00   0.00   0.00   0.00      0      0      0       0    2282
 1993 007   182   179   21.0      5   0.72   2969   1924   6402   5946  13736   2870  223.1  0.466   8842      7  0.000  0.000  0.545  0.000   0.59  72.40   0.64      0   8842     24.2   0.00   0.00   0.45   3.99   3.99   3.99   3.97   0.00   0.00   0.00   0.00   0.00   0.00      0      0      0       0    2312
 1993 008   183   180   21.0      5   0.69   2969   1924   6492   5916  13826   2870  226.2  0.470   8933      7  0.000  0.000  0.538  0.000   0.58  72.68   0.65      0   8933     23.2   0.00   0.00   0.45   3.99   3.99   3.99   3.97   0.00   0.00   0.00   0.00   0.00   0.00      0      0      0       0    2342
 1993 009   184   181   21.0      5   0.66   2969   1924   6623   5886  13957   2870  230.8  0.475   9064      7  0.000  0.000  0.547  0.000   0.57  73.07   0.65      0   9064     22.3   0.00   0.00   0.45   3.99   3.99   3.99   3.97   0.00   0.00   0.00   0.00   0.00   0.00      0      0      0       0    2372
 1993 010   185   182   21.0      5   0.64   2969   1924   6744   5857  14078   2870  235.0  0.479   9184      7  0.000  0.000  0.573  0.000   0.55  73.43   0.65      0   9184     21.4   0.00   0.00   0.45   3.99   3.99   3.99   3.97   0.00   0.00   0.00   0.00   0.00   0.00      0      0      0       0    2401
 1993 011   186   183   21.0      5   0.61   2969   1924   6857   5828  14191   2870  238.9  0.483   9298      7  0.000  0.000  0.590  0.000   0.55  73.75   0.66      0   9298     20.5   0.00   0.00   0.45   3.99   3.99   3.99   3.97   0.00   0.00   0.00   0.00   0.00   0.00      0      0      0       0    2430
 1993 012   187   184   21.0      5   0.58   2969   1924   6962   5799  14296   2870  242.6  0.487   9403      7  0.000  0.000  0.604  0.000   0.54  74.04   0.66      0   9403     19.7   0.00   0.00   0.45   3.99   3.99   3.99   3.97   0.00   0.00   0.00   0.00   0.00   0.00      0      0      0       0    2460
 1993 013   188   185   21.0      5   0.58   2969   1924   6962   5799  14296   2870  242.6  0.487   9403      7  0.000  0.000  0.604  0.000   0.54  74.04   0.66      0   9403     19.7   0.00   0.00   0.45   3.99   3.99   3.99   3.97   0.00   0.00   0.00   0.00   0.00   0.00      0      0      0       0    2460
 1993 014   189   186   21.0      5   0.58   2969   1924   6962   5799  14296   2870  242.6  0.487   9403      7  0.000  0.000  0.604  0.000   0.54  74.04   0.66      0   9403     19.7   0.00   0.00   0.45   3.99   3.99   3.99   3.97   0.00   0.00   0.00   0.00   0.00   0.00      0      0      0       0    2460
 1993 015   190   187   21.0      5   0.58   2969   1924   6962   5799  14296   2870  242.6  0.487   9403      7  0.000  0.000  0.604  0.000   0.54  74.04   0.66      0   9403     19.7   0.00   0.00   0.45   3.99   3.99   3.99   3.97   0.00   0.00   0.00   0.00   0.00   0.00      0      0      0       0    2460
