*PLANT N OUTPUT FILE

*DSSAT Cropping System Model Ver. 4.0.2.000               Aug 03, 2016; 12:24:37

*RUN   1        : UYMZ                    
 MODEL          : MZCER040 - Maize           
 EXPERIMENT     : UYMZ0110 MZ    late to create DSS                             
 TREATMENT  1   : UYMZ                    

@YEAR DOY   DAS   DAP   CNAD   GNAD   VNAD   GN%D   VN%D   NUPC   LNAD   SNAD   LN%D   SN%D   RN%D   SNN0C   SNN1C
 1990 194     3     0    0.0    0.0    0.0   0.00   0.00    0.0    0.0    0.0    0.0   0.00   0.00    0.00    0.00
 1990 195     4     1    0.0    0.0    0.0   0.00   0.00    0.0    0.0    0.0    0.0   0.00   0.00    0.00    0.00
 1990 196     5     2    0.0    0.0    0.0   0.00   0.00    0.0    0.0    0.0    0.0   0.00   0.00    0.00    0.00
 1990 197     6     3    0.0    0.0    0.0   0.00   0.00    0.0    0.0    0.0    0.0   0.00   0.00    0.00    0.00
 1990 198     7     4    0.0    0.0    0.0   0.00   0.00    0.0    0.0    0.0    0.0   0.00   0.00    0.00    0.00
 1990 199     8     5    0.0    0.0    0.0   0.00   0.00    0.0    0.0    0.0    0.0   0.00   0.00    0.00    0.00
 1990 200     9     6    0.0    0.0    0.0   0.00   0.00    0.0    0.0    0.0    0.0   0.00   0.00    0.00    0.00
 1990 201    10     7    0.0    0.0    0.0   0.00   0.00    0.0    0.0    0.0    0.0   0.00   0.00    0.00    0.00
 1990 202    11     8    0.0    0.0    0.0   0.00   0.00    0.0    0.0    0.0    0.0   0.00   0.00    0.00    0.00
 1990 203    12     9    0.0    0.0    0.0   0.00   0.00    0.0    0.0    0.0    0.0   0.00   0.00    0.00    0.00
 1990 204    13    10    0.0    0.0    0.0   0.00   0.00    0.0    0.0    0.0    0.0   0.00   0.00    0.00    0.00
 1990 205    14    11    0.0    0.0    0.0   0.00   0.00    0.0    0.0    0.0    0.0   0.00   0.00    0.00    0.00
 1990 206    15    12    0.0    0.0    0.0   0.00   0.00    0.0    0.0    0.0    0.0   0.00   0.00    0.00    0.00
 1990 207    16    13    0.0    0.0    0.0   0.00   0.00    0.0    0.0    0.0    0.0   0.00   0.00    0.00    0.00
 1990 208    17    14    0.0    0.0    0.0   0.00   0.00    0.0    0.0    0.0    0.0   0.00   0.00    0.00    0.00
 1990 209    18    15    0.0    0.0    0.0   0.00   0.00    0.0    0.0    0.0    0.0   0.00   0.00    0.00    0.00
 1990 210    19    16    0.0    0.0    0.0   0.00   0.00    0.0    0.0    0.0    0.0   0.00   0.00    0.00    0.00
 1990 211    20    17    0.0    0.0    0.0   0.00   0.00    0.0    0.0    0.0    0.0   0.00   0.00    0.00    0.00
 1990 212    21    18    0.0    0.0    0.0   0.00   0.00    0.0    0.0    0.0    0.0   0.00   0.00    0.00    0.00
 1990 213    22    19    0.0    0.0    0.0   0.00   0.00    0.0    0.0    0.0    0.0   0.00   0.00    0.00    0.00
 1990 214    23    20    0.0    0.0    0.0   0.00   0.00    0.0    0.0    0.0    0.0   0.00   0.00    0.00    0.00
 1990 215    24    21    0.0    0.0    0.0   0.00   0.00    0.0    0.0    0.0    0.0   0.00   0.00    0.00    0.00
 1990 216    25    22    0.0    0.0    0.0   0.00   0.00    0.0    0.0    0.0    0.0   0.00   0.00    0.00    0.00
 1990 217    26    23    0.0    0.0    0.0   0.00   0.00    0.0    0.0    0.0    0.0   0.00   0.00    0.00    0.00
 1990 218    27    24    1.2    0.0    1.2   0.00   4.40    0.0    0.6    0.6    4.4   4.40   0.00    0.00    0.00
 1990 219    28    25    1.3    0.0    1.3   0.00   4.52    0.2    0.6    0.6    4.5   4.52   1.10    0.00    0.00
 1990 220    29    26    1.3    0.0    1.3   0.00   4.49    0.2    0.6    0.6    4.5   4.49   1.11    0.00    0.00
 1990 221    30    27    1.3    0.0    1.3   0.00   4.47    0.2    0.6    0.6    4.5   4.47   1.14    0.00    0.00
 1990 222    31    28    1.2    0.0    1.2   0.00   4.45    0.2    0.6    0.6    4.4   4.45   1.16    0.00    0.00
 1990 223    32    29    1.2    0.0    1.2   0.00   4.41    0.2    0.6    0.6    4.4   4.41   1.17    0.00    0.00
 1990 224    33    30    1.2    0.0    1.2   0.00   4.38    0.3    0.6    0.6    4.4   4.38   1.18    0.00    0.00
 1990 225    34    31    1.2    0.0    1.2   0.00   4.33    0.3    0.6    0.6    4.3   4.33   1.23    0.00    0.01
 1990 226    35    32    1.2    0.0    1.2   0.00   3.50    0.3    0.7    0.5    3.5   3.50   1.21    0.00    0.01
 1990 227    36    33    1.5    0.0    1.5   0.00   3.96    0.6    0.9    0.6    4.0   3.96   1.17    0.00    0.01
 1990 228    37    34    1.6    0.0    1.6   0.00   3.88    0.8    1.1    0.5    3.9   3.88   1.29    0.00    0.01
 1990 229    38    35    1.8    0.0    1.8   0.00   3.80    1.1    1.3    0.5    3.8   3.80   1.29    0.00    0.01
 1990 230    39    36    2.0    0.0    2.0   0.00   3.86    1.5    1.5    0.5    3.9   3.86   1.27    0.00    0.01
 1990 231    40    37    2.2    0.0    2.2   0.00   3.75    1.7    1.7    0.5    3.8   3.75   1.20    0.00    0.02
 1990 232    41    38    2.5    0.0    2.5   0.00   3.73    2.2    1.9    0.5    3.7   3.73   1.26    0.00    0.02
 1990 233    42    39    2.8    0.0    2.8   0.00   3.83    2.6    2.2    0.5    3.8   3.83   1.23    0.00    0.03
 1990 234    43    40    3.0    0.0    3.0   0.00   3.86    3.0    2.5    0.5    3.9   3.86   1.21    0.00    0.03
 1990 235    44    41    3.3    0.0    3.3   0.00   4.03    3.6    2.7    0.6    4.0   4.03   1.32    0.00    0.04
 1990 236    45    42    3.4    0.0    3.4   0.00   3.98    3.7    2.8    0.6    4.0   3.98   1.19    0.00    0.05
 1990 237    46    43    3.5    0.0    3.5   0.00   3.63    3.9    3.0    0.5    3.6   3.63   1.15    0.00    0.05
 1990 238    47    44    4.0    0.0    4.0   0.00   3.54    4.6    3.5    0.5    3.5   3.54   1.18    0.00    0.06
 1990 239    48    45    4.7    0.0    4.7   0.00   3.92    5.2    4.1    0.5    3.9   3.92   1.13    0.00    0.07
 1990 240    49    46    4.9    0.0    4.9   0.00   4.11    6.0    4.3    0.6    4.1   4.11   1.46    0.00    0.08
 1990 241    50    47    4.9    0.0    4.9   0.00   4.03    6.0    4.3    0.6    4.0   4.03   1.37    0.00    0.08
 1990 242    51    48    4.9    0.0    4.9   0.00   3.76    6.0    4.3    0.5    3.8   3.76   1.31    0.00    0.08
 1990 243    52    49    5.3    0.0    5.3   0.00   4.05    6.0    4.7    0.6    4.1   4.05   1.08    0.00    0.09
 1990 244    53    50    5.4    0.0    5.4   0.00   4.09    6.2    4.8    0.6    4.1   4.09   1.14    0.00    0.10
 1990 245    54    51    5.4    0.0    5.4   0.00   4.08    6.2    4.8    0.6    4.1   4.08   1.15    0.00    0.11
 1990 246    55    52    5.4    0.0    5.4   0.00   3.93    6.2    4.8    0.6    3.9   3.93   1.15    0.00    0.11
 1990 247    56    53    5.6    0.0    5.6   0.00   3.89    6.2    5.0    0.5    3.9   3.89   1.07    0.00    0.12
 1990 248    57    54    5.8    0.0    5.8   0.00   4.00    6.5    5.2    0.6    4.0   4.00   1.07    0.00    0.13
 1990 249    58    55    5.8    0.0    5.8   0.00   3.96    6.5    5.3    0.6    4.0   3.96   1.07    0.00    0.14
 1990 250    59    56    5.9    0.0    5.9   0.00   3.94    6.6    5.4    0.6    3.9   3.94   1.07    0.00    0.15
 1990 251    60    57    6.1    0.0    6.1   0.00   3.95    6.8    5.5    0.6    3.9   3.95   1.07    0.00    0.16
 1990 252    61    58    6.1    0.0    6.1   0.00   3.55    6.9    5.6    0.5    3.6   3.55   1.09    0.00    0.17
 1990 253    62    59    6.9    0.0    6.9   0.00   3.54    7.7    6.4    0.5    3.5   3.54   1.09    0.00    0.18
 1990 254    63    60    7.7    0.0    7.7   0.00   3.63    8.5    7.2    0.5    3.6   3.63   1.08    0.00    0.19
 1990 255    64    61    8.3    0.0    8.3   0.00   3.62    9.2    7.8    0.5    3.6   3.62   1.12    0.00    0.20
 1990 256    65    62    9.1    0.0    9.1   0.00   3.71   10.0    8.5    0.5    3.7   3.71   1.14    0.00    0.21
 1990 257    66    63    9.6    0.0    9.6   0.00   3.62   10.6    9.1    0.5    3.6   3.62   1.14    0.00    0.22
 1990 258    67    64   10.4    0.0   10.4   0.00   3.48   11.5   10.0    0.5    3.5   3.48   1.12    0.00    0.23
 1990 259    68    65   11.7    0.0   11.7   0.00   3.62   12.9   11.2    0.5    3.6   3.62   1.13    0.00    0.24
 1990 260    69    66   12.6    0.0   12.6   0.00   3.66   13.8   12.1    0.5    3.7   3.66   1.10    0.00    0.25
 1990 261    70    67   13.4    0.0   13.4   0.00   3.90   14.9   12.9    0.5    3.9   3.90   1.15    0.00    0.27
 1990 262    71    68   13.4    0.0   13.4   0.00   3.64   15.0   12.9    0.5    3.6   3.64   1.14    0.00    0.28
 1990 263    72    69   14.0    0.0   14.0   0.00   3.61   15.6   13.5    0.5    3.6   3.61   1.08    0.00    0.29
 1990 264    73    70   15.5    0.0   15.5   0.00   3.78   17.1   15.0    0.5    3.8   3.78   1.08    0.00    0.31
 1990 265    74    71   16.2    0.0   16.2   0.00   3.68   18.7   15.7    0.5    3.7   3.68   1.23    0.00    0.32
 1990 266    75    72   16.4    0.0   16.4   0.00   3.66   19.5   15.9    0.5    3.7   3.66   1.32    0.00    0.34
 1990 267    76    73   16.8    0.0   16.8   0.00   3.65   20.4   16.3    0.5    3.6   3.65   1.34    0.00    0.36
 1990 268    77    74   17.2    0.0   17.2   0.00   3.63   21.2   16.7    0.5    3.6   3.63   1.29    0.00    0.39
 1990 269    78    75   18.0    0.0   18.0   0.00   3.56   22.2   17.5    0.5    3.6   3.56   1.20    0.00    0.41
 1990 270    79    76   19.6    0.0   19.6   0.00   3.53   24.1   19.1    0.5    3.5   3.53   1.16    0.00    0.44
 1990 271    80    77   21.0    0.0   21.0   0.00   3.50   25.1   20.4    0.5    3.5   3.50   1.07    0.00    0.47
 1990 272    81    78   22.6    0.0   22.6   0.00   3.47   27.8   22.0    0.6    3.5   3.47   1.17    0.00    0.49
 1990 273    82    79   24.3    0.0   24.3   0.00   3.44   30.1   23.7    0.7    3.4   3.44   1.17    0.00    0.52
 1990 274    83    80   27.5    0.0   27.5   0.00   3.41   33.7   26.6    0.8    3.4   3.41   1.16    0.00    0.56
 1990 275    84    81   30.0    0.0   30.0   0.00   3.37   37.5   28.9    1.0    3.4   3.37   1.20    0.00    0.60
 1990 276    85    82   33.1    0.0   33.1   0.00   3.34   41.2   31.7    1.3    3.3   3.34   1.16    0.00    0.64
 1990 277    86    83   37.4    0.0   37.4   0.00   3.29   45.5   35.5    1.9    3.3   3.29   1.11    0.00    0.69
 1990 278    87    84   39.7    0.0   39.7   0.00   3.26   47.5   37.5    2.3    3.3   3.26   1.07    0.00    0.73
 1990 279    88    85   43.0    0.0   43.0   0.00   3.22   50.8   40.1    2.9    3.2   3.22   1.07    0.00    0.78
 1990 280    89    86   45.4    0.0   45.4   0.00   3.18   53.2   42.0    3.4    3.2   3.18   1.07    0.00    0.82
 1990 281    90    87   46.2    0.0   46.2   0.00   3.03   54.2   42.3    3.9    3.0   3.03   1.05    0.00    0.87
 1990 282    91    88   46.9    0.0   46.9   0.00   2.91   55.4   42.6    4.3    2.9   2.91   0.96    0.00    0.91
 1990 283    92    89   47.6    0.0   47.6   0.00   2.77   56.5   42.8    4.8    2.8   2.77   0.90    0.00    0.96
 1990 284    93    90   48.5    0.0   48.5   0.00   2.64   57.6   43.0    5.5    2.6   2.64   0.92    0.00    1.01
 1990 285    94    91   48.9    0.0   48.9   0.00   2.54   58.2   43.0    5.9    2.5   2.54   0.82    0.00    1.06
 1990 286    95    92   49.3    0.0   49.3   0.00   2.45   58.8   43.0    6.4    2.5   2.45   0.74    0.00    1.11
 1990 287    96    93   49.7    0.0   49.7   0.00   2.34   59.4   42.8    6.9    2.3   2.34   0.69    0.00    1.17
 1990 288    97    94   50.1    0.0   50.1   0.00   2.27   60.1   42.8    7.4    2.3   2.27   0.64    0.00    1.22
 1990 289    98    95   50.5    0.0   50.5   0.00   2.22   60.7   42.8    7.7    2.2   2.22   0.59    0.00    1.28
 1990 290    99    96   50.8    0.0   50.8   0.00   2.15   61.2   42.6    8.2    2.1   2.15   0.58    0.00    1.33
 1990 291   100    97   51.2    0.0   51.2   0.00   2.03   61.7   42.2    9.0    2.0   2.03   0.56    0.00    1.39
 1990 292   101    98   51.5    0.0   51.5   0.00   1.92   62.2   41.7    9.8    1.9   1.92   0.55    0.00    1.45
 1990 293   102    99   51.8    0.0   51.8   0.00   1.82   62.6   41.2   10.6    1.8   1.82   0.54    0.00    1.51
 1990 294   103   100   52.1    0.0   52.1   0.00   1.74   63.0   40.8   11.3    1.7   1.74   0.53    0.00    1.57
 1990 295   104   101   52.4    0.0   52.4   0.00   1.66   63.5   40.3   12.1    1.7   1.66   0.50    0.00    1.63
 1990 296   105   102   52.7    0.0   52.7   0.00   1.59   63.9   39.9   12.8    1.6   1.59   0.49    0.00    1.69
 1990 297   106   103   53.0    0.0   53.0   0.00   1.53   64.3   39.5   13.5    1.5   1.53   0.48    0.00    1.75
 1990 298   107   104   53.3    0.0   53.3   0.00   1.48   64.7   39.1   14.2    1.5   1.48   0.48    0.00    1.81
 1990 299   108   105   53.5    0.0   53.5   0.00   1.37   65.0   38.5   15.1    1.4   1.37   0.47    0.00    1.87
 1990 300   109   106   53.8    0.0   53.8   0.00   1.29   65.3   37.7   16.1    1.3   1.29   0.48    0.00    1.93
 1990 301   110   107   54.1    0.0   54.1   0.00   1.26   65.7   37.4   16.7    1.3   1.26   0.48    0.00    2.00
 1990 302   111   108   54.3    0.0   54.3   0.00   1.21   66.0   36.9   17.4    1.2   1.21   0.48    0.00    2.06
 1990 303   112   109   54.5    0.0   54.5   0.00   1.17   66.2   36.2   18.3    1.2   1.17   0.47    0.00    2.12
 1990 304   113   110   54.6    0.0   54.6   0.00   1.14   66.4   35.8   18.8    1.1   1.14   0.45    0.00    2.19
 1990 305   114   111   54.9    0.0   54.9   0.00   1.12   66.8   35.5   19.5    1.1   1.12   0.44    0.00    2.25
 1990 306   115   112   55.2    0.0   55.2   0.00   1.10   67.2   35.1   20.1    1.1   1.10   0.44    0.00    2.32
 1990 307   116   113   55.6    0.0   55.6   0.00   1.07   67.6   34.8   20.8    1.1   1.07   0.44    0.00    2.38
 1990 308   117   114   55.8    0.0   55.8   0.00   1.06   68.0   34.6   21.2    1.1   1.06   0.43    0.00    2.45
 1990 309   118   115   55.9    0.0   55.9   0.00   1.05   68.1   34.5   21.4    1.1   1.05   0.41    0.00    2.51
 1990 310   119   116   56.1    0.0   56.1   0.00   1.04   68.4   34.4   21.8    1.0   1.04   0.41    0.00    2.58
 1990 311   120   117   56.4    0.0   56.4   0.00   1.03   68.7   34.2   22.2    1.0   1.03   0.40    0.00    2.64
 1990 312   121   118   56.6    0.0   56.6   0.00   1.02   69.0   34.1   22.5    1.0   1.02   0.40    0.00    2.71
 1990 313   122   119   56.8    0.0   56.8   0.00   1.01   69.3   33.9   22.9    1.0   1.01   0.40    0.00    2.78
 1990 314   123   120   57.0    0.0   57.0   0.00   1.00   69.6   33.7   23.4    1.0   1.00   0.39    0.00    2.84
 1990 315   124   121   57.2    0.0   57.2   0.00   0.98   69.9   33.4   23.8    1.0   0.98   0.39    0.00    2.91
 1990 316   125   122   57.4    0.0   57.4   0.00   0.97   70.1   33.2   24.2    1.0   0.97   0.39    0.00    2.98
 1990 317   126   123   57.7    0.0   57.7   0.00   0.95   70.4   32.9   24.8    0.9   0.95   0.38    0.00    3.05
 1990 318   127   124   57.9    0.0   57.9   0.00   1.02   70.8   35.1   22.8    1.0   1.02   0.39    0.00    3.12
 1990 319   128   125   58.2    0.0   58.2   0.00   1.03   71.1   35.0   23.2    1.0   1.03   0.39    0.00    3.19
 1990 320   129   126   58.4    0.0   58.4   0.00   1.04   71.5   34.8   23.6    1.0   1.04   0.39    0.00    3.25
 1990 321   130   127   58.5    0.0   58.5   0.00   1.04   71.6   34.5   24.0    1.0   1.04   0.38    0.00    3.32
 1990 322   131   128   58.7    0.0   58.7   0.00   1.05   71.9   34.1   24.6    1.0   1.05   0.37    0.00    3.39
 1990 323   132   129   58.9    0.0   58.9   0.00   1.05   72.2   33.6   25.3    1.0   1.05   0.37    0.00    3.47
 1990 324   133   130   59.1    0.0   59.1   0.00   1.05   72.6   33.3   25.9    1.1   1.05   0.37    0.00    3.54
 1990 325   134   131   59.4    0.0   59.4   0.00   1.06   72.9   32.8   26.6    1.1   1.06   0.37    0.00    3.61
 1990 326   135   132   70.5    0.0   70.5   0.00   1.26   90.6   38.3   32.2    1.3   1.26   0.52    0.00    3.68
 1990 327   136   133   74.0    0.0   74.0   0.00   1.32   96.4   39.4   34.7    1.3   1.32   0.56    0.00    3.78
 1990 328   137   134   75.2    0.0   75.2   0.00   1.34   98.3   39.1   36.1    1.3   1.34   0.58    0.00    3.90
 1990 329   138   135   75.8    2.5   73.2   1.26   1.31   99.3   38.1   35.2    1.3   1.31   0.59    0.00    4.02
 1990 330   139   136   76.5    4.3   72.2   1.25   1.29  100.5   37.5   34.7    1.3   1.29   0.59    0.00    4.14
 1990 331   140   137   76.7    5.2   71.5   1.24   1.28  100.8   37.2   34.3    1.3   1.28   0.59    0.00    4.27
 1990 332   141   138   76.8    6.3   70.5   1.24   1.26  101.0   36.6   33.9    1.3   1.26   0.58    0.00    4.39
 1990 333   142   139   77.0    7.9   69.1   1.24   1.23  101.4   35.9   33.2    1.2   1.23   0.58    0.00    4.52
 1990 334   143   140   77.2    9.8   67.4   1.23   1.20  101.7   35.0   32.4    1.2   1.20   0.58    0.00    4.64
 1990 335   144   141   77.4   11.5   65.9   1.22   1.18  102.0   34.2   31.6    1.2   1.18   0.58    0.00    4.77
 1990 336   145   142   77.6   12.9   64.6   1.22   1.15  102.3   33.6   31.0    1.2   1.15   0.59    0.00    4.90
 1990 337   146   143   77.7   14.0   63.7   1.21   1.14  102.6   33.1   30.6    1.1   1.14   0.59    0.00    5.02
 1990 338   147   144   77.9   15.5   62.4   1.21   1.11  102.9   32.4   30.0    1.1   1.11   0.59    0.00    5.15
 1990 339   148   145   78.1   17.6   60.5   1.21   1.08  103.2   31.5   29.1    1.1   1.08   0.59    0.00    5.28
 1990 340   149   146   78.3   19.4   58.9   1.20   1.05  103.6   30.6   28.3    1.1   1.05   0.59    0.00    5.41
 1990 341   150   147   78.3   21.0   57.3   1.19   1.02  103.6   29.8   27.5    1.0   1.02   0.59    0.00    5.54
 1990 342   151   148   78.4   22.3   56.1   1.19   1.00  103.8   29.2   27.0    1.0   1.00   0.59    0.00    5.67
 1990 343   152   149   78.5   23.3   55.2   1.18   0.99  104.0   28.7   26.5    1.0   0.99   0.59    0.00    5.80
 1990 344   153   150   78.5   24.4   54.1   1.18   0.97  104.0   28.2   26.0    1.0   0.97   0.60    0.00    5.93
 1990 345   154   151   78.6   25.9   52.8   1.17   0.94  104.2   27.4   25.3    0.9   0.94   0.60    0.00    6.06
 1990 346   155   152   78.8   26.7   52.0   1.16   0.93  104.4   27.0   25.0    0.9   0.93   0.60    0.00    6.19
 1990 347   156   153   78.9   28.0   50.9   1.16   0.91  104.7   26.4   24.4    0.9   0.91   0.60    0.00    6.32
 1990 348   157   154   79.0   28.9   50.2   1.15   0.89  104.9   26.1   24.1    0.9   0.89   0.60    0.00    6.46
 1990 349   158   155   79.2   30.1   49.1   1.14   0.88  105.3   25.5   23.6    0.9   0.88   0.60    0.00    6.59
 1990 350   159   156   79.4   31.8   47.7   1.14   0.85  105.6   24.8   22.9    0.9   0.85   0.60    0.00    6.72
 1990 351   160   157   79.6   33.4   46.2   1.13   0.83  106.0   24.2   22.0    0.8   0.83   0.61    0.00    6.85
 1990 352   161   158   79.9   34.9   44.9   1.12   0.80  106.4   23.4   21.5    0.8   0.80   0.61    0.00    6.99
 1990 353   162   159   80.0   36.2   43.7   1.11   0.78  106.5   22.7   21.0    0.8   0.78   0.61    0.00    7.12
 1990 354   163   160   80.2   37.6   42.6   1.10   0.76  106.9   22.1   20.5    0.8   0.76   0.62    0.00    7.26
 1990 355   164   161   80.4   39.1   41.3   1.09   0.74  107.3   21.5   19.9    0.7   0.74   0.62    0.00    7.40
 1990 356   165   162   80.7   40.6   40.1   1.08   0.73  107.7   21.2   18.9    0.7   0.73   0.63    0.00    7.53
 1990 357   166   163   80.8   42.0   38.8   1.07   0.71  107.9   20.7   18.1    0.7   0.71   0.63    0.00    7.67
 1990 358   167   164   81.0   43.2   37.8   1.06   0.70  108.2   20.4   17.4    0.7   0.70   0.64    0.00    7.81
 1990 359   168   165   81.1   44.2   36.9   1.05   0.68  108.4   19.8   17.1    0.7   0.68   0.64    0.00    7.95
 1990 360   169   166   81.3   45.6   35.7   1.05   0.66  108.8   19.2   16.6    0.7   0.66   0.65    0.00    8.08
 1990 361   170   167   81.6   46.9   34.6   1.04   0.64  109.2   18.6   16.1    0.6   0.64   0.66    0.00    8.22
 1990 362   171   168   81.9   47.7   34.2   1.03   0.63  109.7   18.2   15.9    0.6   0.63   0.66    0.00    8.36
 1990 363   172   169   82.1   48.3   33.8   1.02   0.62  110.1   17.9   15.8    0.6   0.62   0.66    0.00    8.51
 1990 364   173   170   82.4   49.2   33.1   1.02   0.60  110.5   17.6   15.5    0.6   0.60   0.67    0.00    8.65
 1990 365   174   171   82.6   50.4   32.2   1.01   0.59  110.9   17.2   15.0    0.6   0.59   0.68    0.00    8.79
 1991 001   175   172   82.8   51.6   31.2   1.00   0.58  111.2   16.9   14.3    0.6   0.58   0.68    0.00    8.93
 1991 002   176   173   83.1   52.7   30.3   0.98   0.57  111.6   16.7   13.6    0.6   0.57   0.69    0.00    9.08
 1991 003   177   174   83.3   53.9   29.4   0.97   0.56  112.0   16.5   13.0    0.6   0.56   0.70    0.00    9.22
 1991 004   178   175   83.5   54.8   28.7   0.96   0.56  112.4   16.2   12.5    0.6   0.56   0.70    0.00    9.37
 1991 005   179   176   83.8   55.8   28.0   0.96   0.55  112.8   16.0   12.0    0.5   0.55   0.71    0.00    9.51
 1991 006   180   177   84.0   56.7   27.3   0.95   0.54  113.2   15.8   11.5    0.5   0.54   0.72    0.00    9.66
 1991 007   181   178   84.2   57.6   26.6   0.93   0.54  113.5   15.7   10.9    0.5   0.54   0.72    0.00    9.81
 1991 008   182   179   84.2   57.6   26.6   0.93   0.54  113.7   15.7   10.9    0.5   0.54   0.72    0.00    9.81
 1991 009   183   180   84.2   57.6   26.6   0.93   0.54  114.0   15.7   10.9    0.5   0.54   0.72    0.00    9.81
 1991 010   184   181   84.2   57.6   26.6   0.93   0.54  114.2   15.7   10.9    0.5   0.54   0.72    0.00    9.81

*DSSAT Cropping System Model Ver. 4.0.2.000               Aug 03, 2016; 12:24:37

*RUN   2        : UYMZ                    
 MODEL          : MZCER040 - Maize           
 EXPERIMENT     : UYMZ0110 MZ    late to create DSS                             
 TREATMENT  1   : UYMZ                    

@YEAR DOY   DAS   DAP   CNAD   GNAD   VNAD   GN%D   VN%D   NUPC   LNAD   SNAD   LN%D   SN%D   RN%D   SNN0C   SNN1C
 1991 194     3     0    0.0    0.0    0.0   0.00   0.00    0.0    0.0    0.0    0.0   0.00   0.00    0.00    0.00
 1991 195     4     1    0.0    0.0    0.0   0.00   0.00    0.0    0.0    0.0    0.0   0.00   0.00    0.00    0.00
 1991 196     5     2    0.0    0.0    0.0   0.00   0.00    0.0    0.0    0.0    0.0   0.00   0.00    0.00    0.00
 1991 197     6     3    0.0    0.0    0.0   0.00   0.00    0.0    0.0    0.0    0.0   0.00   0.00    0.00    0.00
 1991 198     7     4    0.0    0.0    0.0   0.00   0.00    0.0    0.0    0.0    0.0   0.00   0.00    0.00    0.00
 1991 199     8     5    0.0    0.0    0.0   0.00   0.00    0.0    0.0    0.0    0.0   0.00   0.00    0.00    0.00
 1991 200     9     6    0.0    0.0    0.0   0.00   0.00    0.0    0.0    0.0    0.0   0.00   0.00    0.00    0.00
 1991 201    10     7    0.0    0.0    0.0   0.00   0.00    0.0    0.0    0.0    0.0   0.00   0.00    0.00    0.00
 1991 202    11     8    0.0    0.0    0.0   0.00   0.00    0.0    0.0    0.0    0.0   0.00   0.00    0.00    0.00
 1991 203    12     9    0.0    0.0    0.0   0.00   0.00    0.0    0.0    0.0    0.0   0.00   0.00    0.00    0.00
 1991 204    13    10    0.0    0.0    0.0   0.00   0.00    0.0    0.0    0.0    0.0   0.00   0.00    0.00    0.00
 1991 205    14    11    0.0    0.0    0.0   0.00   0.00    0.0    0.0    0.0    0.0   0.00   0.00    0.00    0.00
 1991 206    15    12    0.0    0.0    0.0   0.00   0.00    0.0    0.0    0.0    0.0   0.00   0.00    0.00    0.00
 1991 207    16    13    0.0    0.0    0.0   0.00   0.00    0.0    0.0    0.0    0.0   0.00   0.00    0.00    0.00
 1991 208    17    14    0.0    0.0    0.0   0.00   0.00    0.0    0.0    0.0    0.0   0.00   0.00    0.00    0.00
 1991 209    18    15    1.2    0.0    1.2   0.00   4.40    0.0    0.6    0.6    4.4   4.40   0.00    0.00    0.00
 1991 210    19    16    1.3    0.0    1.3   0.00   4.51    0.2    0.6    0.6    4.5   4.51   1.09    0.00    0.00
 1991 211    20    17    1.3    0.0    1.3   0.00   4.51    0.2    0.6    0.6    4.5   4.51   1.08    0.00    0.00
 1991 212    21    18    1.3    0.0    1.3   0.00   4.49    0.2    0.6    0.6    4.5   4.49   1.14    0.00    0.00
 1991 213    22    19    1.3    0.0    1.3   0.00   4.49    0.2    0.6    0.6    4.5   4.49   1.15    0.00    0.00
 1991 214    23    20    1.3    0.0    1.3   0.00   4.49    0.2    0.6    0.6    4.5   4.49   1.17    0.00    0.00
 1991 215    24    21    1.3    0.0    1.3   0.00   4.49    0.2    0.6    0.6    4.5   4.49   1.17    0.00    0.00
 1991 216    25    22    1.3    0.0    1.3   0.00   4.49    0.2    0.6    0.6    4.5   4.49   1.18    0.00    0.00
 1991 217    26    23    1.3    0.0    1.3   0.00   4.49    0.2    0.6    0.6    4.5   4.49   1.17    0.00    0.00
 1991 218    27    24    1.3    0.0    1.3   0.00   4.49    0.2    0.6    0.6    4.5   4.49   1.18    0.00    0.00
 1991 219    28    25    1.3    0.0    1.3   0.00   4.49    0.2    0.6    0.6    4.5   4.49   1.18    0.00    0.00
 1991 220    29    26    1.3    0.0    1.3   0.00   4.49    0.2    0.6    0.6    4.5   4.49   1.18    0.00    0.00
 1991 221    30    27    1.3    0.0    1.3   0.00   4.49    0.2    0.6    0.6    4.5   4.49   1.17    0.00    0.00
 1991 222    31    28    1.3    0.0    1.3   0.00   4.49    0.2    0.6    0.6    4.5   4.49   1.17    0.00    0.00
 1991 223    32    29    1.3    0.0    1.3   0.00   4.49    0.2    0.6    0.6    4.5   4.49   1.16    0.00    0.00
 1991 224    33    30    1.3    0.0    1.3   0.00   4.49    0.2    0.6    0.6    4.5   4.49   1.14    0.00    0.00
 1991 225    34    31    1.3    0.0    1.3   0.00   4.49    0.2    0.6    0.6    4.5   4.49   1.12    0.00    0.00
 1991 226    35    32    1.3    0.0    1.3   0.00   4.49    0.2    0.6    0.6    4.5   4.49   1.06    0.00    0.00
 1991 227    36    33    1.3    0.0    1.3   0.00   4.49    0.2    0.6    0.6    4.5   4.49   1.01    0.00    0.00
 1991 228    37    34    1.2    0.0    1.2   0.00   4.14    0.2    0.6    0.6    4.1   4.14   1.18    0.00    0.00
 1991 229    38    35    1.3    0.0    1.3   0.00   3.55    0.3    0.8    0.5    3.6   3.55   1.21    0.00    0.00
 1991 230    39    36    1.5    0.0    1.5   0.00   3.56    0.5    1.0    0.5    3.6   3.56   1.12    0.00    0.00
 1991 231    40    37    1.8    0.0    1.8   0.00   3.55    0.9    1.3    0.5    3.6   3.55   1.23    0.00    0.01
 1991 232    41    38    2.2    0.0    2.2   0.00   3.55    1.3    1.7    0.5    3.5   3.55   1.16    0.00    0.01
 1991 233    42    39    2.5    0.0    2.5   0.00   3.54    1.8    2.1    0.5    3.5   3.54   1.31    0.00    0.01
 1991 234    43    40    3.0    0.0    3.0   0.00   3.46    2.4    2.5    0.5    3.5   3.46   1.27    0.00    0.01
 1991 235    44    41    3.6    0.0    3.6   0.00   3.59    3.2    3.1    0.5    3.6   3.59   1.35    0.00    0.02
 1991 236    45    42    4.1    0.0    4.1   0.00   3.71    4.0    3.6    0.5    3.7   3.71   1.32    0.00    0.02
 1991 237    46    43    4.5    0.0    4.5   0.00   3.57    4.6    4.0    0.5    3.6   3.57   1.24    0.00    0.03
 1991 238    47    44    5.2    0.0    5.2   0.00   3.77    5.1    4.7    0.5    3.8   3.77   1.12    0.00    0.03
 1991 239    48    45    5.6    0.0    5.6   0.00   3.82    5.6    5.1    0.5    3.8   3.82   1.13    0.00    0.04
 1991 240    49    46    5.9    0.0    5.9   0.00   3.63    6.2    5.4    0.5    3.6   3.63   1.20    0.00    0.04
 1991 241    50    47    6.6    0.0    6.6   0.00   3.54    7.0    6.1    0.5    3.5   3.54   1.18    0.00    0.05
 1991 242    51    48    7.4    0.0    7.4   0.00   3.47    7.8    7.0    0.5    3.5   3.47   1.10    0.00    0.06
 1991 243    52    49    8.5    0.0    8.5   0.00   3.73    9.0    8.0    0.5    3.7   3.73   1.13    0.00    0.07
 1991 244    53    50    9.1    0.0    9.1   0.00   3.79    9.9    8.5    0.5    3.8   3.79   1.24    0.00    0.08
 1991 245    54    51    9.5    0.0    9.5   0.00   3.69   10.2    9.0    0.5    3.7   3.69   1.12    0.00    0.09
 1991 246    55    52   10.1    0.0   10.1   0.00   3.51   11.1    9.6    0.5    3.5   3.51   1.17    0.00    0.10
 1991 247    56    53   11.2    0.0   11.2   0.00   3.43   13.0   10.8    0.5    3.4   3.43   1.27    0.00    0.11
 1991 248    57    54   12.7    0.0   12.7   0.00   3.59   15.2   12.2    0.5    3.6   3.59   1.28    0.00    0.12
 1991 249    58    55   13.8    0.0   13.8   0.00   3.55   15.8   13.3    0.5    3.5   3.55   1.09    0.00    0.14
 1991 250    59    56   14.8    0.0   14.8   0.00   3.54   17.0   14.3    0.5    3.5   3.54   1.10    0.00    0.16
 1991 251    60    57   16.9    0.0   16.9   0.00   3.81   19.3   16.4    0.5    3.8   3.81   1.12    0.00    0.17
 1991 252    61    58   17.5    0.0   17.5   0.00   3.68   21.0   17.0    0.5    3.7   3.68   1.25    0.00    0.19
 1991 253    62    59   18.5    0.0   18.5   0.00   3.58   22.8   18.0    0.5    3.6   3.58   1.24    0.00    0.22
 1991 254    63    60   20.3    0.0   20.3   0.00   3.54   25.6   19.8    0.5    3.5   3.54   1.23    0.00    0.24
 1991 255    64    61   22.3    0.0   22.3   0.00   3.44   28.2   21.7    0.6    3.4   3.44   1.19    0.00    0.28
 1991 256    65    62   24.0    0.0   24.0   0.00   3.23   30.1   23.4    0.6    3.2   3.23   1.13    0.00    0.31
 1991 257    66    63   25.6    0.0   25.6   0.00   3.26   31.7   24.9    0.7    3.3   3.26   1.10    0.00    0.35
 1991 258    67    64   26.8    0.0   26.8   0.00   3.34   33.0   26.1    0.7    3.3   3.34   1.10    0.00    0.38
 1991 259    68    65   27.8    0.0   27.8   0.00   3.14   34.2   27.0    0.9    3.1   3.14   1.07    0.00    0.42
 1991 260    69    66   28.8    0.0   28.8   0.00   2.99   35.2   27.8    1.0    3.0   2.99   1.07    0.00    0.46
 1991 261    70    67   29.0    0.0   29.0   0.00   2.79   35.4   27.8    1.1    2.8   2.79   0.95    0.00    0.50
 1991 262    71    68   29.3    0.0   29.3   0.00   2.71   35.9   28.1    1.2    2.7   2.71   0.85    0.00    0.54
 1991 263    72    69   29.7    0.0   29.7   0.00   2.59   36.5   28.3    1.4    2.6   2.59   0.81    0.00    0.57
 1991 264    73    70   30.1    0.0   30.1   0.00   2.40   37.0   28.5    1.6    2.4   2.40   0.80    0.00    0.61
 1991 265    74    71   30.5    0.0   30.5   0.00   2.31   37.6   28.7    1.8    2.3   2.31   0.73    0.00    0.65
 1991 266    75    72   30.9    0.0   30.9   0.00   2.29   38.2   29.0    1.9    2.3   2.29   0.69    0.00    0.70
 1991 267    76    73   31.2    0.0   31.2   0.00   2.25   38.7   29.2    2.0    2.2   2.25   0.63    0.00    0.74
 1991 268    77    74   31.5    0.0   31.5   0.00   2.17   39.1   29.3    2.2    2.2   2.17   0.59    0.00    0.78
 1991 269    78    75   31.8    0.0   31.8   0.00   2.09   39.5   29.3    2.4    2.1   2.09   0.56    0.00    0.82
 1991 270    79    76   32.1    0.0   32.1   0.00   1.96   40.0   29.2    2.8    2.0   1.96   0.55    0.00    0.87
 1991 271    80    77   32.3    0.0   32.3   0.00   1.92   40.3   29.3    3.0    1.9   1.92   0.52    0.00    0.91
 1991 272    81    78   32.5    0.0   32.5   0.00   1.89   40.7   29.4    3.1    1.9   1.89   0.49    0.00    0.96
 1991 273    82    79   32.7    0.0   32.7   0.00   1.84   41.1   29.4    3.4    1.8   1.84   0.47    0.00    1.01
 1991 274    83    80   32.9    0.0   32.9   0.00   1.80   41.4   29.4    3.5    1.8   1.80   0.45    0.00    1.05
 1991 275    84    81   33.2    0.0   33.2   0.00   1.78   41.8   29.5    3.7    1.8   1.78   0.43    0.00    1.10
 1991 276    85    82   33.3    0.0   33.3   0.00   1.75   42.0   29.4    3.8    1.7   1.75   0.41    0.00    1.15
 1991 277    86    83   33.4    0.0   33.4   0.00   1.70   42.2   29.4    4.0    1.7   1.70   0.40    0.00    1.20
 1991 278    87    84   33.6    0.0   33.6   0.00   1.68   42.5   29.4    4.2    1.7   1.68   0.40    0.00    1.25
 1991 279    88    85   33.7    0.0   33.7   0.00   1.68   42.8   29.5    4.3    1.7   1.68   0.40    0.00    1.30
 1991 280    89    86   33.8    0.0   33.8   0.00   1.66   42.9   29.5    4.3    1.7   1.66   0.39    0.00    1.35
 1991 281    90    87   33.9    0.0   33.9   0.00   1.64   43.0   29.4    4.5    1.6   1.64   0.38    0.00    1.40
 1991 282    91    88   34.0    0.0   34.0   0.00   1.61   43.1   29.3    4.7    1.6   1.61   0.37    0.00    1.45
 1991 283    92    89   34.0    0.0   34.0   0.00   1.56   43.3   29.1    4.9    1.6   1.56   0.36    0.00    1.50
 1991 284    93    90   34.2    0.0   34.2   0.00   1.51   43.5   29.0    5.2    1.5   1.51   0.35    0.00    1.55
 1991 285    94    91   34.3    0.0   34.3   0.00   1.45   43.8   28.6    5.7    1.4   1.45   0.34    0.00    1.61
 1991 286    95    92   34.5    0.0   34.5   0.00   1.35   44.1   28.1    6.4    1.4   1.35   0.34    0.00    1.66
 1991 287    96    93   34.7    0.0   34.7   0.00   1.29   44.4   27.7    7.0    1.3   1.29   0.34    0.00    1.71
 1991 288    97    94   34.9    0.0   34.9   0.00   1.26   44.7   27.6    7.4    1.3   1.26   0.35    0.00    1.77
 1991 289    98    95   35.0    0.0   35.0   0.00   1.23   44.7   27.4    7.6    1.2   1.23   0.35    0.00    1.82
 1991 290    99    96   35.0    0.0   35.0   0.00   1.22   44.9   27.3    7.7    1.2   1.22   0.34    0.00    1.87
 1991 291   100    97   35.2    0.0   35.2   0.00   1.20   45.1   27.2    8.0    1.2   1.20   0.34    0.00    1.93
 1991 292   101    98   35.3    0.0   35.3   0.00   1.14   45.3   27.0    8.2    1.1   1.14   0.33    0.00    1.98
 1991 293   102    99   35.4    0.0   35.4   0.00   1.10   45.5   26.8    8.7    1.1   1.10   0.33    0.00    2.04
 1991 294   103   100   35.6    0.0   35.6   0.00   1.07   45.8   26.5    9.2    1.1   1.07   0.33    0.00    2.09
 1991 295   104   101   35.8    0.0   35.8   0.00   1.03   46.1   26.1    9.7    1.0   1.03   0.33    0.00    2.15
 1991 296   105   102   36.1    0.0   36.1   0.00   1.02   46.4   26.0   10.0    1.0   1.02   0.33    0.00    2.21
 1991 297   106   103   36.3    0.0   36.3   0.00   1.02   46.7   26.1   10.2    1.0   1.02   0.34    0.00    2.26
 1991 298   107   104   36.5    0.0   36.5   0.00   1.01   47.0   26.0   10.5    1.0   1.01   0.34    0.00    2.32
 1991 299   108   105   36.7    0.0   36.7   0.00   0.99   47.3   25.8   10.9    1.0   0.99   0.34    0.00    2.38
 1991 300   109   106   36.8    0.0   36.8   0.00   0.98   47.6   25.6   11.2    1.0   0.98   0.34    0.00    2.44
 1991 301   110   107   37.0    0.0   37.0   0.00   0.97   47.8   25.5   11.5    1.0   0.97   0.35    0.00    2.49
 1991 302   111   108   37.2    0.0   37.2   0.00   0.96   48.0   25.4   11.7    1.0   0.96   0.35    0.00    2.55
 1991 303   112   109   37.3    0.0   37.3   0.00   0.95   48.3   25.3   12.0    1.0   0.95   0.35    0.00    2.61
 1991 304   113   110   37.5    0.0   37.5   0.00   0.94   48.5   25.2   12.3    0.9   0.94   0.36    0.00    2.67
 1991 305   114   111   37.6    0.0   37.6   0.00   0.93   48.7   25.1   12.6    0.9   0.93   0.35    0.00    2.73
 1991 306   115   112   37.8    0.0   37.8   0.00   0.93   48.9   25.0   12.8    0.9   0.93   0.35    0.00    2.79
 1991 307   116   113   37.9    0.0   37.9   0.00   0.92   49.1   24.8   13.1    0.9   0.92   0.35    0.00    2.85
 1991 308   117   114   38.1    0.0   38.1   0.00   0.91   49.4   24.7   13.3    0.9   0.91   0.35    0.00    2.91
 1991 309   118   115   38.3    0.0   38.3   0.00   0.90   49.6   24.6   13.6    0.9   0.90   0.35    0.00    2.97
 1991 310   119   116   38.5    0.0   38.5   0.00   0.89   49.9   24.5   14.0    0.9   0.89   0.35    0.00    3.04
 1991 311   120   117   38.6    0.0   38.6   0.00   0.88   50.1   24.4   14.2    0.9   0.88   0.35    0.00    3.10
 1991 312   121   118   38.7    0.0   38.7   0.00   0.88   50.3   24.3   14.4    0.9   0.88   0.35    0.00    3.16
 1991 313   122   119   38.9    0.0   38.9   0.00   0.87   50.6   24.3   14.6    0.9   0.87   0.35    0.00    3.22
 1991 314   123   120   39.1    0.0   39.1   0.00   0.94   50.8   25.9   13.2    0.9   0.94   0.35    0.00    3.29
 1991 315   124   121   39.3    0.0   39.3   0.00   0.95   51.1   25.8   13.4    0.9   0.95   0.35    0.00    3.35
 1991 316   125   122   39.4    0.0   39.4   0.00   0.96   51.4   25.8   13.7    1.0   0.96   0.35    0.00    3.41
 1991 317   126   123   39.6    0.0   39.6   0.00   0.97   51.6   25.7   13.9    1.0   0.97   0.35    0.00    3.48
 1991 318   127   124   39.8    0.0   39.8   0.00   0.97   51.9   25.6   14.2    1.0   0.97   0.35    0.00    3.54
 1991 319   128   125   39.9    0.0   39.9   0.00   0.98   52.1   25.4   14.5    1.0   0.98   0.35    0.00    3.61
 1991 320   129   126   40.0    0.0   40.0   0.00   0.99   52.3   25.2   14.9    1.0   0.99   0.35    0.00    3.67
 1991 321   130   127   40.2    0.0   40.2   0.00   0.99   52.6   25.0   15.2    1.0   0.99   0.35    0.00    3.74
 1991 322   131   128   40.3    0.0   40.3   0.00   1.00   52.8   24.7   15.6    1.0   1.00   0.35    0.00    3.80
 1991 323   132   129   40.5    0.0   40.5   0.00   1.01   53.1   24.5   16.0    1.0   1.01   0.35    0.00    3.87
 1991 324   133   130   40.6    0.0   40.6   0.00   1.01   53.2   24.2   16.4    1.0   1.01   0.35    0.00    3.94
 1991 325   134   131   40.7    0.0   40.7   0.00   1.02   53.4   23.8   16.9    1.0   1.02   0.35    0.00    4.00
 1991 326   135   132   51.0    0.0   51.0   0.00   1.27   71.0   29.2   21.8    1.3   1.27   0.54    0.00    4.07
 1991 327   136   133   54.6    0.0   54.6   0.00   1.36   77.1   30.5   24.0    1.4   1.36   0.60    0.00    4.18
 1991 328   137   134   55.8    0.0   55.8   0.00   1.40   79.3   30.7   25.0    1.4   1.40   0.63    0.00    4.29
 1991 329   138   135   56.3    0.0   56.3   0.00   1.42   80.3   30.5   25.8    1.4   1.42   0.65    0.00    4.41
 1991 330   139   136   56.4    0.0   56.4   0.00   1.43   80.4   29.9   26.4    1.4   1.43   0.65    0.00    4.54
 1991 331   140   137   56.4    0.9   55.5   1.34   1.41   80.6   29.5   26.0    1.4   1.41   0.65    0.00    4.66
 1991 332   141   138   56.5    2.2   54.3   1.34   1.38   80.7   28.8   25.4    1.4   1.38   0.65    0.00    4.79
 1991 333   142   139   56.6    3.6   53.0   1.33   1.35   80.9   28.2   24.9    1.3   1.35   0.66    0.00    4.91
 1991 334   143   140   56.7    4.9   51.7   1.33   1.32   81.1   27.5   24.3    1.3   1.32   0.66    0.00    5.04
 1991 335   144   141   56.8    6.2   50.6   1.32   1.29   81.3   26.9   23.7    1.3   1.29   0.66    0.00    5.16
 1991 336   145   142   57.0    7.5   49.5   1.31   1.26   81.7   26.3   23.2    1.3   1.26   0.66    0.00    5.29
 1991 337   146   143   57.2    8.8   48.3   1.31   1.23   82.0   25.7   22.7    1.2   1.23   0.67    0.00    5.42
 1991 338   147   144   57.3   10.2   47.2   1.30   1.20   82.4   25.1   22.1    1.2   1.20   0.67    0.00    5.54
 1991 339   148   145   57.5   11.5   46.1   1.30   1.17   82.7   24.5   21.6    1.2   1.17   0.67    0.00    5.67
 1991 340   149   146   57.7   12.8   44.9   1.29   1.14   83.0   23.9   21.1    1.1   1.14   0.68    0.00    5.80
 1991 341   150   147   57.9   14.1   43.9   1.29   1.12   83.5   23.3   20.6    1.1   1.12   0.68    0.00    5.93
 1991 342   151   148   58.1   15.3   42.8   1.28   1.09   83.8   22.7   20.1    1.1   1.09   0.69    0.00    6.06
 1991 343   152   149   58.3   16.4   41.9   1.28   1.07   84.2   22.4   19.5    1.1   1.07   0.69    0.00    6.19
 1991 344   153   150   58.5   17.7   40.8   1.27   1.04   84.5   21.7   19.1    1.0   1.04   0.70    0.00    6.33
 1991 345   154   151   58.6   18.9   39.7   1.27   1.01   84.7   21.1   18.6    1.0   1.01   0.70    0.00    6.46
 1991 346   155   152   58.8   19.9   38.9   1.26   0.99   85.0   20.8   18.1    1.0   0.99   0.71    0.00    6.59
 1991 347   156   153   59.0   21.0   38.0   1.25   0.97   85.4   20.2   17.8    1.0   0.97   0.71    0.00    6.73
 1991 348   157   154   59.2   21.9   37.3   1.25   0.95   85.7   19.9   17.4    1.0   0.95   0.72    0.00    6.86
 1991 349   158   155   59.3   22.8   36.4   1.24   0.94   86.0   19.6   16.9    0.9   0.94   0.73    0.00    7.00
 1991 350   159   156   59.4   23.9   35.5   1.23   0.91   86.2   19.0   16.5    0.9   0.91   0.73    0.00    7.13
 1991 351   160   157   59.6   25.1   34.5   1.23   0.88   86.6   18.4   16.1    0.9   0.88   0.74    0.00    7.27
 1991 352   161   158   59.8   26.2   33.6   1.22   0.85   86.8   17.8   15.7    0.9   0.85   0.74    0.00    7.41
 1991 353   162   159   60.0   27.3   32.6   1.21   0.83   87.2   17.3   15.3    0.8   0.83   0.75    0.00    7.55
 1991 354   163   160   60.1   28.4   31.7   1.20   0.81   87.4   16.8   14.9    0.8   0.81   0.75    0.00    7.68
 1991 355   164   161   60.3   29.5   30.9   1.20   0.78   87.8   16.4   14.5    0.8   0.78   0.76    0.00    7.82
 1991 356   165   162   60.6   30.5   30.1   1.19   0.78   88.3   16.2   13.9    0.8   0.78   0.77    0.00    7.96
 1991 357   166   163   60.8   31.5   29.3   1.18   0.75   88.6   15.8   13.5    0.8   0.75   0.77    0.00    8.10
 1991 358   167   164   61.0   32.5   28.4   1.17   0.73   88.9   15.2   13.2    0.7   0.73   0.78    0.00    8.24
 1991 359   168   165   61.2   33.4   27.8   1.17   0.71   89.3   14.9   12.8    0.7   0.71   0.79    0.00    8.39
 1991 360   169   166   61.5   34.0   27.4   1.16   0.70   89.8   14.7   12.8    0.7   0.70   0.79    0.00    8.53
 1991 361   170   167   61.8   34.7   27.1   1.15   0.69   90.2   14.4   12.6    0.7   0.69   0.80    0.00    8.67
 1991 362   171   168   62.0   35.5   26.5   1.15   0.67   90.6   14.1   12.4    0.7   0.67   0.81    0.00    8.82
 1991 363   172   169   62.3   36.4   25.9   1.14   0.66   91.1   13.8   12.2    0.7   0.66   0.82    0.00    8.96
 1991 364   173   170   62.6   37.3   25.3   1.13   0.65   91.5   13.5   11.8    0.6   0.65   0.82    0.00    9.11
 1991 365   174   171   62.9   38.2   24.7   1.12   0.64   92.0   13.4   11.3    0.6   0.64   0.83    0.00    9.25
 1992 001   175   172   63.2   39.0   24.2   1.11   0.64   92.4   13.3   10.8    0.6   0.64   0.84    0.00    9.40
 1992 002   176   173   63.5   39.9   23.6   1.10   0.63   92.9   13.2   10.4    0.6   0.63   0.85    0.00    9.55
 1992 003   177   174   63.5   39.9   23.6   1.10   0.63   93.4   13.2   10.4    0.6   0.63   0.85    0.00    9.55
 1992 004   178   175   63.5   39.9   23.6   1.10   0.63   93.9   13.2   10.4    0.6   0.63   0.85    0.00    9.55
 1992 005   179   176   63.5   39.9   23.6   1.10   0.63   94.4   13.2   10.4    0.6   0.63   0.85    0.00    9.55
 1992 006   180   177   63.5   39.9   23.6   1.10   0.63   94.9   13.2   10.4    0.6   0.63   0.85    0.00    9.55

*DSSAT Cropping System Model Ver. 4.0.2.000               Aug 03, 2016; 12:24:37

*RUN   3        : UYMZ                    
 MODEL          : MZCER040 - Maize           
 EXPERIMENT     : UYMZ0110 MZ    late to create DSS                             
 TREATMENT  1   : UYMZ                    

@YEAR DOY   DAS   DAP   CNAD   GNAD   VNAD   GN%D   VN%D   NUPC   LNAD   SNAD   LN%D   SN%D   RN%D   SNN0C   SNN1C
 1992 194     3     0    0.0    0.0    0.0   0.00   0.00    0.0    0.0    0.0    0.0   0.00   0.00    0.00    0.00
 1992 195     4     1    0.0    0.0    0.0   0.00   0.00    0.0    0.0    0.0    0.0   0.00   0.00    0.00    0.00
 1992 196     5     2    0.0    0.0    0.0   0.00   0.00    0.0    0.0    0.0    0.0   0.00   0.00    0.00    0.00
 1992 197     6     3    0.0    0.0    0.0   0.00   0.00    0.0    0.0    0.0    0.0   0.00   0.00    0.00    0.00
 1992 198     7     4    0.0    0.0    0.0   0.00   0.00    0.0    0.0    0.0    0.0   0.00   0.00    0.00    0.00
 1992 199     8     5    0.0    0.0    0.0   0.00   0.00    0.0    0.0    0.0    0.0   0.00   0.00    0.00    0.00
 1992 200     9     6    0.0    0.0    0.0   0.00   0.00    0.0    0.0    0.0    0.0   0.00   0.00    0.00    0.00
 1992 201    10     7    0.0    0.0    0.0   0.00   0.00    0.0    0.0    0.0    0.0   0.00   0.00    0.00    0.00
 1992 202    11     8    0.0    0.0    0.0   0.00   0.00    0.0    0.0    0.0    0.0   0.00   0.00    0.00    0.00
 1992 203    12     9    0.0    0.0    0.0   0.00   0.00    0.0    0.0    0.0    0.0   0.00   0.00    0.00    0.00
 1992 204    13    10    0.0    0.0    0.0   0.00   0.00    0.0    0.0    0.0    0.0   0.00   0.00    0.00    0.00
 1992 205    14    11    0.0    0.0    0.0   0.00   0.00    0.0    0.0    0.0    0.0   0.00   0.00    0.00    0.00
 1992 206    15    12    0.0    0.0    0.0   0.00   0.00    0.0    0.0    0.0    0.0   0.00   0.00    0.00    0.00
 1992 207    16    13    0.0    0.0    0.0   0.00   0.00    0.0    0.0    0.0    0.0   0.00   0.00    0.00    0.00
 1992 208    17    14    0.0    0.0    0.0   0.00   0.00    0.0    0.0    0.0    0.0   0.00   0.00    0.00    0.00
 1992 209    18    15    0.0    0.0    0.0   0.00   0.00    0.0    0.0    0.0    0.0   0.00   0.00    0.00    0.00
 1992 210    19    16    0.0    0.0    0.0   0.00   0.00    0.0    0.0    0.0    0.0   0.00   0.00    0.00    0.00
 1992 211    20    17    0.0    0.0    0.0   0.00   0.00    0.0    0.0    0.0    0.0   0.00   0.00    0.00    0.00
 1992 212    21    18    0.0    0.0    0.0   0.00   0.00    0.0    0.0    0.0    0.0   0.00   0.00    0.00    0.00
 1992 213    22    19    0.0    0.0    0.0   0.00   0.00    0.0    0.0    0.0    0.0   0.00   0.00    0.00    0.00
 1992 214    23    20    0.0    0.0    0.0   0.00   0.00    0.0    0.0    0.0    0.0   0.00   0.00    0.00    0.00
 1992 215    24    21    0.0    0.0    0.0   0.00   0.00    0.0    0.0    0.0    0.0   0.00   0.00    0.00    0.00
 1992 216    25    22    0.0    0.0    0.0   0.00   0.00    0.0    0.0    0.0    0.0   0.00   0.00    0.00    0.00
 1992 217    26    23    0.0    0.0    0.0   0.00   0.00    0.0    0.0    0.0    0.0   0.00   0.00    0.00    0.00
 1992 218    27    24    0.0    0.0    0.0   0.00   0.00    0.0    0.0    0.0    0.0   0.00   0.00    0.00    0.00
 1992 219    28    25    0.0    0.0    0.0   0.00   0.00    0.0    0.0    0.0    0.0   0.00   0.00    0.00    0.00
 1992 220    29    26    0.0    0.0    0.0   0.00   0.00    0.0    0.0    0.0    0.0   0.00   0.00    0.00    0.00
 1992 221    30    27    0.0    0.0    0.0   0.00   0.00    0.0    0.0    0.0    0.0   0.00   0.00    0.00    0.00
 1992 222    31    28    0.0    0.0    0.0   0.00   0.00    0.0    0.0    0.0    0.0   0.00   0.00    0.00    0.00
 1992 223    32    29    0.0    0.0    0.0   0.00   0.00    0.0    0.0    0.0    0.0   0.00   0.00    0.00    0.00
 1992 224    33    30    0.0    0.0    0.0   0.00   0.00    0.0    0.0    0.0    0.0   0.00   0.00    0.00    0.00
 1992 225    34    31    0.0    0.0    0.0   0.00   0.00    0.0    0.0    0.0    0.0   0.00   0.00    0.00    0.00
 1992 226    35    32    0.0    0.0    0.0   0.00   0.00    0.0    0.0    0.0    0.0   0.00   0.00    0.00    0.00
 1992 227    36    33    0.0    0.0    0.0   0.00   0.00    0.0    0.0    0.0    0.0   0.00   0.00    0.00    0.00
 1992 228    37    34    1.2    0.0    1.2   0.00   4.40    0.0    0.6    0.6    4.4   4.40   0.00    0.00    0.00
 1992 229    38    35    1.3    0.0    1.3   0.00   4.55    0.2    0.6    0.6    4.5   4.55   1.08    0.00    0.00
 1992 230    39    36    1.3    0.0    1.3   0.00   4.55    0.2    0.6    0.6    4.5   4.55   1.06    0.00    0.00
 1992 231    40    37    1.3    0.0    1.3   0.00   4.51    0.2    0.6    0.6    4.5   4.51   1.11    0.00    0.00
 1992 232    41    38    1.3    0.0    1.3   0.00   4.49    0.2    0.6    0.6    4.5   4.49   1.12    0.00    0.00
 1992 233    42    39    1.3    0.0    1.3   0.00   4.48    0.2    0.6    0.6    4.5   4.48   1.13    0.00    0.00
 1992 234    43    40    1.2    0.0    1.2   0.00   4.45    0.2    0.6    0.6    4.5   4.45   1.16    0.00    0.00
 1992 235    44    41    1.2    0.0    1.2   0.00   4.45    0.2    0.6    0.6    4.5   4.45   1.11    0.00    0.00
 1992 236    45    42    1.2    0.0    1.2   0.00   4.41    0.3    0.6    0.6    4.4   4.41   1.18    0.00    0.00
 1992 237    46    43    1.2    0.0    1.2   0.00   4.39    0.3    0.6    0.6    4.4   4.39   1.19    0.00    0.01
 1992 238    47    44    1.2    0.0    1.2   0.00   4.38    0.3    0.6    0.6    4.4   4.38   1.19    0.00    0.01
 1992 239    48    45    1.2    0.0    1.2   0.00   4.36    0.4    0.6    0.6    4.4   4.36   1.21    0.00    0.01
 1992 240    49    46    1.2    0.0    1.2   0.00   4.34    0.4    0.6    0.6    4.3   4.34   1.22    0.00    0.01
 1992 241    50    47    1.2    0.0    1.2   0.00   3.87    0.4    0.7    0.5    3.9   3.87   1.15    0.00    0.01
 1992 242    51    48    1.3    0.0    1.3   0.00   3.58    0.6    0.8    0.5    3.6   3.58   1.16    0.00    0.02
 1992 243    52    49    1.6    0.0    1.6   0.00   3.60    0.9    1.1    0.5    3.6   3.60   1.09    0.00    0.02
 1992 244    53    50    1.9    0.0    1.9   0.00   4.01    1.2    1.3    0.6    4.0   4.01   1.17    0.00    0.02
 1992 245    54    51    2.0    0.0    2.0   0.00   4.08    1.4    1.4    0.6    4.1   4.08   1.20    0.00    0.02
 1992 246    55    52    2.1    0.0    2.1   0.00   4.01    1.4    1.5    0.6    4.0   4.01   1.14    0.00    0.03
 1992 247    56    53    2.2    0.0    2.2   0.00   3.93    1.7    1.7    0.5    3.9   3.93   1.30    0.00    0.03
 1992 248    57    54    2.4    0.0    2.4   0.00   3.87    2.1    1.8    0.5    3.9   3.87   1.31    0.00    0.03
 1992 249    58    55    2.6    0.0    2.6   0.00   3.80    2.5    2.0    0.5    3.8   3.80   1.26    0.00    0.04
 1992 250    59    56    2.8    0.0    2.8   0.00   3.81    2.9    2.3    0.5    3.8   3.81   1.25    0.00    0.04
 1992 251    60    57    3.1    0.0    3.1   0.00   3.72    3.4    2.6    0.5    3.7   3.72   1.22    0.00    0.05
 1992 252    61    58    3.4    0.0    3.4   0.00   3.66    3.6    2.9    0.5    3.7   3.66   1.09    0.00    0.06
 1992 253    62    59    3.9    0.0    3.9   0.00   3.66    4.2    3.4    0.5    3.7   3.66   1.15    0.00    0.06
 1992 254    63    60    4.4    0.0    4.4   0.00   3.61    4.9    3.8    0.5    3.6   3.61   1.17    0.00    0.07
 1992 255    64    61    4.9    0.0    4.9   0.00   3.58    5.5    4.4    0.5    3.6   3.58   1.12    0.00    0.08
 1992 256    65    62    5.6    0.0    5.6   0.00   3.66    6.7    5.1    0.5    3.7   3.66   1.23    0.00    0.09
 1992 257    66    63    6.2    0.0    6.2   0.00   3.81    7.3    5.6    0.5    3.8   3.81   1.17    0.00    0.10
 1992 258    67    64    6.5    0.0    6.5   0.00   3.75    8.2    6.0    0.5    3.8   3.75   1.22    0.00    0.11
 1992 259    68    65    7.0    0.0    7.0   0.00   3.65    9.2    6.5    0.5    3.6   3.65   1.23    0.00    0.13
 1992 260    69    66    7.6    0.0    7.6   0.00   3.56    9.8    7.1    0.5    3.6   3.56   1.15    0.00    0.14
 1992 261    70    67    8.5    0.0    8.5   0.00   3.40   11.0    8.0    0.5    3.4   3.40   1.15    0.00    0.16
 1992 262    71    68    9.9    0.0    9.9   0.00   3.72   13.3    9.3    0.5    3.7   3.72   1.25    0.00    0.18
 1992 263    72    69   10.4    0.0   10.4   0.00   3.71   14.5    9.9    0.5    3.7   3.71   1.24    0.00    0.20
 1992 264    73    70   11.0    0.0   11.0   0.00   3.55   15.7   10.5    0.5    3.5   3.55   1.20    0.00    0.23
 1992 265    74    71   12.0    0.0   12.0   0.00   3.57   17.5   11.5    0.5    3.6   3.57   1.19    0.00    0.26
 1992 266    75    72   13.1    0.0   13.1   0.00   3.78   18.2   12.6    0.5    3.8   3.78   1.11    0.00    0.29
 1992 267    76    73   13.3    0.0   13.3   0.00   3.60   19.2   12.8    0.5    3.6   3.60   1.17    0.00    0.32
 1992 268    77    74   15.0    0.0   15.0   0.00   3.90   20.6   14.4    0.5    3.9   3.90   1.10    0.00    0.36
 1992 269    78    75   14.6    0.0   14.6   0.00   3.75   21.9   14.1    0.5    3.7   3.75   1.30    0.00    0.39
 1992 270    79    76   14.6    0.0   14.6   0.00   3.67   22.2   14.1    0.5    3.7   3.67   1.27    0.00    0.44
 1992 271    80    77   15.0    0.0   15.0   0.00   3.58   22.6   14.5    0.5    3.6   3.58   1.16    0.00    0.48
 1992 272    81    78   16.0    0.0   16.0   0.00   3.55   24.3   15.5    0.5    3.6   3.55   1.16    0.00    0.52
 1992 273    82    79   17.2    0.0   17.2   0.00   3.53   26.3   16.7    0.5    3.5   3.53   1.16    0.00    0.57
 1992 274    83    80   19.1    0.0   19.1   0.00   3.49   28.8   18.5    0.5    3.5   3.49   1.14    0.00    0.62
 1992 275    84    81   21.0    0.0   21.0   0.00   3.45   30.5   20.4    0.6    3.5   3.45   1.10    0.00    0.68
 1992 276    85    82   22.6    0.0   22.6   0.00   3.42   32.5   22.0    0.6    3.4   3.42   1.10    0.00    0.73
 1992 277    86    83   24.1    0.0   24.1   0.00   3.40   35.1   23.4    0.7    3.4   3.40   1.14    0.00    0.79
 1992 278    87    84   26.3    0.0   26.3   0.00   3.36   37.9   25.4    0.9    3.4   3.36   1.13    0.00    0.85
 1992 279    88    85   28.0    0.0   28.0   0.00   3.34   39.1   27.0    1.0    3.3   3.34   1.08    0.00    0.91
 1992 280    89    86   29.3    0.0   29.3   0.00   3.37   43.0   28.2    1.1    3.4   3.37   1.21    0.00    0.97
 1992 281    90    87   30.1    0.0   30.1   0.00   3.37   44.5   28.9    1.2    3.4   3.37   1.20    0.00    1.05
 1992 282    91    88   30.9    0.0   30.9   0.00   3.32   46.4   29.6    1.3    3.3   3.32   1.18    0.00    1.12
 1992 283    92    89   32.3    0.0   32.3   0.00   3.29   48.8   30.9    1.4    3.3   3.29   1.15    0.00    1.21
 1992 284    93    90   34.6    0.0   34.6   0.00   3.26   52.2   32.8    1.7    3.3   3.26   1.15    0.00    1.29
 1992 285    94    91   37.3    0.0   37.3   0.00   3.23   54.9   35.2    2.2    3.2   3.23   1.11    0.00    1.39
 1992 286    95    92   40.2    0.0   40.2   0.00   3.20   59.3   37.5    2.7    3.2   3.20   1.13    0.00    1.48
 1992 287    96    93   42.7    0.0   42.7   0.00   3.17   63.5   39.5    3.2    3.2   3.17   1.14    0.00    1.58
 1992 288    97    94   46.3    0.0   46.3   0.00   3.13   68.0   42.3    4.0    3.1   3.13   1.13    0.00    1.69
 1992 289    98    95   48.9    0.0   48.9   0.00   3.08   69.4   44.1    4.8    3.1   3.08   1.07    0.00    1.81
 1992 290    99    96   51.4    0.0   51.4   0.00   3.01   72.0   45.8    5.6    3.0   3.01   1.07    0.00    1.91
 1992 291   100    97   52.5    0.0   52.5   0.00   2.90   73.9   46.1    6.3    2.9   2.90   1.05    0.00    2.02
 1992 292   101    98   53.3    0.0   53.3   0.00   2.81   75.4   46.4    6.8    2.8   2.81   1.00    0.00    2.13
 1992 293   102    99   54.3    0.0   54.3   0.00   2.73   76.8   46.9    7.5    2.7   2.73   1.01    0.00    2.25
 1992 294   103   100   55.1    0.0   55.1   0.00   2.65   78.0   47.1    8.0    2.7   2.65   0.97    0.00    2.37
 1992 295   104   101   55.7    0.0   55.7   0.00   2.58   79.0   47.1    8.5    2.6   2.58   0.92    0.00    2.49
 1992 296   105   102   56.2    0.0   56.2   0.00   2.48   79.9   47.0    9.2    2.5   2.48   0.89    0.00    2.61
 1992 297   106   103   56.8    0.0   56.8   0.00   2.33   80.8   46.6   10.2    2.3   2.33   0.86    0.00    2.73
 1992 298   107   104   57.4    0.0   57.4   0.00   2.16   81.6   45.9   11.4    2.2   2.16   0.84    0.00    2.86
 1992 299   108   105   58.0    0.0   58.0   0.00   2.06   82.4   45.7   12.3    2.1   2.06   0.85    0.00    2.98
 1992 300   109   106   58.5    0.0   58.5   0.00   1.92   83.1   44.9   13.6    1.9   1.92   0.83    0.00    3.11
 1992 301   110   107   59.1    0.0   59.1   0.00   1.70   83.8   46.3   12.8    1.7   1.70   0.83    0.00    3.24
 1992 302   111   108   59.6    0.0   59.6   0.00   1.66   84.5   46.5   13.1    1.7   1.66   0.84    0.00    3.36
 1992 303   112   109   60.1    0.0   60.1   0.00   1.60   85.0   46.3   13.8    1.6   1.60   0.80    0.00    3.49
 1992 304   113   110   60.5    0.0   60.5   0.00   1.55   85.6   46.0   14.5    1.6   1.55   0.77    0.00    3.62
 1992 305   114   111   60.9    0.0   60.9   0.00   1.50   86.1   45.6   15.3    1.5   1.50   0.75    0.00    3.75
 1992 306   115   112   61.1    0.0   61.1   0.00   1.44   86.4   44.9   16.3    1.4   1.44   0.72    0.00    3.88
 1992 307   116   113   61.4    0.0   61.4   0.00   1.38   86.7   43.9   17.5    1.4   1.38   0.71    0.00    4.01
 1992 308   117   114   61.7    0.0   61.7   0.00   1.35   87.2   43.6   18.1    1.4   1.35   0.69    0.00    4.14
 1992 309   118   115   62.0    0.0   62.0   0.00   1.35   87.5   43.6   18.3    1.3   1.35   0.67    0.00    4.28
 1992 310   119   116   62.2    0.0   62.2   0.00   1.34   87.9   43.6   18.6    1.3   1.34   0.65    0.00    4.41
 1992 311   120   117   62.5    0.0   62.5   0.00   1.33   88.3   43.5   19.0    1.3   1.33   0.63    0.00    4.54
 1992 312   121   118   62.8    0.0   62.8   0.00   1.31   88.6   43.2   19.5    1.3   1.31   0.61    0.00    4.67
 1992 313   122   119   63.0    0.0   63.0   0.00   1.28   88.9   42.8   20.2    1.3   1.28   0.59    0.00    4.80
 1992 314   123   120   63.2    0.0   63.2   0.00   1.25   89.2   42.2   21.0    1.2   1.25   0.58    0.00    4.94
 1992 315   124   121   63.5    0.0   63.5   0.00   1.22   89.6   41.8   21.6    1.2   1.22   0.59    0.00    5.07
 1992 316   125   122   63.6    0.0   63.6   0.00   1.19   89.8   41.1   22.5    1.2   1.19   0.58    0.00    5.21
 1992 317   126   123   63.8    0.0   63.8   0.00   1.15   90.1   40.5   23.3    1.2   1.15   0.57    0.00    5.34
 1992 318   127   124   64.1    0.0   64.1   0.00   1.13   90.5   40.1   24.1    1.1   1.13   0.56    0.00    5.48
 1992 319   128   125   64.4    0.0   64.4   0.00   1.10   90.9   39.6   24.8    1.1   1.10   0.55    0.00    5.61
 1992 320   129   126   64.7    0.0   64.7   0.00   1.08   91.3   39.2   25.5    1.1   1.08   0.55    0.00    5.75
 1992 321   130   127   64.9    0.0   64.9   0.00   1.07   91.5   39.0   25.9    1.1   1.07   0.53    0.00    5.88
 1992 322   131   128   65.1    0.0   65.1   0.00   1.06   91.9   38.9   26.2    1.1   1.06   0.52    0.00    6.02
 1992 323   132   129   65.4    0.0   65.4   0.00   1.05   92.3   38.8   26.6    1.1   1.05   0.51    0.00    6.16
 1992 324   133   130   65.6    0.0   65.6   0.00   1.04   92.6   38.5   27.1    1.0   1.04   0.50    0.00    6.29
 1992 325   134   131   65.8    0.0   65.8   0.00   1.02   92.9   38.2   27.7    1.0   1.02   0.50    0.00    6.43
 1992 326   135   132   78.5    0.0   78.5   0.00   1.31  110.6   48.6   30.0    1.3   1.31   0.59    0.00    6.57
 1992 327   136   133   81.8    0.0   81.8   0.00   1.37  115.5   50.1   31.6    1.4   1.37   0.61    0.00    6.73
 1992 328   137   134   83.8    0.0   83.8   0.00   1.40  118.7   50.9   32.8    1.4   1.40   0.62    0.00    6.91
 1992 329   138   135   84.6    0.0   84.6   0.00   1.42  119.9   50.8   33.8    1.4   1.42   0.62    0.00    7.08
 1992 330   139   136   84.8    0.0   84.8   0.00   1.42  120.3   50.2   34.6    1.4   1.42   0.61    0.00    7.26
 1992 331   140   137   84.9    0.0   84.9   0.00   1.42  120.5   49.5   35.4    1.4   1.42   0.61    0.00    7.44
 1992 332   141   138   85.0    0.0   85.0   0.00   1.42  120.7   48.8   36.2    1.4   1.42   0.60    0.00    7.62
 1992 333   142   139   85.2    0.0   85.2   0.00   1.42  121.0   48.1   37.1    1.4   1.42   0.60    0.00    7.80
 1992 334   143   140   85.4    0.0   85.4   0.00   1.41  121.3   47.3   38.1    1.4   1.41   0.61    0.00    7.98
 1992 335   144   141   85.5    0.0   85.5   0.00   1.41  121.5   46.4   39.1    1.4   1.41   0.61    0.00    8.17
 1992 336   145   142   85.6    0.0   85.6   0.00   1.41  121.7   45.6   39.9    1.4   1.41   0.60    0.00    8.35
 1992 337   146   143   85.7    0.0   85.7   0.00   1.42  121.9   44.9   40.7    1.4   1.42   0.59    0.00    8.53
 1992 338   147   144   85.9    0.0   85.9   0.00   1.43  122.3   44.2   41.6    1.4   1.43   0.58    0.00    8.71
 1992 339   148   145   86.0    0.0   86.0   0.00   1.43  122.7   43.4   42.7    1.4   1.43   0.58    0.00    8.90
 1992 340   149   146   86.2    0.0   86.2   0.00   1.43  123.1   42.5   43.7    1.4   1.43   0.58    0.00    9.08
 1992 341   150   147   86.4    3.1   83.3   1.35   1.38  123.5   41.0   42.2    1.4   1.38   0.58    0.00    9.27
 1992 342   151   148   86.5    5.6   80.9   1.33   1.34  123.7   39.9   41.0    1.3   1.34   0.58    0.00    9.46
 1992 343   152   149   86.6    8.1   78.6   1.31   1.30  124.0   38.7   39.9    1.3   1.30   0.59    0.00    9.64
 1992 344   153   150   86.8   10.6   76.2   1.30   1.26  124.4   37.6   38.7    1.3   1.26   0.59    0.00    9.83
 1992 345   154   151   87.0   13.3   73.7   1.29   1.22  124.8   36.3   37.4    1.2   1.22   0.59    0.00   10.02
 1992 346   155   152   87.2   15.6   71.6   1.28   1.19  125.1   35.3   36.3    1.2   1.19   0.59    0.00   10.21
 1992 347   156   153   87.4   17.7   69.7   1.27   1.16  125.5   34.3   35.3    1.2   1.16   0.60    0.00   10.40
 1992 348   157   154   87.5   20.2   67.3   1.26   1.12  125.8   33.2   34.1    1.1   1.12   0.60    0.00   10.59
 1992 349   158   155   87.7   22.6   65.1   1.24   1.08  126.2   32.1   33.0    1.1   1.08   0.60    0.00   10.79
 1992 350   159   156   87.9   24.4   63.6   1.23   1.05  126.6   31.3   32.2    1.1   1.05   0.60    0.00   10.98
 1992 351   160   157   88.0   26.5   61.5   1.22   1.02  126.8   30.3   31.2    1.0   1.02   0.60    0.00   11.17
 1992 352   161   158   88.2   28.8   59.4   1.21   0.99  127.2   29.3   30.1    1.0   0.99   0.60    0.00   11.37
 1992 353   162   159   88.4   31.1   57.3   1.20   0.95  127.5   28.2   29.1    1.0   0.95   0.61    0.00   11.56
 1992 354   163   160   88.6   33.3   55.3   1.18   0.92  127.9   27.3   28.0    0.9   0.92   0.61    0.00   11.76
 1992 355   164   161   88.8   35.5   53.3   1.17   0.88  128.2   26.2   27.0    0.9   0.88   0.61    0.00   11.96
 1992 356   165   162   89.0   37.6   51.4   1.16   0.85  128.6   25.3   26.1    0.9   0.85   0.62    0.00   12.15
 1992 357   166   163   89.1   39.6   49.5   1.15   0.84  128.9   24.8   24.7    0.8   0.84   0.62    0.00   12.35
 1992 358   167   164   89.2   41.6   47.6   1.13   0.82  129.1   24.3   23.3    0.8   0.82   0.63    0.00   12.55
 1992 359   168   165   89.4   43.6   45.9   1.12   0.79  129.5   23.3   22.5    0.8   0.79   0.63    0.00   12.75
 1992 360   169   166   89.6   45.3   44.3   1.11   0.76  129.8   22.5   21.8    0.8   0.76   0.64    0.00   12.95
 1992 361   170   167   89.8   46.8   43.0   1.10   0.73  130.2   21.7   21.3    0.7   0.73   0.64    0.00   13.15
 1992 362   171   168   90.1   48.3   41.8   1.09   0.71  130.7   21.0   20.8    0.7   0.71   0.64    0.00   13.35
 1992 363   172   169   90.3   50.0   40.3   1.08   0.68  131.1   20.2   20.1    0.7   0.68   0.65    0.00   13.55
 1992 364   173   170   90.6   51.7   38.9   1.06   0.67  131.5   20.0   18.9    0.7   0.67   0.66    0.00   13.76
 1992 365   174   171   90.8   53.1   37.7   1.05   0.67  131.9   19.9   17.8    0.7   0.67   0.66    0.00   13.96
 1992 366   175   172   90.9   54.3   36.6   1.04   0.66  132.3   19.7   16.9    0.7   0.66   0.67    0.00   14.17
 1993 001   176   173   90.9   55.7   35.3   1.03   0.65  132.3   19.4   15.9    0.7   0.65   0.67    0.00   14.37
 1993 002   177   174   91.0   57.0   34.0   1.02   0.65  132.4   19.2   14.8    0.6   0.65   0.68    0.00   14.58
 1993 003   178   175   91.1   58.3   32.8   1.01   0.64  132.6   19.0   13.8    0.6   0.64   0.68    0.00   14.78
 1993 004   179   176   91.2   59.8   31.3   1.00   0.63  132.7   18.6   12.7    0.6   0.63   0.68    0.00   14.99
 1993 005   180   177   91.3   61.4   29.9   0.99   0.61  132.9   18.0   11.9    0.6   0.61   0.69    0.00   15.20
 1993 006   181   178   91.4   62.4   29.1   0.98   0.59  133.2   17.6   11.4    0.6   0.59   0.69    0.00   15.40
 1993 007   182   179   91.6   62.7   28.9   0.98   0.59  133.6   17.5   11.3    0.6   0.59   0.70    0.00   15.61
 1993 008   183   180   91.8   63.4   28.5   0.98   0.58  134.1   17.3   11.2    0.6   0.58   0.71    0.00   15.82
 1993 009   184   181   91.9   64.2   27.7   0.97   0.57  134.3   16.8   10.9    0.6   0.57   0.71    0.00   16.03
 1993 010   185   182   92.2   65.0   27.1   0.96   0.55  134.7   16.5   10.7    0.6   0.55   0.72    0.00   16.24
 1993 011   186   183   92.4   65.7   26.7   0.96   0.55  135.2   16.2   10.5    0.5   0.55   0.73    0.00   16.45
 1993 012   187   184   92.7   66.4   26.3   0.95   0.54  135.7   16.0   10.3    0.5   0.54   0.73    0.00   16.66
 1993 013   188   185   92.7   66.4   26.3   0.95   0.54  136.2   16.0   10.3    0.5   0.54   0.73    0.00   16.66
 1993 014   189   186   92.7   66.4   26.3   0.95   0.54  136.7   16.0   10.3    0.5   0.54   0.73    0.00   16.66
 1993 015   190   187   92.7   66.4   26.3   0.95   0.54  137.2   16.0   10.3    0.5   0.54   0.73    0.00   16.66
