*SOIL N BALANCE - CERES SOIL N&C ROUTINES

*DSSAT Cropping System Model Ver. 4.0.2.000               Aug 03, 2016; 12:24:37

*RUN   1        : UYMZ                    
 MODEL          : MZCER040 - Maize           
 EXPERIMENT     : UYMZ0110 MZ    late to create DSS                             
 TREATMENT  1   : UYMZ                    



                                         INITIAL Year/Doy      FINAL Year/Doy
                                                 1990/191            1991/010
SOIL N BALANCE                                  -----------kg N/ha-----------

   Soil Humus N                                  12327.10            12253.29
   Soil Litter N                                     0.00                8.62
   N in Surface Residue                              0.00                0.00
   Soil NO3                                         63.29               37.00
   Soil NH4                                         21.32               13.41
   Soil Urea                                         0.00                0.00

   Added to / Removed from Soil:
   N in Harvest Residues from Previous Crop          0.00
   N from Organic Applications                       0.00
   N from senesced plant matter                      9.81
   Fertilizer N                                     26.00
   Leached NO3                                                          20.08
   N Denitrified                                                         1.32
   N Uptake From Soil                                                  113.45
   Ammonia volatilization                                                0.35

   Total N balance                               12447.51            12447.52

================================================================================

*DSSAT Cropping System Model Ver. 4.0.2.000               Aug 03, 2016; 12:24:37

*RUN   2        : UYMZ                    
 MODEL          : MZCER040 - Maize           
 EXPERIMENT     : UYMZ0110 MZ    late to create DSS                             
 TREATMENT  1   : UYMZ                    



                                         INITIAL Year/Doy      FINAL Year/Doy
                                                 1991/191            1992/006
SOIL N BALANCE                                  -----------kg N/ha-----------

   Soil Humus N                                  12327.10            12255.24
   Soil Litter N                                     0.00                8.43
   N in Surface Residue                              0.00                0.00
   Soil NO3                                         63.29               38.38
   Soil NH4                                         21.32               15.72
   Soil Urea                                         0.00                0.00

   Added to / Removed from Soil:
   N in Harvest Residues from Previous Crop          0.00
   N from Organic Applications                       0.00
   N from senesced plant matter                      9.55
   Fertilizer N                                     26.00
   Leached NO3                                                          32.64
   N Denitrified                                                         3.52
   N Uptake From Soil                                                   92.94
   Ammonia volatilization                                                0.39

   Total N balance                               12447.25            12447.26

================================================================================

*DSSAT Cropping System Model Ver. 4.0.2.000               Aug 03, 2016; 12:24:37

*RUN   3        : UYMZ                    
 MODEL          : MZCER040 - Maize           
 EXPERIMENT     : UYMZ0110 MZ    late to create DSS                             
 TREATMENT  1   : UYMZ                    



                                         INITIAL Year/Doy      FINAL Year/Doy
                                                 1992/191            1993/015
SOIL N BALANCE                                  -----------kg N/ha-----------

   Soil Humus N                                  12327.10            12253.40
   Soil Litter N                                     0.00               13.07
   N in Surface Residue                              0.00                0.00
   Soil NO3                                         63.29               31.17
   Soil NH4                                         21.32               12.08
   Soil Urea                                         0.00                0.00

   Added to / Removed from Soil:
   N in Harvest Residues from Previous Crop          0.00
   N from Organic Applications                       0.00
   N from senesced plant matter                     16.66
   Fertilizer N                                     26.00
   Leached NO3                                                           8.18
   N Denitrified                                                         0.42
   N Uptake From Soil                                                  135.72
   Ammonia volatilization                                                0.33

   Total N balance                               12454.37            12454.37
