*SOIL-PLANT-ATMOSPHERE MODULE OUTPUT FILE

*DSSAT Cropping System Model Ver. 4.0.2.000               Aug 03, 2016; 15:09:39

*RUN   1        : UYMZ                    
 MODEL          : MZCER040 - Maize           
 EXPERIMENT     : UYMZ0126 MZ    late to create DSS                             
 TREATMENT  1   : UYMZ                    

@YEAR DOY   DAS   SRAA   TMXA   TMNA   EOAA   ETAA   EPAA   ESAA   EFAD   ETAC   EPAC   ESAC   EFAC
 1987 184     0   3.70  18.00  11.00  0.807  0.807  0.000  0.807  0.000    0.8    0.0    0.8    0.0
 1987 185     1  12.80  19.90   7.80  2.783  2.783  0.000  2.783  0.000    3.6    0.0    3.6    0.0
 1987 186     2  12.70  22.50   8.10  2.867  2.684  0.000  2.684  0.000    6.3    0.0    6.3    0.0
 1987 187     3  12.80  23.10   7.80  2.904  2.904  0.000  2.904  0.000    9.2    0.0    9.2    0.0
 1987 188     4   7.30  18.50   8.80  1.571  1.571  0.000  1.571  0.000   10.7    0.0   10.7    0.0
 1987 189     5   8.50  19.00   8.80  1.842  1.715  0.000  1.715  0.000   12.5    0.0   12.5    0.0
 1987 190     6   3.80  16.40  10.30  0.806  0.806  0.000  0.806  0.000   13.3    0.0   13.3    0.0
 1987 191     7  10.80  22.30  12.90  2.534  2.534  0.000  2.534  0.000   15.8    0.0   15.8    0.0
 1987 192     8   4.80  24.70  14.80  1.178  1.178  0.000  1.178  0.000   17.0    0.0   17.0    0.0
 1987 193     9   9.00  20.20  10.40  2.011  2.011  0.000  2.011  0.000   19.0    0.0   19.0    0.0
 1987 194    10   4.10  15.50  11.00  0.864  0.864  0.000  0.864  0.000   19.9    0.0   19.9    0.0
 1987 195    11   7.00  20.70  10.30  1.573  1.573  0.000  1.573  0.000   21.4    0.0   21.4    0.0
 1987 196    12  10.50  28.00  16.70  2.719  1.781  0.000  1.781  0.000   23.2    0.0   23.2    0.0
 1987 197    13   6.10  25.20  11.10  1.461  1.461  0.004  1.457  0.000   24.7    0.0   24.7    0.0
 1987 198    14   3.90  12.60   9.80  0.779  0.779  0.003  0.775  0.000   25.5    0.0   25.4    0.0
 1987 199    15  13.50  11.60   3.70  2.493  1.422  0.012  1.410  0.000   26.9    0.0   26.9    0.0
 1987 200    16  12.50   5.40  -3.60  1.899  1.103  0.009  1.094  0.000   28.0    0.0   27.9    0.0
 1987 201    17  11.70  13.80   0.50  2.164  0.928  0.001  0.927  0.000   28.9    0.0   28.9    0.0
 1987 202    18  11.20  15.30   0.10  2.112  0.820  0.001  0.819  0.000   29.7    0.0   29.7    0.0
 1987 203    19   4.00  14.90   3.70  0.778  0.742  0.000  0.741  0.000   30.5    0.0   30.4    0.0
 1987 204    20   4.10  15.50  12.40  0.875  0.875  0.001  0.875  0.000   31.3    0.0   31.3    0.0
 1987 205    21   5.80  21.10  11.60  1.325  1.325  0.002  1.323  0.000   32.7    0.0   32.6    0.0
 1987 206    22   7.50  27.70  19.00  1.969  1.969  0.007  1.962  0.000   34.6    0.0   34.6    0.0
 1987 207    23   4.10  12.10  11.30  0.824  0.824  0.005  0.819  0.000   35.5    0.0   35.4    0.0
 1987 208    24   4.20  22.30  12.50  0.981  0.981  0.007  0.974  0.000   36.4    0.1   36.4    0.0
 1987 209    25  11.60  17.00   7.50  2.412  2.412  0.028  2.383  0.000   38.9    0.1   38.8    0.0
 1987 210    26   4.20  14.00  11.90  0.872  0.872  0.013  0.859  0.000   39.7    0.1   39.6    0.0
 1987 211    27  14.60  12.80   6.80  2.831  2.831  0.052  2.780  0.000   42.6    0.1   42.4    0.0
 1987 212    28   9.80  11.90   3.70  1.814  1.814  0.036  1.778  0.000   44.4    0.2   44.2    0.0
 1987 213    29  15.20  18.40   4.80  3.138  2.484  0.060  2.424  0.000   46.9    0.2   46.6    0.0
 1987 214    30  14.40  19.50   7.40  3.092  2.723  0.069  2.654  0.000   49.6    0.3   49.3    0.0
 1987 215    31  14.00  17.50   3.00  2.800  1.489  0.078  1.411  0.000   51.1    0.4   50.7    0.0
 1987 216    32   8.10  14.10   4.80  1.568  1.138  0.043  1.095  0.000   52.2    0.4   51.8    0.0
 1987 217    33   4.40  12.00   9.90  0.868  0.868  0.025  0.843  0.000   53.1    0.5   52.6    0.0
 1987 218    34   4.50   9.60   7.70  0.836  0.836  0.026  0.810  0.000   53.9    0.5   53.4    0.0
 1987 219    35   9.20  14.40   8.00  1.845  1.845  0.059  1.786  0.000   55.8    0.5   55.2    0.0
 1987 220    36   7.10  16.60   6.70  1.452  1.452  0.049  1.403  0.000   57.2    0.6   56.6    0.0
 1987 221    37  11.70  18.00   7.60  2.460  2.460  0.090  2.370  0.000   59.7    0.7   59.0    0.0
 1987 222    38   6.20  18.10   9.90  1.332  0.998  0.055  0.943  0.000   60.7    0.7   59.9    0.0
 1987 223    39  10.30  19.40  12.90  2.311  2.311  0.110  2.201  0.000   63.0    0.8   62.1    0.0
 1987 224    40   4.70  17.40  12.50  1.022  1.022  0.058  0.964  0.000   64.0    0.9   63.1    0.0
 1987 225    41   4.70  16.00  11.90  0.996  0.996  0.065  0.931  0.000   65.0    1.0   64.0    0.0
 1987 226    42   7.60  20.40  10.80  1.690  1.690  0.122  1.568  0.000   66.7    1.1   65.6    0.0
 1987 227    43   7.10  17.00  10.00  1.496  1.496  0.115  1.381  0.000   68.2    1.2   67.0    0.0
 1987 228    44  16.10  13.10   6.40  3.095  3.095  0.248  2.847  0.000   71.3    1.5   69.8    0.0
 1987 229    45   5.70   8.20   5.10  0.999  0.999  0.082  0.917  0.000   72.3    1.5   70.7    0.0
 1987 230    46   6.10  10.40   5.90  1.118  1.118  0.091  1.027  0.000   73.4    1.6   71.8    0.0
 1987 231    47  14.00  10.40   3.60  2.503  1.595  0.205  1.390  0.000   75.0    1.8   73.2    0.0
 1987 232    48   8.60  11.40   4.40  1.577  1.577  0.122  1.455  0.000   76.6    2.0   74.6    0.0
 1987 233    49   6.40  14.10   7.30  1.261  1.261  0.097  1.164  0.000   77.8    2.1   75.8    0.0
 1987 234    50  17.90  18.30   5.20  3.671  1.615  0.296  1.320  0.000   79.4    2.3   77.1    0.0
 1987 235    51  16.60  19.20   4.90  3.435  1.350  0.299  1.051  0.000   80.8    2.6   78.1    0.0
 1987 236    52  11.30  20.60   6.40  2.415  1.126  0.226  0.900  0.000   81.9    2.9   79.0    0.0
 1987 237    53  15.00  22.00  12.90  3.452  1.156  0.356  0.800  0.000   83.1    3.2   79.8    0.0
 1987 238    54  16.70  21.20   7.50  3.620  1.162  0.434  0.728  0.000   84.2    3.7   80.6    0.0
 1987 239    55  13.00  22.40  10.80  2.941  1.062  0.390  0.672  0.000   85.3    4.1   81.2    0.0
 1987 240    56   5.30  17.00  12.70  1.132  1.132  0.169  0.963  0.000   86.4    4.2   82.2    0.0
 1987 241    57   5.40  13.00   8.50  1.045  1.045  0.170  0.876  0.000   87.5    4.4   83.1    0.0
 1987 242    58  18.00  13.80   4.50  3.385  3.385  0.567  2.818  0.000   90.9    5.0   85.9    0.0
 1987 243    59  18.60  14.60   2.80  3.481  3.243  0.579  2.663  0.000   94.1    5.5   88.6    0.0
 1987 244    60  11.70  17.60   5.70  2.361  2.361  0.363  1.997  0.000   96.5    5.9   90.6    0.0
 1987 245    61   5.50  14.60   9.00  1.096  1.096  0.177  0.919  0.000   97.6    6.1   91.5    0.0
 1987 246    62  19.50  17.20   6.00  3.914  2.182  0.663  1.519  0.000   99.7    6.7   93.0    0.0
 1987 247    63  19.40  15.40   3.00  3.676  1.799  0.657  1.142  0.000  101.5    7.4   94.1    0.0
 1987 248    64  11.60  15.90   2.10  2.198  1.326  0.371  0.955  0.000  102.9    7.8   95.1    0.0
 1987 249    65  19.40  15.00   2.40  3.648  1.381  0.543  0.838  0.000  104.2    8.3   95.9    0.0
 1987 250    66  16.20  18.10   4.00  3.248  1.195  0.439  0.756  0.000  105.4    8.8   96.7    0.0
 1987 251    67   9.80  22.40   7.90  2.160  0.994  0.300  0.694  0.000  106.4    9.1   97.4    0.0
 1987 252    68   5.90  21.50  12.30  1.331  0.854  0.209  0.645  0.000  107.3    9.3   98.0    0.0
 1987 253    69  15.60  16.60   7.40  3.141  1.168  0.563  0.605  0.000  108.5    9.8   98.6    0.0
 1987 254    70  19.70  18.30   4.30  3.940  1.323  0.751  0.572  0.000  109.8   10.6   99.2    0.0
 1987 255    71  20.60  18.20   3.30  4.070  1.343  0.800  0.543  0.000  111.1   11.4   99.7    0.0
 1987 256    72  19.20  24.90   6.30  4.276  1.346  0.827  0.519  0.000  112.5   12.2  100.3    0.0
 1987 257    73   6.10  18.30  15.60  1.347  0.790  0.293  0.498  0.000  113.3   12.5  100.8    0.0
 1987 258    74  12.40  16.90   7.00  2.473  2.473  0.608  1.865  0.000  115.7   13.1  102.6    0.0
 1987 259    75  21.50  12.00   3.10  3.820  3.820  0.991  2.829  0.000  119.6   14.1  105.5    0.0
 1987 260    76  15.50  16.80   5.50  3.044  2.645  0.743  1.903  0.000  122.2   14.8  107.4    0.0
 1987 261    77  13.90  16.90   6.10  2.745  2.745  0.699  2.046  0.000  124.9   15.5  109.4    0.0
 1987 262    78  21.20  14.30   3.80  3.932  2.780  1.037  1.743  0.000  127.7   16.6  111.2    0.0
 1987 263    79  20.70  17.00   1.50  3.910  2.239  1.014  1.225  0.000  130.0   17.6  112.4    0.0
 1987 264    80  12.40  13.90   4.20  2.310  1.512  0.510  1.002  0.000  131.5   18.1  113.4    0.0
 1987 265    81  17.10  15.00   1.20  3.142  1.559  0.690  0.869  0.000  133.0   18.8  114.2    0.0
 1987 266    82  16.60  17.30   5.60  3.319  1.372  0.594  0.778  0.000  134.4   19.4  115.0    0.0
 1987 267    83  22.60  20.20   4.60  4.654  1.612  0.901  0.711  0.000  136.0   20.3  115.7    0.0
 1987 268    84  20.00  24.20   5.90  4.387  1.585  0.926  0.659  0.000  137.6   21.2  116.4    0.0
 1987 269    85  16.90  25.40  12.80  3.970  1.576  0.960  0.616  0.000  139.2   22.2  117.0    0.0
 1987 270    86  17.40  20.90  10.30  3.756  1.651  1.070  0.581  0.000  140.8   23.2  117.6    0.0
 1987 271    87  21.10  19.70   7.90  4.370  1.914  1.362  0.552  0.000  142.7   24.6  118.1    0.0
 1987 272    88  19.00  24.70   7.20  4.165  1.908  1.382  0.526  0.000  144.7   26.0  118.7    0.0
 1987 273    89   6.90  20.10  12.00  1.479  1.479  0.532  0.947  0.000  146.1   26.5  119.6    0.0
 1987 274    90  22.60  19.10   8.20  4.601  3.934  1.784  2.149  0.000  150.1   28.3  121.8    0.0
 1987 275    91  20.70  17.00   6.30  4.006  4.006  1.644  2.362  0.000  154.1   29.9  124.1    0.0
 1987 276    92  15.20  19.90   5.40  3.032  2.780  1.289  1.491  0.000  156.9   31.2  125.6    0.0
 1987 277    93  23.10  23.50   9.30  4.992  3.346  2.216  1.130  0.000  160.2   33.4  126.8    0.0
 1987 278    94  23.40  25.00  10.00  5.160  3.396  2.447  0.948  0.000  163.6   35.9  127.7    0.0
 1987 279    95  15.50  24.60   9.50  3.370  2.541  1.707  0.833  0.000  166.1   37.6  128.5    0.0
 1987 280    96   7.90  21.10  13.20  1.688  1.656  0.904  0.752  0.000  167.8   38.5  129.3    0.0
 1987 281    97  14.70  20.50  11.50  3.059  3.059  1.721  1.338  0.000  170.8   40.2  130.6    0.0
 1987 282    98  22.90  21.90   8.10  4.695  3.518  2.747  0.771  0.000  174.4   43.0  131.4    0.0
 1987 283    99  19.90  31.30  11.60  4.700  3.543  2.837  0.706  0.000  177.9   45.8  132.1    0.0
 1987 284   100  15.40  23.20  16.30  3.413  3.413  2.176  1.237  0.000  181.3   48.0  133.3    0.0
 1987 285   101  22.90  22.00  12.00  4.805  4.805  3.194  1.611  0.000  186.1   51.2  134.9    0.0
 1987 286   102  21.10  17.90   8.10  4.037  4.037  2.761  1.276  0.000  190.2   53.9  136.2    0.0
 1987 287   103  12.50  18.80   5.30  2.357  2.357  1.631  0.726  0.000  192.5   55.6  136.9    0.0
 1987 288   104   8.10  17.80  11.50  1.593  1.593  1.115  0.478  0.000  194.1   56.7  137.4    0.0
 1987 289   105  17.80  18.90  10.80  3.525  3.525  2.503  1.023  0.000  197.6   59.2  138.4    0.0
 1987 290   106  26.30  21.00   8.00  5.216  5.216  3.763  1.453  0.000  202.9   63.0  139.9    0.0
 1987 291   107  27.50  21.20   8.00  5.460  5.460  4.000  1.459  0.000  208.3   67.0  141.4    0.0
 1987 292   108  21.60  21.00  10.00  4.346  4.346  3.232  1.114  0.000  212.7   70.2  142.5    0.0
 1987 293   109  26.60  25.40   7.70  5.545  5.192  4.189  1.002  0.000  217.9   74.4  143.5    0.0
 1987 294   110  23.80  25.50  11.70  5.125  5.125  3.940  1.186  0.000  223.0   78.3  144.7    0.0
 1987 295   111  20.80  23.50  12.00  4.371  4.371  3.427  0.944  0.000  227.3   81.7  145.6    0.0
 1987 296   112  23.80  30.00  12.40  5.415  5.415  4.316  1.098  0.000  232.8   86.1  146.7    0.0
 1987 297   113  19.70  26.10  15.90  4.390  4.390  3.573  0.817  0.000  237.2   89.6  147.5    0.0
 1987 298   114  11.30  22.60  16.40  2.419  2.419  2.006  0.414  0.000  239.6   91.6  147.9    0.0
 1987 299   115   9.50  25.20  17.40  2.112  2.112  1.773  0.339  0.000  241.7   93.4  148.3    0.0
 1987 300   116   8.90  21.50  14.90  1.851  1.851  1.571  0.280  0.000  243.5   95.0  148.6    0.0
 1987 301   117  18.20  23.50  13.60  3.836  3.836  3.280  0.556  0.000  247.4   98.3  149.1    0.0
 1987 302   118  27.80  27.50  11.40  6.034  6.034  5.225  0.809  0.000  253.4  103.5  149.9    0.0
 1987 303   119  27.00  31.90  12.40  6.208  6.208  5.433  0.775  0.000  259.6  108.9  150.7    0.0
 1987 304   120  27.40  30.10  14.90  6.282  6.282  5.555  0.727  0.000  265.9  114.5  151.4    0.0
 1987 305   121  14.80  27.20  15.00  3.281  3.281  2.927  0.355  0.000  269.2  117.4  151.8    0.0
 1987 306   122  12.90  28.20  16.50  2.925  2.925  2.623  0.301  0.000  272.1  120.0  152.1    0.0
 1987 307   123  13.30  27.70  13.50  2.928  2.928  2.637  0.291  0.000  275.0  122.7  152.4    0.0
 1987 308   124   8.30  21.00  18.80  1.758  1.758  1.590  0.168  0.000  276.8  124.3  152.5    0.0
 1987 309   125   8.50  20.90  18.30  1.791  1.791  1.622  0.168  0.000  278.6  125.9  152.7    0.0
 1987 310   126  11.60  23.10  13.60  2.415  2.415  2.192  0.223  0.000  281.0  128.1  152.9    0.0
 1987 311   127  29.30  25.20  10.40  6.096  6.096  5.547  0.549  0.000  287.1  133.6  153.5    0.0
 1987 312   128  24.00  24.20  10.30  4.925  4.925  4.493  0.432  0.000  292.0  138.1  153.9    0.0
 1987 313   129  29.20  20.50   7.20  5.556  5.556  5.079  0.476  0.000  297.6  143.2  154.4    0.0
 1987 314   130  28.90  23.40   8.30  5.769  5.769  5.280  0.489  0.000  303.3  148.5  154.9    0.0
 1987 315   131  28.30  26.60  11.40  6.033  6.033  5.531  0.503  0.000  309.4  154.0  155.4    0.0
 1987 316   132  22.00  27.30  13.50  4.808  4.808  4.419  0.389  0.000  314.2  158.4  155.8    0.0
 1987 317   133  24.50  28.90  15.20  5.525  5.525  5.092  0.433  0.000  319.7  163.5  156.2    0.0
 1987 318   134  23.90  28.20  17.20  5.427  5.427  5.018  0.409  0.000  325.1  168.5  156.6    0.0
 1987 319   135  24.90  26.60  15.70  5.485  5.485  5.087  0.398  0.000  330.6  173.6  157.0    0.0
 1987 320   136  29.70  24.20  11.70  6.155  6.155  5.703  0.452  0.000  336.8  179.3  157.5    0.0
 1987 321   137  30.00  29.00  12.10  6.610  6.610  6.118  0.492  0.000  343.4  185.4  158.0    0.0
 1987 322   138  13.50  27.70  15.80  3.015  3.015  2.789  0.226  0.000  346.4  188.2  158.2    0.0
 1987 323   139  14.20  25.10  15.70  3.074  3.074  2.842  0.232  0.000  349.5  191.1  158.4    0.0
 1987 324   140  11.00  21.60  14.00  2.250  2.250  2.079  0.171  0.000  351.7  193.1  158.6    0.0
 1987 325   141  30.50  21.20  10.70  6.035  6.035  5.572  0.463  0.000  357.8  198.7  159.0    0.0
 1987 326   142  30.40  22.30   8.50  5.987  5.987  5.524  0.462  0.000  363.7  204.2  159.5    0.0
 1987 327   143  12.10  22.00  10.70  2.419  2.419  2.231  0.188  0.000  366.2  206.5  159.7    0.0
 1987 328   144  14.40  24.70  15.20  3.091  3.091  2.849  0.242  0.000  369.3  209.3  159.9    0.0
 1987 329   145  18.10  25.00  16.70  3.947  3.947  3.636  0.311  0.000  373.2  213.0  160.2    0.0
 1987 330   146  16.80  24.60  14.30  3.577  3.577  3.293  0.284  0.000  376.8  216.2  160.5    0.0
 1987 331   147  26.30  25.50  13.30  5.616  5.616  5.167  0.449  0.000  382.4  221.4  161.0    0.0
 1987 332   148  30.10  29.50  13.90  6.770  6.770  6.225  0.545  0.000  389.2  227.6  161.5    0.0
 1987 333   149  30.10  32.30  17.20  7.159  7.159  6.578  0.580  0.000  396.3  234.2  162.1    0.0
 1987 334   150  29.60  33.10  19.10  7.198  7.198  6.614  0.583  0.000  403.5  240.8  162.7    0.0
 1987 335   151  29.70  36.40  20.80  8.043  8.043  7.391  0.652  0.000  411.6  248.2  163.3    0.0
 1987 336   152  17.80  30.10  21.10  4.252  4.252  3.907  0.345  0.000  415.8  252.1  163.7    0.0
 1987 337   153   9.30  24.60  19.50  2.064  2.064  1.896  0.167  0.000  417.9  254.0  163.9    0.0
 1987 338   154  11.40  20.00  14.40  2.294  2.294  2.108  0.186  0.000  420.2  256.1  164.0    0.0
 1987 339   155  30.30  25.00  12.30  6.379  6.379  5.862  0.517  0.000  426.6  262.0  164.6    0.0
 1987 340   156  29.60  27.40  13.00  6.451  6.451  5.928  0.523  0.000  433.0  267.9  165.1    0.0
 1987 341   157  11.10  23.80  15.70  2.368  2.368  2.176  0.192  0.000  435.4  270.1  165.3    0.0
 1987 342   158  25.40  24.20  14.80  5.405  5.405  4.966  0.439  0.000  440.8  275.1  165.7    0.0
 1987 343   159  29.00  25.40  12.90  6.166  6.166  5.663  0.503  0.000  446.9  280.7  166.2    0.0
 1987 344   160  31.20  29.20  15.00  7.053  7.053  6.475  0.578  0.000  454.0  287.2  166.8    0.0
 1987 345   161  20.10  27.10  16.60  4.491  4.491  4.120  0.371  0.000  458.5  291.3  167.2    0.0
 1987 346   162  30.60  24.20  12.70  6.402  6.402  5.869  0.534  0.000  464.9  297.2  167.7    0.0
 1987 347   163  31.30  26.30  10.90  6.623  6.623  6.064  0.559  0.000  471.5  303.3  168.3    0.0
 1987 348   164  16.90  26.70  14.00  3.684  3.684  3.369  0.315  0.000  475.2  306.6  168.6    0.0
 1987 349   165  23.60  31.90  16.80  5.577  5.577  5.092  0.485  0.000  480.8  311.7  169.1    0.0
 1987 350   166  10.50  24.30  19.20  2.319  2.319  2.114  0.205  0.000  483.1  313.8  169.3    0.0
 1987 351   167  28.90  24.10  15.10  6.164  6.164  5.609  0.555  0.000  489.3  319.4  169.8    0.0
 1987 352   168  24.50  24.30  12.50  5.130  5.130  4.657  0.473  0.000  494.4  324.1  170.3    0.0
 1987 353   169  29.00  25.30  12.00  6.124  6.124  5.546  0.579  0.000  500.5  329.6  170.9    0.0
 1987 354   170  24.60  25.10  14.70  5.299  5.299  4.784  0.514  0.000  505.8  334.4  171.4    0.0
 1987 355   171  31.80  23.90  12.00  6.605  6.605  5.946  0.660  0.000  512.4  340.4  172.0    0.0
 1987 356   172  23.40  25.00  11.30  4.901  4.901  4.397  0.504  0.000  517.3  344.8  172.5    0.0
 1987 357   173  25.70  25.10  13.10  5.472  5.472  4.891  0.581  0.000  522.8  349.7  173.1    0.0
 1987 358   174  31.60  27.30  12.80  6.895  6.895  6.139  0.756  0.000  529.7  355.8  173.9    0.0
 1987 359   175   9.80  25.70  14.80  2.133  2.133  1.891  0.242  0.000  531.8  357.7  174.1    0.0
 1987 360   176  14.60  27.20  17.80  3.312  3.312  2.923  0.389  0.000  535.1  360.6  174.5    0.0
 1987 361   177  22.70  30.90  17.20  5.347  5.347  4.696  0.651  0.000  540.5  365.3  175.2    0.0
 1987 362   178  18.70  28.90  19.70  4.391  4.391  3.836  0.555  0.000  544.9  369.1  175.7    0.0
 1987 363   179   9.10  24.10  19.50  2.022  2.022  1.755  0.266  0.000  546.9  370.9  176.0    0.0
 1987 364   180  14.40  27.60  18.10  3.298  3.298  2.844  0.454  0.000  550.2  373.7  176.4    0.0
 1987 365   181  24.30  28.10  17.30  5.568  5.568  4.766  0.802  0.000  555.8  378.5  177.2    0.0
 1988 001   182  29.90  30.80  17.80  7.095  7.095  6.024  1.071  0.000  562.8  384.5  178.3    0.0
 1988 002   183  30.80  27.40  19.00  7.107  7.107  5.982  1.125  0.000  570.0  390.5  179.4    0.0
 1988 003   184  28.70  31.70  18.30  6.920  6.920  5.751  1.169  0.000  576.9  396.3  180.6    0.0
 1988 004   185  31.30  34.30  19.10  7.822  7.822  6.373  1.448  0.000  584.7  402.6  182.1    0.0
 1988 005   186  17.40  27.90  18.70  4.056  4.056  3.221  0.836  0.000  588.8  405.9  182.9    0.0
 1988 006   187  31.50  22.00  12.70  6.543  6.543  5.065  1.478  0.000  595.3  410.9  184.4    0.0
 1988 007   188  31.30  27.00  10.70  6.817  6.817  5.185  1.632  0.000  602.1  416.1  186.0    0.0
 1988 008   189  28.70  29.10  14.20  6.604  6.604  4.908  1.696  0.000  608.7  421.0  187.7    0.0
 1988 009   190  31.30  30.70  17.40  7.538  7.168  5.419  1.750  0.000  615.9  426.4  189.4    0.0
 1988 010   191  26.20  33.80  17.30  6.521  6.521  4.688  1.834  0.000  622.4  431.1  191.3    0.0
 1988 011   192  22.70  34.70  19.40  5.789  5.789  4.161  1.628  0.000  628.2  435.3  192.9    0.0

*DSSAT Cropping System Model Ver. 4.0.2.000               Aug 03, 2016; 15:09:39

*RUN   2        : UYMZ                    
 MODEL          : MZCER040 - Maize           
 EXPERIMENT     : UYMZ0126 MZ    late to create DSS                             
 TREATMENT  1   : UYMZ                    

@YEAR DOY   DAS   SRAA   TMXA   TMNA   EOAA   ETAA   EPAA   ESAA   EFAD   ETAC   EPAC   ESAC   EFAC
 1988 184     0   5.70  24.60  16.60  1.418  1.249  0.000  1.249  0.000    1.2    0.0    1.2    0.0
 1988 185     1   3.70  14.80   8.30  0.752  0.752  0.000  0.752  0.000    2.0    0.0    2.0    0.0
 1988 186     2   3.70   9.50   7.10  0.685  0.685  0.000  0.685  0.000    2.7    0.0    2.7    0.0
 1988 187     3   9.20  11.90   4.90  1.730  1.730  0.000  1.730  0.000    4.4    0.0    4.4    0.0
 1988 188     4   4.40   8.10   3.00  0.761  0.761  0.000  0.761  0.000    5.2    0.0    5.2    0.0
 1988 189     5  12.20  11.10   1.90  2.193  2.193  0.000  2.193  0.000    7.4    0.0    7.4    0.0
 1988 190     6  13.40  13.70   2.00  2.514  2.035  0.000  2.035  0.000    9.4    0.0    9.4    0.0
 1988 191     7  12.60   9.90   0.60  2.187  2.187  0.000  2.187  0.000   11.6    0.0   11.6    0.0
 1988 192     8  11.90   9.20  -3.50  1.945  1.643  0.000  1.643  0.000   13.2    0.0   13.2    0.0
 1988 193     9  11.50   8.90  -4.30  1.851  1.191  0.000  1.191  0.000   14.4    0.0   14.4    0.0
 1988 194    10  11.90  10.70  -4.20  1.981  0.983  0.000  0.983  0.000   15.4    0.0   15.4    0.0
 1988 195    11   5.80  12.70  -0.30  1.045  0.857  0.000  0.857  0.000   16.3    0.0   16.3    0.0
 1988 196    12  12.20  16.20   4.50  2.440  0.769  0.000  0.769  0.000   17.0    0.0   17.0    0.0
 1988 197    13  11.80  19.00   2.20  2.404  0.704  0.000  0.704  0.000   17.7    0.0   17.7    0.0
 1988 198    14  13.20  20.20   4.60  2.798  0.653  0.000  0.653  0.000   18.4    0.0   18.4    0.0
 1988 199    15  13.00  21.50   7.70  2.886  0.612  0.000  0.612  0.000   19.0    0.0   19.0    0.0
 1988 200    16  13.00  24.30   8.20  3.006  0.578  0.000  0.578  0.000   19.6    0.0   19.6    0.0
 1988 201    17  12.10  21.80   9.20  2.732  0.548  0.000  0.548  0.000   20.1    0.0   20.1    0.0
 1988 202    18   4.60  16.20   8.60  0.957  0.523  0.000  0.523  0.000   20.7    0.0   20.7    0.0
 1988 203    19   4.70  17.00   8.60  0.989  0.501  0.000  0.501  0.000   21.2    0.0   21.2    0.0
 1988 204    20   4.10  11.30   4.10  0.757  0.757  0.000  0.757  0.000   21.9    0.0   21.9    0.0
 1988 205    21   8.30   8.30   1.20  1.411  1.411  0.000  1.411  0.000   23.3    0.0   23.3    0.0
 1988 206    22  13.60  10.10   0.70  2.372  0.675  0.000  0.675  0.000   24.0    0.0   24.0    0.0
 1988 207    23  13.10  15.10  -1.60  2.419  0.630  0.000  0.630  0.000   24.6    0.0   24.6    0.0
 1988 208    24  13.80  25.40  11.20  3.318  0.593  0.000  0.593  0.000   25.2    0.0   25.2    0.0
 1988 209    25  13.80  17.00   0.90  2.694  0.561  0.000  0.561  0.000   25.8    0.0   25.8    0.0
 1988 210    26   9.60  17.40   4.00  1.944  0.535  0.001  0.534  0.000   26.3    0.0   26.3    0.0
 1988 211    27  12.60  28.00   6.60  3.012  0.514  0.003  0.511  0.000   26.8    0.0   26.8    0.0
 1988 212    28  14.00  28.40  14.70  3.586  0.499  0.009  0.491  0.000   27.3    0.0   27.3    0.0
 1988 213    29   4.90  21.20  12.00  1.124  0.478  0.005  0.472  0.000   27.8    0.0   27.8    0.0
 1988 214    30   4.30  11.60  10.90  0.855  0.855  0.005  0.849  0.000   28.7    0.0   28.6    0.0
 1988 215    31   4.40  10.90   8.60  0.846  0.846  0.006  0.840  0.000   29.5    0.0   29.5    0.0
 1988 216    32   4.40   9.60   6.40  0.809  0.809  0.006  0.804  0.000   30.3    0.0   30.3    0.0
 1988 217    33   5.10  15.60   8.40  1.049  1.049  0.008  1.041  0.000   31.4    0.0   31.3    0.0
 1988 218    34  11.50  17.40   7.10  2.397  2.397  0.019  2.378  0.000   33.8    0.1   33.7    0.0
 1988 219    35  11.50  20.10   5.00  2.441  2.441  0.021  2.420  0.000   36.2    0.1   36.1    0.0
 1988 220    36   7.60  18.10   9.80  1.640  1.055  0.016  1.039  0.000   37.3    0.1   37.2    0.0
 1988 221    37   7.00  16.90   8.70  1.470  1.470  0.016  1.454  0.000   38.7    0.1   38.6    0.0
 1988 222    38   5.40  10.40   6.40  1.006  1.006  0.012  0.994  0.000   39.7    0.1   39.6    0.0
 1988 223    39  15.00  12.10   1.80  2.732  1.536  0.033  1.503  0.000   41.3    0.2   41.1    0.0
 1988 224    40  16.30  17.10   4.20  3.288  1.168  0.033  1.135  0.000   42.4    0.2   42.2    0.0
 1988 225    41  15.40  19.60   4.80  3.238  0.985  0.034  0.951  0.000   43.4    0.2   43.2    0.0
 1988 226    42   5.40  17.60   8.70  1.145  0.851  0.016  0.835  0.000   44.3    0.2   44.0    0.0
 1988 227    43   4.80  22.90  14.10  1.143  0.774  0.020  0.754  0.000   45.0    0.3   44.8    0.0
 1988 228    44   8.40  22.90   7.90  1.895  0.743  0.051  0.692  0.000   45.8    0.3   45.5    0.0
 1988 229    45  14.30  18.60   5.40  2.971  0.745  0.101  0.644  0.000   46.5    0.4   46.1    0.0
 1988 230    46  13.30  19.20   3.70  2.741  0.709  0.105  0.604  0.000   47.2    0.5   46.7    0.0
 1988 231    47  15.80  24.40   7.10  3.602  0.716  0.145  0.571  0.000   48.0    0.7   47.3    0.0
 1988 232    48   6.60  26.20  14.50  1.633  0.623  0.081  0.543  0.000   48.6    0.7   47.8    0.0
 1988 233    49  12.30  21.20   9.30  2.732  2.732  0.175  2.557  0.000   51.3    0.9   50.4    0.0
 1988 234    50  17.20  20.20   6.80  3.681  3.681  0.270  3.411  0.000   55.0    1.2   53.8    0.0
 1988 235    51  17.70  22.50   5.20  3.847  2.446  0.312  2.133  0.000   57.4    1.5   55.9    0.0
 1988 236    52  15.90  29.70  14.40  4.071  2.345  0.364  1.981  0.000   59.8    1.9   57.9    0.0
 1988 237    53  12.90  25.30   8.60  2.982  1.625  0.331  1.295  0.000   61.4    2.2   59.2    0.0
 1988 238    54  17.20  17.70   4.90  3.464  1.474  0.435  1.039  0.000   62.9    2.6   60.3    0.0
 1988 239    55  17.30  11.90  -0.30  3.016  1.286  0.393  0.893  0.000   64.2    3.0   61.1    0.0
 1988 240    56  17.00  14.40  -2.00  3.053  1.043  0.249  0.795  0.000   65.2    3.3   61.9    0.0
 1988 241    57  10.80  16.10   0.00  2.051  0.787  0.063  0.724  0.000   66.0    3.3   62.7    0.0
 1988 242    58  14.80  21.90  10.30  3.368  0.742  0.073  0.669  0.000   66.7    3.4   63.3    0.0
 1988 243    59  17.80  20.80   5.50  3.815  0.770  0.146  0.624  0.000   67.5    3.6   64.0    0.0
 1988 244    60  17.70  21.00   5.10  3.783  0.778  0.190  0.588  0.000   68.3    3.7   64.5    0.0
 1988 245    61  18.20  14.50   3.30  3.472  0.773  0.215  0.557  0.000   69.1    4.0   65.1    0.0
 1988 246    62  18.60  12.40  -1.10  3.274  0.732  0.201  0.531  0.000   69.8    4.2   65.6    0.0
 1988 247    63  18.70  14.90  -0.10  3.481  0.619  0.110  0.508  0.000   70.4    4.3   66.1    0.0
 1988 248    64  19.50  20.40   0.60  3.978  0.578  0.090  0.488  0.000   71.0    4.4   66.6    0.0
 1988 249    65   9.30  25.00   7.90  2.157  0.519  0.049  0.470  0.000   71.5    4.4   67.1    0.0
 1988 250    66   7.20  18.90  12.20  1.597  0.519  0.065  0.454  0.000   72.0    4.5   67.6    0.0
 1988 251    67   7.20  20.40  12.10  1.626  1.626  0.074  1.552  0.000   73.7    4.5   69.1    0.0
 1988 252    68  14.20  24.60  14.80  3.454  1.699  0.179  1.520  0.000   75.4    4.7   70.6    0.0
 1988 253    69   7.80  18.40  10.60  1.687  1.687  0.113  1.574  0.000   77.0    4.8   72.2    0.0
 1988 254    70   6.00  12.40   9.70  1.180  1.180  0.091  1.090  0.000   78.2    4.9   73.3    0.0
 1988 255    71  12.40  19.40  10.40  2.709  2.709  0.217  2.491  0.000   80.9    5.1   75.8    0.0
 1988 256    72  18.60  21.30   8.90  4.100  3.591  0.408  3.183  0.000   84.5    5.6   79.0    0.0
 1988 257    73  19.50  22.30   6.00  4.223  3.388  0.569  2.819  0.000   87.9    6.1   81.8    0.0
 1988 258    74  20.80  16.80   4.60  4.101  2.079  0.653  1.426  0.000   90.0    6.8   83.2    0.0
 1988 259    75  21.20  13.20   0.30  3.778  1.739  0.638  1.102  0.000   91.7    7.4   84.3    0.0
 1988 260    76  18.30  13.70   0.90  3.333  1.334  0.402  0.931  0.000   93.1    7.8   85.2    0.0
 1988 261    77  15.90  13.90   2.00  2.950  1.102  0.280  0.822  0.000   94.2    8.1   86.1    0.0
 1988 262    78  11.60  19.40   8.40  2.488  0.949  0.205  0.744  0.000   95.1    8.3   86.8    0.0
 1988 263    79  15.90  23.10   8.40  3.571  1.056  0.371  0.684  0.000   96.2    8.7   87.5    0.0
 1988 264    80  11.10  23.60  13.40  2.604  0.990  0.353  0.637  0.000   97.2    9.0   88.1    0.0
 1988 265    81   6.50  18.00  15.50  1.439  1.439  0.238  1.201  0.000   98.6    9.3   89.3    0.0
 1988 266    82   6.80  19.70  15.50  1.535  1.535  0.284  1.250  0.000  100.1    9.6   90.6    0.0
 1988 267    83  10.80  24.10  15.10  2.557  2.557  0.531  2.026  0.000  102.7   10.1   92.6    0.0
 1988 268    84  12.00  16.80   9.60  2.450  2.450  0.600  1.850  0.000  105.1   10.7   94.5    0.0
 1988 269    85   6.80  17.60   7.00  1.367  1.367  0.355  1.012  0.000  106.5   11.0   95.5    0.0
 1988 270    86   6.70  12.40   9.90  1.282  1.282  0.352  0.929  0.000  107.8   11.4   96.4    0.0
 1988 271    87   9.40  17.70  10.50  1.948  1.948  0.551  1.397  0.000  109.7   11.9   97.8    0.0
 1988 272    88  19.90  17.80   8.30  4.037  4.037  1.207  2.830  0.000  113.8   13.1  100.6    0.0
 1988 273    89  23.60  21.10   8.10  4.989  4.327  1.562  2.765  0.000  118.1   14.7  103.4    0.0
 1988 274    90  24.00  22.30   7.70  5.114  4.393  1.747  2.646  0.000  122.5   16.5  106.0    0.0
 1988 275    91  19.60  26.20  11.60  4.514  3.089  1.678  1.410  0.000  125.6   18.1  107.4    0.0
 1988 276    92  11.90  25.10  13.20  2.721  2.227  1.133  1.095  0.000  127.8   19.3  108.5    0.0
 1988 277    93  17.00  15.70   9.40  3.302  3.302  1.513  1.789  0.000  131.1   20.8  110.3    0.0
 1988 278    94  24.30  20.00   9.30  4.993  4.993  2.367  2.626  0.000  136.1   23.1  113.0    0.0
 1988 279    95  25.20  19.80   7.00  5.040  4.659  2.503  2.156  0.000  140.8   25.6  115.1    0.0
 1988 280    96  25.00  22.10   6.00  5.099  5.099  2.623  2.476  0.000  145.9   28.3  117.6    0.0
 1988 281    97  24.90  24.50   6.60  5.254  4.400  2.806  1.593  0.000  150.3   31.1  119.2    0.0
 1988 282    98  21.80  25.30  10.20  4.773  3.832  2.660  1.172  0.000  154.1   33.7  120.4    0.0
 1988 283    99  11.20  20.90  10.40  2.313  2.313  1.353  0.960  0.000  156.4   35.1  121.3    0.0
 1988 284   100  23.30  21.70   8.20  4.754  3.729  2.878  0.851  0.000  160.1   38.0  122.2    0.0
 1988 285   101  20.90  24.10  11.40  4.509  4.408  2.808  1.600  0.000  164.5   40.8  123.8    0.0
 1988 286   102  25.30  24.10   9.90  5.371  4.274  3.471  0.803  0.000  168.8   44.2  124.6    0.0
 1988 287   103  19.90  19.20   8.30  3.894  3.325  2.595  0.730  0.000  172.1   46.8  125.3    0.0
 1988 288   104  19.90  23.20   8.60  4.111  3.462  2.789  0.674  0.000  175.6   49.6  126.0    0.0
 1988 289   105  20.90  17.50   4.20  3.826  3.285  2.657  0.629  0.000  178.9   52.3  126.6    0.0
 1988 290   106  26.20  19.10   3.10  4.859  4.859  3.354  1.505  0.000  183.7   55.6  128.1    0.0
 1988 291   107  20.70  22.00   4.70  4.072  4.072  2.717  1.355  0.000  187.8   58.4  129.5    0.0
 1988 292   108  24.60  26.50   8.30  5.288  5.288  3.567  1.721  0.000  193.1   61.9  131.2    0.0
 1988 293   109  11.50  21.70  12.30  2.400  2.400  1.665  0.735  0.000  195.5   63.6  131.9    0.0
 1988 294   110  26.50  23.90   9.50  5.539  5.173  3.940  1.233  0.000  200.7   67.5  133.2    0.0
 1988 295   111  23.70  26.60   6.90  5.003  5.003  3.638  1.365  0.000  205.7   71.2  134.5    0.0
 1988 296   112  14.40  27.50  13.90  3.245  3.245  2.409  0.836  0.000  208.9   73.6  135.4    0.0
 1988 297   113  27.40  25.20  12.20  5.908  5.908  4.507  1.401  0.000  214.8   78.1  136.8    0.0
 1988 298   114  25.70  26.50   9.50  5.495  5.495  4.279  1.216  0.000  220.3   82.4  138.0    0.0
 1988 299   115  12.90  18.10  11.20  2.498  2.498  2.037  0.461  0.000  222.8   84.4  138.4    0.0
 1988 300   116  27.30  17.90   6.10  5.019  5.019  4.160  0.859  0.000  227.9   88.6  139.3    0.0
 1988 301   117  27.40  24.60   5.90  5.502  5.502  4.599  0.903  0.000  233.4   93.2  140.2    0.0
 1988 302   118  28.10  28.30   9.00  6.057  6.057  5.124  0.934  0.000  239.4   98.3  141.1    0.0
 1988 303   119  24.80  32.80  12.10  5.762  5.762  4.937  0.825  0.000  245.2  103.2  142.0    0.0
 1988 304   120   9.70  23.70  12.70  2.031  2.031  1.763  0.267  0.000  247.2  105.0  142.2    0.0
 1988 305   121  24.60  20.00  11.60  4.863  4.863  4.243  0.620  0.000  252.1  109.2  142.8    0.0
 1988 306   122  28.90  19.90   8.40  5.542  5.542  4.860  0.682  0.000  257.6  114.1  143.5    0.0
 1988 307   123  29.00  22.30   4.60  5.549  5.549  4.883  0.666  0.000  263.2  119.0  144.2    0.0
 1988 308   124  28.90  24.70   9.90  5.976  5.976  5.249  0.727  0.000  269.1  124.2  144.9    0.0
 1988 309   125  28.20  27.00   9.90  5.996  5.996  5.292  0.705  0.000  275.1  129.5  145.6    0.0
 1988 310   126  29.20  30.20  11.90  6.549  6.549  5.807  0.742  0.000  281.7  135.3  146.4    0.0
 1988 311   127  29.10  31.00  13.00  6.638  6.638  5.918  0.720  0.000  288.3  141.2  147.1    0.0
 1988 312   128  29.30  31.50  14.70  6.803  6.803  6.097  0.706  0.000  295.1  147.3  147.8    0.0
 1988 313   129  22.50  27.00  15.30  4.982  4.957  4.486  0.470  0.000  300.1  151.8  148.3    0.0
 1988 314   130  29.00  26.80  12.30  6.254  6.254  5.652  0.602  0.000  306.3  157.5  148.9    0.0
 1988 315   131  22.10  26.00   7.70  4.543  4.543  4.117  0.426  0.000  310.9  161.6  149.3    0.0
 1988 316   132  19.00  26.10  15.40  4.162  4.162  3.778  0.384  0.000  315.0  165.4  149.7    0.0
 1988 317   133  23.90  25.20  14.90  5.157  5.157  4.695  0.462  0.000  320.2  170.1  150.1    0.0
 1988 318   134  29.90  29.90  12.70  6.700  6.700  6.115  0.585  0.000  326.9  176.2  150.7    0.0
 1988 319   135  29.40  25.20  12.70  6.229  6.229  5.700  0.528  0.000  333.1  181.9  151.2    0.0
 1988 320   136  28.80  27.80  10.60  6.189  6.189  5.675  0.514  0.000  339.3  187.6  151.8    0.0
 1988 321   137  26.70  34.40  13.30  6.319  6.319  5.785  0.534  0.000  345.6  193.3  152.3    0.0
 1988 322   138  28.80  34.60  18.80  7.105  7.105  6.494  0.611  0.000  352.7  199.8  152.9    0.0
 1988 323   139  10.50  26.60  19.00  2.377  2.377  2.171  0.206  0.000  355.1  202.0  153.1    0.0
 1988 324   140  26.30  29.50  19.70  6.184  6.184  5.641  0.542  0.000  361.3  207.6  153.7    0.0
 1988 325   141  21.00  29.40  17.70  4.860  4.860  4.430  0.430  0.000  366.2  212.1  154.1    0.0
 1988 326   142   8.90  22.60  12.10  1.818  1.818  1.655  0.162  0.000  368.0  213.7  154.2    0.0
 1988 327   143  26.30  21.70  11.30  5.274  5.274  4.800  0.474  0.000  373.2  218.5  154.7    0.0
 1988 328   144  30.40  24.80   8.60  6.199  6.199  5.638  0.562  0.000  379.4  224.2  155.3    0.0
 1988 329   145  30.90  26.00  11.70  6.563  6.563  5.964  0.599  0.000  386.0  230.1  155.9    0.0
 1988 330   146  30.80  29.10  11.30  6.768  6.768  6.146  0.621  0.000  392.8  236.3  156.5    0.0
 1988 331   147  17.80  27.70  14.60  3.948  3.948  3.583  0.365  0.000  396.7  239.9  156.9    0.0
 1988 332   148  31.10  21.10   8.60  6.046  6.046  5.484  0.562  0.000  402.8  245.3  157.4    0.0
 1988 333   149  30.50  23.40   8.00  6.080  6.080  5.511  0.569  0.000  408.8  250.9  158.0    0.0
 1988 334   150  30.70  26.50   9.90  6.467  6.467  5.858  0.609  0.000  415.3  256.7  158.6    0.0
 1988 335   151  30.40  28.40  11.90  6.658  6.658  6.031  0.627  0.000  422.0  262.7  159.2    0.0
 1988 336   152  23.90  27.60  15.20  5.321  5.321  4.820  0.501  0.000  427.3  267.6  159.7    0.0
 1988 337   153  26.30  28.80  14.80  5.919  5.900  5.361  0.538  0.000  433.2  272.9  160.3    0.0
 1988 338   154  30.60  32.00  15.50  7.177  7.177  6.501  0.676  0.000  440.4  279.4  160.9    0.0
 1988 339   155  30.40  33.60  17.70  7.371  7.371  6.677  0.695  0.000  447.7  286.1  161.6    0.0
 1988 340   156  33.00  36.70  15.50  8.771  8.771  7.943  0.827  0.000  456.5  294.0  162.5    0.0
 1988 341   157  23.30  35.60  17.20  5.908  5.908  5.348  0.560  0.000  462.4  299.4  163.0    0.0
 1988 342   158  15.50  29.10  17.50  3.573  3.573  3.233  0.341  0.000  466.0  302.6  163.4    0.0
 1988 343   159  22.00  27.60  14.10  4.858  4.858  4.390  0.468  0.000  470.9  307.0  163.8    0.0
 1988 344   160  28.00  28.50  12.60  6.177  6.177  5.574  0.603  0.000  477.0  312.6  164.4    0.0
 1988 345   161  29.00  30.00  11.40  6.451  6.451  5.811  0.640  0.000  483.5  318.4  165.1    0.0
 1988 346   162  31.40  34.00  14.90  7.502  7.502  6.744  0.758  0.000  491.0  325.1  165.8    0.0
 1988 347   163   9.20  23.10  17.90  1.987  1.987  1.782  0.205  0.000  493.0  326.9  166.0    0.0
 1988 348   164  26.80  27.80  17.70  6.106  6.106  5.461  0.645  0.000  499.1  332.4  166.7    0.0
 1988 349   165  31.80  30.00  12.60  7.149  7.149  6.373  0.776  0.000  506.2  338.8  167.5    0.0
 1988 350   166  32.10  28.50  16.40  7.306  7.306  6.490  0.816  0.000  513.5  345.3  168.3    0.0
 1988 351   167  30.60  31.20  12.90  6.997  6.997  6.190  0.807  0.000  520.5  351.4  169.1    0.0
 1988 352   168  19.60  32.50  17.10  4.693  4.693  4.132  0.560  0.000  525.2  355.6  169.6    0.0
 1988 353   169  30.40  30.90  18.10  7.210  7.210  6.316  0.894  0.000  532.4  361.9  170.5    0.0
 1988 354   170  22.30  29.80  16.10  5.151  5.151  4.487  0.664  0.000  537.6  366.4  171.2    0.0
 1988 355   171  30.80  26.10  10.20  6.509  6.509  5.633  0.875  0.000  544.1  372.0  172.1    0.0
 1988 356   172  31.80  28.30  11.00  6.952  6.952  5.975  0.978  0.000  551.0  378.0  173.1    0.0
 1988 357   173  20.30  28.80  20.10  4.790  4.790  4.085  0.705  0.000  555.8  382.1  173.8    0.0
 1988 358   174  27.20  33.60  16.40  6.589  6.589  5.575  1.015  0.000  562.4  387.6  174.8    0.0
 1988 359   175  30.90  34.90  15.40  7.545  7.545  6.327  1.218  0.000  570.0  394.0  176.0    0.0
 1988 360   176  31.80  35.00  19.70  8.020  8.020  6.661  1.360  0.000  578.0  400.6  177.4    0.0
 1988 361   177  26.30  35.60  19.10  6.837  6.837  5.618  1.219  0.000  584.8  406.2  178.6    0.0
 1988 362   178  15.10  30.50  21.00  3.674  3.674  2.985  0.690  0.000  588.5  409.2  179.3    0.0
 1988 363   179  23.50  30.50  18.00  5.604  5.360  4.495  0.865  0.000  593.9  413.7  180.1    0.0
 1988 364   180  30.50  28.00  11.30  6.725  6.725  5.322  1.403  0.000  600.6  419.1  181.5    0.0
 1988 365   181  31.30  29.60  12.20  7.095  7.095  5.534  1.561  0.000  607.7  424.6  183.1    0.0
 1988 366   182  31.50  33.20  16.10  7.667  7.667  5.891  1.777  0.000  615.3  430.5  184.9    0.0
 1989 001   183  30.10  36.10  19.80  8.155  7.862  6.163  1.699  0.000  623.2  436.6  186.6    0.0
 1989 002   184  30.90  36.10  19.20  8.354  8.354  6.202  2.152  0.000  631.6  442.8  188.7    0.0
 1989 003   185  31.30  35.00  16.60  7.841  7.841  5.711  2.129  0.000  639.4  448.6  190.9    0.0
 1989 004   186  31.30  36.30  19.30  8.577  8.577  6.247  2.329  0.000  648.0  454.8  193.2    0.0
 1989 005   187  31.50  35.60  18.80  8.283  8.000  6.034  1.966  0.000  656.0  460.8  195.1    0.0

*DSSAT Cropping System Model Ver. 4.0.2.000               Aug 03, 2016; 15:09:39

*RUN   3        : UYMZ                    
 MODEL          : MZCER040 - Maize           
 EXPERIMENT     : UYMZ0126 MZ    late to create DSS                             
 TREATMENT  1   : UYMZ                    

@YEAR DOY   DAS   SRAA   TMXA   TMNA   EOAA   ETAA   EPAA   ESAA   EFAD   ETAC   EPAC   ESAC   EFAC
 1989 184     0  11.40  11.10  -4.80  1.898  1.292  0.000  1.292  0.000    1.3    0.0    1.3    0.0
 1989 185     1   5.40  10.70  -1.50  0.928  0.928  0.000  0.928  0.000    2.2    0.0    2.2    0.0
 1989 186     2  12.80   9.10  -0.20  2.172  2.116  0.000  2.116  0.000    4.3    0.0    4.3    0.0
 1989 187     3   9.80  10.10  -3.80  1.622  1.622  0.000  1.622  0.000    6.0    0.0    6.0    0.0
 1989 188     4   3.80  10.60  -2.60  0.644  0.644  0.000  0.644  0.000    6.6    0.0    6.6    0.0
 1989 189     5   9.80  15.00  -0.50  1.828  1.828  0.000  1.828  0.000    8.4    0.0    8.4    0.0
 1989 190     6   9.50  16.40   2.10  1.860  1.860  0.000  1.860  0.000   10.3    0.0   10.3    0.0
 1989 191     7   6.30  17.10   3.70  1.267  0.778  0.000  0.778  0.000   11.1    0.0   11.1    0.0
 1989 192     8   7.40  17.00   3.50  1.483  1.483  0.000  1.483  0.000   12.6    0.0   12.6    0.0
 1989 193     9   3.80  14.40   8.20  0.767  0.767  0.000  0.767  0.000   13.3    0.0   13.3    0.0
 1989 194    10   9.80  19.60   2.70  2.023  1.616  0.000  1.616  0.000   14.9    0.0   14.9    0.0
 1989 195    11  10.70  18.50   3.10  2.183  1.180  0.000  1.180  0.000   16.1    0.0   16.1    0.0
 1989 196    12  12.10  17.80  -1.90  2.324  0.977  0.000  0.977  0.000   17.1    0.0   17.1    0.0
 1989 197    13  13.20  24.50   4.10  2.953  0.853  0.000  0.853  0.000   17.9    0.0   17.9    0.0
 1989 198    14  13.40  27.00   5.80  3.142  0.766  0.000  0.766  0.000   18.7    0.0   18.7    0.0
 1989 199    15  13.30  27.70   8.60  3.220  0.702  0.000  0.702  0.000   19.4    0.0   19.4    0.0
 1989 200    16  13.00  25.60  10.40  3.113  0.651  0.000  0.651  0.000   20.1    0.0   20.1    0.0
 1989 201    17   8.90  23.00  10.30  2.061  0.610  0.000  0.610  0.000   20.7    0.0   20.7    0.0
 1989 202    18  14.10  17.60   5.10  2.894  0.581  0.005  0.576  0.000   21.3    0.0   21.3    0.0
 1989 203    19   7.70  13.60   5.40  1.494  0.551  0.003  0.547  0.000   21.8    0.0   21.8    0.0
 1989 204    20   4.10  12.30   6.20  0.786  0.786  0.002  0.784  0.000   22.6    0.0   22.6    0.0
 1989 205    21  11.40  16.20   8.40  2.366  2.366  0.006  2.360  0.000   25.0    0.0   24.9    0.0
 1989 206    22  13.30  13.90   4.40  2.565  2.565  0.008  2.557  0.000   27.5    0.0   27.5    0.0
 1989 207    23  11.30  14.60   6.60  2.252  2.252  0.008  2.244  0.000   29.8    0.0   29.7    0.0
 1989 208    24   7.40  15.50   6.20  1.488  1.488  0.006  1.483  0.000   31.3    0.0   31.2    0.0
 1989 209    25   7.90  14.00   6.30  1.555  1.555  0.007  1.549  0.000   32.8    0.0   32.8    0.0
 1989 210    26   7.50  14.80   5.00  1.475  1.475  0.007  1.468  0.000   34.3    0.1   34.2    0.0
 1989 211    27  14.20  15.50   5.30  2.830  1.806  0.014  1.792  0.000   36.1    0.1   36.0    0.0
 1989 212    28  14.80  15.50   2.00  2.853  2.302  0.016  2.286  0.000   38.4    0.1   38.3    0.0
 1989 213    29  14.50  20.00   3.10  3.020  1.375  0.015  1.360  0.000   39.8    0.1   39.7    0.0
 1989 214    30  14.90  24.80   5.00  3.371  1.089  0.018  1.071  0.000   40.9    0.1   40.8    0.0
 1989 215    31  10.70  26.50  14.80  2.681  0.931  0.018  0.913  0.000   41.8    0.1   41.7    0.0
 1989 216    32   9.30  18.80   9.90  2.027  2.027  0.020  2.008  0.000   43.8    0.2   43.7    0.0
 1989 217    33  15.70  18.60   5.80  3.286  1.587  0.036  1.551  0.000   45.4    0.2   45.2    0.0
 1989 218    34  15.60  21.50   5.30  3.383  1.196  0.041  1.155  0.000   46.6    0.2   46.4    0.0
 1989 219    35  15.80  21.40   6.80  3.466  1.021  0.058  0.963  0.000   47.6    0.3   47.3    0.0
 1989 220    36   4.70  17.70   8.50  0.994  0.865  0.022  0.843  0.000   48.5    0.3   48.2    0.0
 1989 221    37   4.50  15.60  12.70  0.961  0.961  0.026  0.935  0.000   49.5    0.3   49.1    0.0
 1989 222    38   8.40  18.30  11.50  1.839  1.839  0.059  1.780  0.000   51.3    0.4   50.9    0.0
 1989 223    39   5.90  22.30   8.80  1.329  1.329  0.052  1.277  0.000   52.6    0.4   52.2    0.0
 1989 224    40  15.40  19.00   6.80  3.255  3.255  0.144  3.111  0.000   55.9    0.6   55.3    0.0
 1989 225    41  14.90  24.00   8.80  3.425  2.375  0.169  2.206  0.000   58.3    0.8   57.5    0.0
 1989 226    42  16.70  23.60  10.70  3.875  2.494  0.230  2.264  0.000   60.7    1.0   59.8    0.0
 1989 227    43  16.80  24.60   8.30  3.862  1.631  0.274  1.356  0.000   62.4    1.3   61.1    0.0
 1989 228    44  16.60  28.50   9.40  4.034  1.404  0.335  1.069  0.000   63.8    1.6   62.2    0.0
 1989 229    45  13.90  24.70  13.20  3.318  1.242  0.331  0.912  0.000   65.0    1.9   63.1    0.0
 1989 230    46  14.20  30.40  11.80  3.578  1.224  0.416  0.808  0.000   66.3    2.3   63.9    0.0
 1989 231    47   5.00  22.30  14.90  1.168  0.895  0.161  0.734  0.000   67.1    2.5   64.6    0.0
 1989 232    48   5.00  17.20  14.80  1.091  1.091  0.169  0.921  0.000   68.2    2.7   65.6    0.0
 1989 233    49   5.00  18.60  14.00  1.101  1.101  0.186  0.915  0.000   69.3    2.9   66.5    0.0
 1989 234    50   6.10  12.50   6.50  1.145  1.145  0.210  0.935  0.000   70.5    3.1   67.4    0.0
 1989 235    51  12.90  15.80   7.10  2.559  2.559  0.472  2.087  0.000   73.0    3.5   69.5    0.0
 1989 236    52   8.40  17.30   5.90  1.682  1.682  0.318  1.364  0.000   74.7    3.9   70.9    0.0
 1989 237    53  17.50  16.00   6.50  3.455  2.988  0.673  2.315  0.000   77.7    4.5   73.2    0.0
 1989 238    54  11.00  19.60   3.30  2.216  2.216  0.447  1.769  0.000   79.9    5.0   74.9    0.0
 1989 239    55  18.90  14.10   2.60  3.487  2.497  0.683  1.814  0.000   82.4    5.7   76.8    0.0
 1989 240    56  18.10  18.40   1.30  3.527  1.878  0.630  1.248  0.000   84.3    6.3   78.0    0.0
 1989 241    57  19.10  25.40   5.80  4.292  1.649  0.634  1.014  0.000   85.9    6.9   79.0    0.0
 1989 242    58  11.40  26.50   0.00  2.463  1.292  0.415  0.877  0.000   87.2    7.3   79.9    0.0
 1989 243    59   6.70  14.30   9.00  1.337  1.337  0.162  1.175  0.000   88.6    7.5   81.1    0.0
 1989 244    60  19.00  15.20   6.70  3.751  3.751  0.489  3.262  0.000   92.3    8.0   84.3    0.0
 1989 245    61  19.20  17.20   2.50  3.741  3.078  0.522  2.557  0.000   95.4    8.5   86.9    0.0
 1989 246    62  18.70  22.40   6.40  4.073  3.172  0.528  2.644  0.000   98.6    9.0   89.5    0.0
 1989 247    63  19.00  26.20  10.70  4.493  2.080  0.670  1.410  0.000  100.7    9.7   90.9    0.0
 1989 248    64   9.00  16.80  10.50  1.871  1.434  0.339  1.095  0.000  102.1   10.1   92.0    0.0
 1989 249    65  18.20  14.90   6.50  3.533  3.533  0.706  2.827  0.000  105.6   10.8   94.9    0.0
 1989 250    66  20.10  17.60   4.70  3.983  3.937  0.838  3.099  0.000  109.6   11.6   98.0    0.0
 1989 251    67  16.00  18.00   2.20  3.107  3.107  0.686  2.421  0.000  112.7   12.3  100.4    0.0
 1989 252    68  15.40  19.50   8.70  3.258  2.461  0.655  1.805  0.000  115.1   12.9  102.2    0.0
 1989 253    69  10.90  19.70   8.30  2.297  1.750  0.505  1.245  0.000  116.9   13.4  103.4    0.0
 1989 254    70   6.40  18.80  12.10  1.375  1.140  0.330  0.811  0.000  118.0   13.8  104.2    0.0
 1989 255    71   6.30  19.10  13.20  1.367  1.367  0.360  1.006  0.000  119.4   14.1  105.3    0.0
 1989 256    72   6.10  15.90  13.00  1.260  1.260  0.365  0.895  0.000  120.6   14.5  106.2    0.0
 1989 257    73   9.10  16.30  11.40  1.857  1.857  0.577  1.281  0.000  122.5   15.1  107.4    0.0
 1989 258    74  19.60  15.10   7.40  3.776  3.243  1.243  2.000  0.000  125.8   16.3  109.4    0.0
 1989 259    75  14.10  17.60   6.40  2.784  2.784  0.950  1.834  0.000  128.5   17.3  111.3    0.0
 1989 260    76  21.80  20.00   3.90  4.341  2.837  1.538  1.298  0.000  131.4   18.8  112.6    0.0
 1989 261    77  22.00  21.70   6.00  4.570  2.673  1.632  1.041  0.000  134.0   20.4  113.6    0.0
 1989 262    78  21.70  24.80  10.60  4.869  2.729  1.835  0.894  0.000  136.8   22.3  114.5    0.0
 1989 263    79  22.30  25.50   8.30  4.928  2.808  2.012  0.796  0.000  139.6   24.3  115.3    0.0
 1989 264    80  20.10  26.10  10.00  4.519  2.698  1.974  0.724  0.000  142.3   26.3  116.0    0.0
 1989 265    81   7.10  18.60  15.20  1.509  1.509  0.714  0.794  0.000  143.8   27.0  116.8    0.0
 1989 266    82   7.80  16.90  10.30  1.544  1.544  0.775  0.769  0.000  145.3   27.8  117.6    0.0
 1989 267    83  10.50  11.20   7.20  1.849  1.849  0.962  0.888  0.000  147.2   28.7  118.5    0.0
 1989 268    84  14.00  12.60   5.70  2.480  2.480  1.298  1.182  0.000  149.7   30.0  119.7    0.0
 1989 269    85  17.20  14.40   4.80  3.101  3.101  1.636  1.465  0.000  152.8   31.6  121.1    0.0
 1989 270    86  23.20  13.70   3.90  4.099  4.007  2.173  1.834  0.000  156.8   33.8  123.0    0.0
 1989 271    87  15.30  17.00   3.20  2.826  2.826  1.471  1.355  0.000  159.6   35.3  124.3    0.0
 1989 272    88  23.60  18.40   3.60  4.478  4.478  2.251  2.227  0.000  164.1   37.5  126.5    0.0
 1989 273    89  21.10  22.20   7.70  4.387  3.562  2.174  1.388  0.000  167.6   39.7  127.9    0.0
 1989 274    90  18.80  26.00   9.20  4.142  3.231  2.147  1.084  0.000  170.9   41.9  129.0    0.0
 1989 275    91   9.50  26.40  11.90  2.141  2.094  1.173  0.921  0.000  173.0   43.0  129.9    0.0
 1989 276    92  23.50  21.60   9.40  4.859  3.627  2.813  0.814  0.000  176.6   45.8  130.7    0.0
 1989 277    93  24.20  21.70   7.50  4.912  3.681  2.943  0.738  0.000  180.3   48.8  131.5    0.0
 1989 278    94  24.00  25.00   8.80  5.129  3.839  3.159  0.680  0.000  184.1   51.9  132.2    0.0
 1989 279    95  20.30  24.60   8.80  4.302  3.378  2.744  0.634  0.000  187.5   54.7  132.8    0.0
 1989 280    96  17.50  22.60  12.20  3.710  3.710  2.441  1.270  0.000  191.2   57.1  134.1    0.0
 1989 281    97  20.40  20.00  10.30  4.101  3.582  2.782  0.801  0.000  194.8   59.9  134.9    0.0
 1989 282    98  24.60  20.50   6.20  4.788  4.045  3.317  0.728  0.000  198.8   63.2  135.6    0.0
 1989 283    99  17.50  22.60   7.50  3.539  3.539  2.490  1.050  0.000  202.4   65.7  136.6    0.0
 1989 284   100  12.90  20.70  12.50  2.653  2.653  1.901  0.752  0.000  205.0   67.6  137.4    0.0
 1989 285   101  11.90  12.60   7.20  2.075  2.075  1.518  0.556  0.000  207.1   69.1  137.9    0.0
 1989 286   102  15.40  17.70   4.10  2.808  2.808  2.063  0.745  0.000  209.9   71.2  138.7    0.0
 1989 287   103  24.30  20.40   7.40  4.750  4.750  3.461  1.290  0.000  214.6   74.7  140.0    0.0
 1989 288   104  23.80  23.40   8.40  4.877  4.877  3.601  1.275  0.000  219.5   78.3  141.3    0.0
 1989 289   105  26.20  21.80   9.90  5.317  5.317  3.995  1.322  0.000  224.8   82.3  142.6    0.0
 1989 290   106  15.80  19.50   9.90  3.105  2.935  2.371  0.565  0.000  227.8   84.6  143.1    0.0
 1989 291   107  20.40  22.40   9.70  4.152  4.152  3.210  0.941  0.000  231.9   87.8  144.1    0.0
 1989 292   108  25.10  25.00  12.60  5.399  5.399  4.236  1.163  0.000  237.3   92.1  145.2    0.0
 1989 293   109  25.20  28.00  11.10  5.542  5.542  4.429  1.113  0.000  242.9   96.5  146.4    0.0
 1989 294   110  16.60  27.00  12.40  3.637  3.637  2.959  0.678  0.000  246.5   99.5  147.0    0.0
 1989 295   111  26.90  26.50  11.10  5.786  5.786  4.787  1.000  0.000  252.3  104.3  148.0    0.0
 1989 296   112  26.40  29.50  12.20  5.910  5.910  5.074  0.836  0.000  258.2  109.3  148.9    0.0
 1989 297   113   7.90  22.20  16.70  1.676  1.676  1.468  0.208  0.000  259.9  110.8  149.1    0.0
 1989 298   114   9.30  21.40  15.30  1.930  1.930  1.698  0.232  0.000  261.8  112.5  149.3    0.0
 1989 299   115  20.80  19.10  10.40  4.014  4.014  3.548  0.465  0.000  265.8  116.0  149.8    0.0
 1989 300   116  27.50  20.80   7.40  5.282  5.282  4.692  0.590  0.000  271.1  120.7  150.4    0.0
 1989 301   117  28.20  22.80   8.80  5.628  5.628  5.017  0.611  0.000  276.7  125.8  151.0    0.0
 1989 302   118  27.50  28.80  10.70  6.003  6.003  5.375  0.628  0.000  282.7  131.1  151.6    0.0
 1989 303   119  11.30  22.00  13.60  2.323  2.323  2.092  0.230  0.000  285.1  133.2  151.8    0.0
 1989 304   120  26.00  20.70  10.30  5.106  5.106  4.617  0.489  0.000  290.2  137.8  152.3    0.0
 1989 305   121  27.70  21.20   7.00  5.316  5.316  4.821  0.495  0.000  295.5  142.7  152.8    0.0
 1989 306   122   9.20  20.10  11.70  1.814  1.814  1.648  0.166  0.000  297.3  144.3  153.0    0.0
 1989 307   123  12.60  20.50  13.50  2.535  2.535  2.309  0.226  0.000  299.8  146.6  153.2    0.0
 1989 308   124  28.90  23.10  13.30  5.997  5.997  5.477  0.521  0.000  305.8  152.1  153.7    0.0
 1989 309   125  28.80  21.90  12.30  5.836  5.836  5.344  0.492  0.000  311.7  157.4  154.2    0.0
 1989 310   126  29.10  25.30   9.50  6.010  6.010  5.516  0.494  0.000  317.7  162.9  154.7    0.0
 1989 311   127  14.50  24.60  14.00  3.080  3.080  2.833  0.247  0.000  320.8  165.8  155.0    0.0
 1989 312   128  26.00  27.30  13.40  5.675  5.675  5.233  0.443  0.000  326.4  171.0  155.4    0.0
 1989 313   129  28.70  28.00  15.40  6.413  6.413  5.929  0.484  0.000  332.8  176.9  155.9    0.0
 1989 314   130  25.10  29.70  15.90  5.738  5.738  5.321  0.418  0.000  338.6  182.3  156.3    0.0
 1989 315   131   8.80  23.30  18.10  1.899  1.899  1.766  0.133  0.000  340.5  184.0  156.4    0.0
 1989 316   132   8.50  19.60  11.70  1.660  1.660  1.545  0.115  0.000  342.1  185.6  156.6    0.0
 1989 317   133  24.50  18.20  10.70  4.653  4.653  4.334  0.318  0.000  346.8  189.9  156.9    0.0
 1989 318   134  29.70  24.00   9.50  6.023  6.023  5.613  0.409  0.000  352.8  195.5  157.3    0.0
 1989 319   135  29.40  28.10  12.00  6.400  6.400  5.958  0.442  0.000  359.2  201.5  157.7    0.0
 1989 320   136  29.30  23.30  11.20  5.976  5.976  5.557  0.419  0.000  365.2  207.0  158.2    0.0
 1989 321   137  29.70  25.00   9.40  6.096  6.096  5.665  0.432  0.000  371.3  212.7  158.6    0.0
 1989 322   138  28.70  30.20  11.80  6.395  6.395  5.938  0.457  0.000  377.7  218.6  159.0    0.0
 1989 323   139  22.90  31.00  15.60  5.300  5.300  4.918  0.382  0.000  383.0  223.6  159.4    0.0
 1989 324   140  20.40  28.10  17.40  4.632  4.632  4.295  0.337  0.000  387.6  227.9  159.8    0.0
 1989 325   141  24.20  29.60  17.70  5.602  5.602  5.191  0.411  0.000  393.2  233.0  160.2    0.0
 1989 326   142  26.40  32.90  18.60  6.377  6.377  5.906  0.471  0.000  399.6  239.0  160.6    0.0
 1989 327   143  24.40  30.80  18.50  5.758  5.758  5.330  0.428  0.000  405.4  244.3  161.1    0.0
 1989 328   144  30.20  23.60  15.50  6.410  6.410  5.930  0.480  0.000  411.8  250.2  161.5    0.0
 1989 329   145  24.00  25.20  13.90  5.128  5.128  4.741  0.387  0.000  416.9  255.0  161.9    0.0
 1989 330   146  22.90  26.50  14.70  5.001  5.001  4.622  0.380  0.000  421.9  259.6  162.3    0.0
 1989 331   147  25.10  24.50  14.20  5.331  5.331  4.923  0.408  0.000  427.2  264.5  162.7    0.0
 1989 332   148  29.70  26.00  11.20  6.270  6.270  5.790  0.479  0.000  433.5  270.3  163.2    0.0
 1989 333   149  21.60  26.90  14.40  4.729  4.729  4.367  0.362  0.000  438.2  274.7  163.6    0.0
 1989 334   150  28.10  29.40  16.20  6.420  6.420  5.929  0.491  0.000  444.6  280.6  164.1    0.0
 1989 335   151  27.00  31.50  17.60  6.380  6.380  5.892  0.488  0.000  451.0  286.5  164.5    0.0
 1989 336   152  18.80  30.80  18.80  4.447  4.447  4.107  0.340  0.000  455.5  290.6  164.9    0.0
 1989 337   153  17.30  26.80  16.50  3.846  3.846  3.551  0.294  0.000  459.3  294.1  165.2    0.0
 1989 338   154  30.10  25.80  13.30  6.448  6.448  5.953  0.495  0.000  465.8  300.1  165.7    0.0
 1989 339   155  25.80  31.30  14.00  5.924  5.924  5.466  0.458  0.000  471.7  305.6  166.1    0.0
 1989 340   156  22.10  29.50  18.30  5.136  5.136  4.735  0.401  0.000  476.8  310.3  166.5    0.0
 1989 341   157  25.70  29.80  19.20  6.033  6.033  5.556  0.477  0.000  482.9  315.8  167.0    0.0
 1989 342   158  28.40  30.80  18.50  6.707  6.707  6.168  0.539  0.000  489.6  322.0  167.5    0.0
 1989 343   159  18.10  30.50  18.90  4.274  4.274  3.924  0.350  0.000  493.8  325.9  167.9    0.0
 1989 344   160  29.50  32.40  18.80  7.108  7.108  6.512  0.595  0.000  500.9  332.5  168.5    0.0
 1989 345   161  27.50  33.80  20.30  6.798  6.798  6.214  0.584  0.000  507.7  338.7  169.1    0.0
 1989 346   162  30.00  33.70  20.50  7.421  7.421  6.765  0.656  0.000  515.2  345.4  169.7    0.0
 1989 347   163  29.00  32.40  19.40  7.024  7.024  6.383  0.641  0.000  522.2  351.8  170.4    0.0
 1989 348   164  30.40  30.30  19.60  7.212  7.212  6.531  0.681  0.000  529.4  358.3  171.1    0.0
 1989 349   165  31.40  31.70  16.10  7.377  7.377  6.653  0.724  0.000  536.8  365.0  171.8    0.0
 1989 350   166  25.70  33.60  19.90  6.336  6.336  5.689  0.648  0.000  543.1  370.7  172.4    0.0
 1989 351   167  18.00  24.40  13.70  3.819  3.819  3.411  0.408  0.000  546.9  374.1  172.8    0.0
 1989 352   168  30.70  25.20   9.20  6.342  6.342  5.633  0.709  0.000  553.3  379.7  173.5    0.0
 1989 353   169  31.40  27.20  14.50  6.943  6.943  6.128  0.815  0.000  560.2  385.9  174.4    0.0
 1989 354   170  31.80  26.50  13.60  6.930  6.930  6.076  0.854  0.000  567.1  391.9  175.2    0.0
 1989 355   171  31.30  26.00  12.60  6.732  6.732  5.860  0.872  0.000  573.9  397.8  176.1    0.0
 1989 356   172  31.50  29.00  12.10  7.000  7.000  6.046  0.954  0.000  580.9  403.8  177.0    0.0
 1989 357   173  30.80  29.50  14.20  7.004  7.004  5.998  1.006  0.000  587.9  409.8  178.0    0.0
 1989 358   174  29.70  31.50  16.20  7.020  6.747  5.956  0.791  0.000  594.6  415.8  178.8    0.0
 1989 359   175   9.80  29.50  19.10  2.317  2.317  1.947  0.371  0.000  596.9  417.7  179.2    0.0
 1989 360   176  20.60  30.70  18.80  4.931  4.931  4.097  0.834  0.000  601.9  421.8  180.0    0.0
 1989 361   177  15.80  30.10  19.50  3.782  3.782  3.105  0.677  0.000  605.7  424.9  180.7    0.0
 1989 362   178  22.50  30.90  20.00  5.461  5.461  4.427  1.034  0.000  611.1  429.4  181.8    0.0
 1989 363   179  17.70  28.90  20.60  4.228  4.228  3.382  0.846  0.000  615.3  432.8  182.6    0.0
 1989 364   180  20.90  28.00  19.30  4.904  4.904  3.867  1.036  0.000  620.3  436.6  183.6    0.0
 1989 365   181  24.80  29.80  17.50  5.868  5.868  4.557  1.311  0.000  626.1  441.2  184.9    0.0
 1990 001   182  28.40  29.80  12.60  6.487  6.487  4.958  1.530  0.000  632.6  446.1  186.5    0.0
 1990 002   183  28.70  29.80  15.10  6.697  6.122  5.015  1.106  0.000  638.7  451.1  187.6    0.0
 1990 003   184  31.30  30.10  15.30  7.340  7.340  5.497  1.843  0.000  646.1  456.6  189.4    0.0
 1990 004   185  31.30  33.40  16.90  7.701  7.701  5.767  1.934  0.000  653.8  462.4  191.4    0.0

*DSSAT Cropping System Model Ver. 4.0.2.000               Aug 03, 2016; 15:09:39

*RUN   4        : UYMZ                    
 MODEL          : MZCER040 - Maize           
 EXPERIMENT     : UYMZ0126 MZ    late to create DSS                             
 TREATMENT  1   : UYMZ                    

@YEAR DOY   DAS   SRAA   TMXA   TMNA   EOAA   ETAA   EPAA   ESAA   EFAD   ETAC   EPAC   ESAC   EFAC
 1990 184     0   3.90  14.00   9.80  0.795  0.795  0.000  0.795  0.000    0.8    0.0    0.8    0.0
 1990 185     1   4.70  16.50   9.60  0.991  0.991  0.000  0.991  0.000    1.8    0.0    1.8    0.0
 1990 186     2   3.70  17.40  13.40  0.818  0.818  0.000  0.818  0.000    2.6    0.0    2.6    0.0
 1990 187     3   5.40  19.70  13.20  1.228  1.228  0.000  1.228  0.000    3.8    0.0    3.8    0.0
 1990 188     4   3.80  15.80  11.30  0.806  0.806  0.000  0.806  0.000    4.6    0.0    4.6    0.0
 1990 189     5   4.30  19.60  13.50  0.980  0.980  0.000  0.980  0.000    5.6    0.0    5.6    0.0
 1990 190     6   5.60  17.10  11.30  1.210  1.210  0.000  1.210  0.000    6.8    0.0    6.8    0.0
 1990 191     7   7.60  13.90   6.30  1.495  1.495  0.000  1.495  0.000    8.3    0.0    8.3    0.0
 1990 192     8  13.70  18.20   5.20  2.840  2.840  0.000  2.840  0.000   11.2    0.0   11.2    0.0
 1990 193     9  13.80  17.60   3.90  2.800  1.777  0.000  1.777  0.000   12.9    0.0   12.9    0.0
 1990 194    10  13.40  19.70   6.00  2.858  2.287  0.000  2.287  0.000   15.2    0.0   15.2    0.0
 1990 195    11   9.40  19.20   7.80  2.024  1.360  0.000  1.360  0.000   16.6    0.0   16.6    0.0
 1990 196    12   6.90  20.00  10.10  1.534  1.071  0.000  1.071  0.000   17.7    0.0   17.7    0.0
 1990 197    13   5.50  15.70  10.10  1.152  1.152  0.000  1.152  0.000   18.8    0.0   18.8    0.0
 1990 198    14   8.40  16.00   9.40  1.756  1.211  0.000  1.211  0.000   20.0    0.0   20.0    0.0
 1990 199    15  12.00  11.20   1.60  2.153  2.153  0.000  2.153  0.000   22.2    0.0   22.2    0.0
 1990 200    16  12.30   8.90  -2.00  2.036  2.036  0.000  2.036  0.000   24.2    0.0   24.2    0.0
 1990 201    17  11.70   8.10  -1.20  1.927  1.881  0.000  1.881  0.000   26.1    0.0   26.1    0.0
 1990 202    18   9.40   8.60  -1.00  1.566  1.566  0.000  1.566  0.000   27.7    0.0   27.7    0.0
 1990 203    19  12.50   8.80  -5.60  1.976  1.976  0.000  1.976  0.000   29.6    0.0   29.6    0.0
 1990 204    20  12.50  13.90  -0.70  2.286  1.417  0.000  1.417  0.000   31.1    0.0   31.1    0.0
 1990 205    21  14.00  14.70   2.10  2.671  1.098  0.000  1.098  0.000   32.1    0.0   32.1    0.0
 1990 206    22  14.70   6.50  -1.00  2.358  0.929  0.000  0.929  0.000   33.1    0.0   33.1    0.0
 1990 207    23  11.00  12.00   4.00  2.052  0.820  0.000  0.820  0.000   33.9    0.0   33.9    0.0
 1990 208    24  13.50  16.00   1.70  2.617  0.743  0.000  0.743  0.000   34.6    0.0   34.6    0.0
 1990 209    25  14.90  10.20   1.10  2.615  0.683  0.000  0.683  0.000   35.3    0.0   35.3    0.0
 1990 210    26  14.20  12.70  -1.10  2.535  0.637  0.000  0.637  0.000   36.0    0.0   36.0    0.0
 1990 211    27  12.80  12.80  -1.00  2.292  0.598  0.000  0.598  0.000   36.6    0.0   36.6    0.0
 1990 212    28  13.00  14.90  -1.90  2.385  0.566  0.000  0.566  0.000   37.1    0.0   37.1    0.0
 1990 213    29  13.00  17.50   3.80  2.631  0.539  0.001  0.539  0.000   37.7    0.0   37.7    0.0
 1990 214    30  14.40  19.90   3.70  3.014  0.516  0.002  0.515  0.000   38.2    0.0   38.2    0.0
 1990 215    31  14.80  21.50   5.00  3.206  0.497  0.004  0.494  0.000   38.7    0.0   38.7    0.0
 1990 216    32  14.80  21.90   5.70  3.243  0.482  0.006  0.475  0.000   39.2    0.0   39.1    0.0
 1990 217    33  14.50  25.90  10.20  3.477  0.469  0.010  0.459  0.000   39.6    0.0   39.6    0.0
 1990 218    34  15.60  23.40  13.90  3.739  0.462  0.018  0.444  0.000   40.1    0.0   40.1    0.0
 1990 219    35  15.20  25.90  14.40  3.769  0.457  0.027  0.430  0.000   40.5    0.1   40.5    0.0
 1990 220    36  12.90  25.00  12.80  3.122  0.448  0.031  0.418  0.000   41.0    0.1   40.9    0.0
 1990 221    37  14.70  20.50  10.30  3.289  1.641  0.041  1.600  0.000   42.6    0.1   42.5    0.0
 1990 222    38  15.10  22.30   8.90  3.414  0.479  0.061  0.417  0.000   43.1    0.2   42.9    0.0
 1990 223    39  15.40  28.00  11.90  3.828  3.828  0.094  3.735  0.000   46.9    0.3   46.6    0.0
 1990 224    40  15.30  28.40  12.10  3.821  3.254  0.137  3.116  0.000   50.2    0.4   49.8    0.0
 1990 225    41  14.50  28.00  12.80  3.617  2.928  0.177  2.751  0.000   53.1    0.6   52.5    0.0
 1990 226    42   5.20  25.80  14.90  1.282  1.282  0.081  1.201  0.000   54.4    0.7   53.7    0.0
 1990 227    43   7.50  15.80  10.50  1.561  1.561  0.121  1.440  0.000   56.0    0.8   55.2    0.0
 1990 228    44  14.80  18.90   8.50  3.155  3.155  0.264  2.891  0.000   59.1    1.1   58.0    0.0
 1990 229    45  16.80  21.40   7.70  3.673  3.006  0.336  2.670  0.000   62.1    1.4   60.7    0.0
 1990 230    46  16.20  20.80   6.00  3.456  2.985  0.346  2.639  0.000   65.1    1.8   63.4    0.0
 1990 231    47  12.80  20.80  10.40  2.837  1.717  0.307  1.410  0.000   66.8    2.1   64.8    0.0
 1990 232    48  17.30  21.00  10.30  3.834  1.552  0.458  1.094  0.000   68.4    2.5   65.9    0.0
 1990 233    49  14.80  20.90   6.70  3.166  1.344  0.417  0.927  0.000   69.7    2.9   66.8    0.0
 1990 234    50  13.00  18.40   8.30  2.723  1.205  0.386  0.819  0.000   70.9    3.3   67.6    0.0
 1990 235    51  17.00  15.60   4.40  3.290  1.238  0.497  0.741  0.000   72.2    3.8   68.3    0.0
 1990 236    52  11.20  18.10   3.70  2.233  1.022  0.339  0.683  0.000   73.2    4.2   69.0    0.0
 1990 237    53  13.00  24.60   9.60  2.986  1.083  0.447  0.636  0.000   74.3    4.6   69.7    0.0
 1990 238    54  16.40  25.50  11.70  3.866  1.244  0.646  0.598  0.000   75.5    5.3   70.3    0.0
 1990 239    55   6.80  17.60   5.50  1.362  1.362  0.257  1.105  0.000   76.9    5.5   71.4    0.0
 1990 240    56  18.80   9.70   2.00  3.209  3.209  0.627  2.582  0.000   80.1    6.1   74.0    0.0
 1990 241    57  17.80  14.60  -1.20  3.194  3.194  0.533  2.661  0.000   83.3    6.7   76.6    0.0
 1990 242    58  16.80  21.80   2.90  3.539  2.547  0.302  2.245  0.000   85.8    7.0   78.9    0.0
 1990 243    59   5.50  11.80   5.50  1.025  1.025  0.090  0.935  0.000   86.9    7.1   79.8    0.0
 1990 244    60  10.70  10.20   0.80  1.846  1.405  0.165  1.239  0.000   88.3    7.2   81.0    0.0
 1990 245    61  17.70  11.60  -2.30  3.031  3.031  0.200  2.830  0.000   91.3    7.4   83.9    0.0
 1990 246    62  19.80  16.80   2.50  3.904  1.535  0.083  1.452  0.000   92.8    7.5   85.3    0.0
 1990 247    63   5.60  16.40   7.10  1.148  1.142  0.029  1.113  0.000   94.0    7.5   86.4    0.0
 1990 248    64   6.00  18.60  13.40  1.339  0.996  0.057  0.938  0.000   95.0    7.6   87.4    0.0
 1990 249    65   5.70  15.40  13.40  1.218  1.218  0.057  1.161  0.000   96.2    7.7   88.5    0.0
 1990 250    66   5.80  15.90  12.80  1.240  1.106  0.062  1.044  0.000   97.3    7.7   89.6    0.0
 1990 251    67   5.80  14.30  10.30  1.184  1.184  0.064  1.120  0.000   98.5    7.8   90.7    0.0
 1990 252    68  19.70  23.50   7.80  4.456  4.456  0.251  4.205  0.000  102.9    8.0   94.9    0.0
 1990 253    69  15.20  27.50  11.60  3.717  2.617  0.291  2.326  0.000  105.5    8.3   97.2    0.0
 1990 254    70   9.60  23.10  10.70  2.200  2.200  0.222  1.978  0.000  107.7    8.5   99.2    0.0
 1990 255    71  17.10  13.80   5.20  3.263  3.263  0.383  2.880  0.000  111.0    8.9  102.1    0.0
 1990 256    72  18.80  11.80   2.70  3.385  2.654  0.416  2.238  0.000  113.7    9.3  104.3    0.0
 1990 257    73  20.40  14.20   0.50  3.734  2.993  0.422  2.571  0.000  116.7    9.8  106.9    0.0
 1990 258    74  21.40  18.40   3.40  4.318  1.760  0.358  1.402  0.000  118.4   10.1  108.3    0.0
 1990 259    75  17.80  21.60   7.90  3.909  1.451  0.360  1.091  0.000  119.9   10.5  109.4    0.0
 1990 260    76  10.60  17.70  10.60  2.253  1.197  0.272  0.925  0.000  121.1   10.8  110.3    0.0
 1990 261    77   9.30  17.90  11.00  1.982  1.982  0.286  1.696  0.000  123.0   11.0  112.0    0.0
 1990 262    78  13.80  17.70  10.00  2.896  2.896  0.490  2.407  0.000  125.9   11.5  114.4    0.0
 1990 263    79   6.40  17.90  13.30  1.383  1.383  0.266  1.117  0.000  127.3   11.8  115.5    0.0
 1990 264    80   6.40  20.50  15.80  1.456  1.311  0.312  0.999  0.000  128.6   12.1  116.5    0.0
 1990 265    81  20.10  18.60   9.20  4.196  4.196  0.994  3.202  0.000  132.8   13.1  119.7    0.0
 1990 266    82  18.60  13.50   5.40  3.466  2.371  0.898  1.473  0.000  135.2   14.0  121.2    0.0
 1990 267    83  22.30  15.00   3.20  4.153  2.229  1.106  1.123  0.000  137.4   15.1  122.3    0.0
 1990 268    84  23.20  16.30   3.10  4.408  2.078  1.134  0.944  0.000  139.5   16.2  123.3    0.0
 1990 269    85  23.40  20.50   5.10  4.820  2.034  1.203  0.830  0.000  141.5   17.4  124.1    0.0
 1990 270    86  21.30  24.00   8.90  4.740  2.027  1.277  0.750  0.000  143.6   18.7  124.8    0.0
 1990 271    87   6.80  21.70  12.20  1.504  1.145  0.455  0.689  0.000  144.7   19.2  125.5    0.0
 1990 272    88  19.30  22.00  11.30  4.235  2.035  1.394  0.641  0.000  146.8   20.6  126.2    0.0
 1990 273    89  19.30  25.20   8.90  4.297  2.180  1.577  0.602  0.000  148.9   22.1  126.8    0.0
 1990 274    90  21.70  28.10  12.90  5.141  2.648  2.079  0.569  0.000  151.6   24.2  127.4    0.0
 1990 275    91  24.20  24.00  11.90  5.372  2.972  2.430  0.541  0.000  154.6   26.7  127.9    0.0
 1990 276    92  21.80  26.60  13.30  5.026  2.968  2.451  0.517  0.000  157.5   29.1  128.4    0.0
 1990 277    93  17.90  30.10  17.50  4.411  2.821  2.325  0.496  0.000  160.3   31.4  128.9    0.0
 1990 278    94   7.10  19.10  17.30  1.522  1.352  0.875  0.477  0.000  161.7   32.3  129.4    0.0
 1990 279    95   9.40  22.70  17.20  2.099  2.099  1.251  0.848  0.000  163.8   33.6  130.2    0.0
 1990 280    96   7.20  21.60  17.70  1.586  1.586  0.987  0.599  0.000  165.4   34.5  130.8    0.0
 1990 281    97  11.50  20.40  13.70  2.407  2.407  1.542  0.865  0.000  167.8   36.1  131.7    0.0
 1990 282    98  23.40  22.30   9.50  4.828  4.828  3.184  1.644  0.000  172.6   39.3  133.3    0.0
 1990 283    99  21.00  22.30  11.30  4.390  4.390  2.970  1.420  0.000  177.0   42.2  134.8    0.0
 1990 284   100   9.00  22.10  14.50  1.923  1.923  1.335  0.587  0.000  178.9   43.6  135.3    0.0
 1990 285   101  25.50  19.40  11.30  5.105  5.105  3.635  1.470  0.000  184.0   47.2  136.8    0.0
 1990 286   102  26.10  21.60   7.60  5.197  5.197  3.768  1.429  0.000  189.2   51.0  138.2    0.0
 1990 287   103  24.80  22.60  11.50  5.167  5.167  3.804  1.362  0.000  194.4   54.8  139.6    0.0
 1990 288   104  25.50  20.10   8.90  5.015  5.015  3.768  1.247  0.000  199.4   58.6  140.9    0.0
 1990 289   105  26.40  20.50   5.00  5.031  4.747  3.830  0.917  0.000  204.2   62.4  141.8    0.0
 1990 290   106  15.20  21.40   8.90  3.035  3.035  2.326  0.709  0.000  207.2   64.7  142.5    0.0
 1990 291   107  24.50  24.40  14.30  5.311  5.311  4.125  1.186  0.000  212.5   68.8  143.7    0.0
 1990 292   108  17.30  24.00  15.30  3.753  3.753  2.975  0.778  0.000  216.3   71.8  144.4    0.0
 1990 293   109  16.40  23.70  15.70  3.541  3.541  2.918  0.623  0.000  219.8   74.7  145.1    0.0
 1990 294   110  22.20  24.00  14.20  4.741  4.741  3.983  0.758  0.000  224.5   78.7  145.8    0.0
 1990 295   111  27.10  24.80  13.10  5.781  5.781  4.939  0.842  0.000  230.3   83.6  146.7    0.0
 1990 296   112  21.10  25.60  13.10  4.538  4.538  3.925  0.613  0.000  234.9   87.6  147.3    0.0
 1990 297   113  20.80  22.20  13.80  4.310  4.310  3.765  0.545  0.000  239.2   91.3  147.8    0.0
 1990 298   114  14.30  24.70  11.80  3.003  3.003  2.643  0.361  0.000  242.2   94.0  148.2    0.0
 1990 299   115  25.10  27.10  16.30  5.619  5.619  4.977  0.643  0.000  247.8   99.0  148.8    0.0
 1990 300   116  19.60  28.30  17.00  4.469  4.469  3.987  0.481  0.000  252.3  102.9  149.3    0.0
 1990 301   117   8.80  23.80  18.50  1.925  1.925  1.729  0.196  0.000  254.2  104.7  149.5    0.0
 1990 302   118  12.20  27.40  20.40  2.821  2.821  2.541  0.280  0.000  257.0  107.2  149.8    0.0
 1990 303   119  26.40  28.80  17.90  6.085  6.085  5.499  0.586  0.000  263.1  112.7  150.4    0.0
 1990 304   120  26.50  23.20  15.80  5.624  5.624  5.109  0.515  0.000  268.7  117.8  150.9    0.0
 1990 305   121  23.10  24.10  16.70  4.990  4.990  4.549  0.441  0.000  273.7  122.4  151.3    0.0
 1990 306   122  20.10  27.00  14.30  4.407  4.407  4.032  0.375  0.000  278.1  126.4  151.7    0.0
 1990 307   123  11.80  28.10  20.80  2.752  2.752  2.527  0.225  0.000  280.9  128.9  151.9    0.0
 1990 308   124  21.00  22.20  10.80  4.215  4.215  3.879  0.335  0.000  285.1  132.8  152.3    0.0
 1990 309   125  28.80  19.00   6.40  5.323  5.323  4.909  0.414  0.000  290.4  137.7  152.7    0.0
 1990 310   126  17.40  21.20   9.80  3.416  3.416  3.153  0.263  0.000  293.8  140.9  152.9    0.0
 1990 311   127  23.40  23.50  13.50  4.881  4.881  4.512  0.369  0.000  298.7  145.4  153.3    0.0
 1990 312   128   8.40  18.40  11.30  1.609  1.609  1.491  0.118  0.000  300.3  146.9  153.4    0.0
 1990 313   129  16.20  22.30  15.10  3.373  3.373  3.123  0.250  0.000  303.7  150.0  153.7    0.0
 1990 314   130  21.20  24.80  13.70  4.500  4.500  4.163  0.337  0.000  308.2  154.2  154.0    0.0
 1990 315   131  23.60  27.00  15.30  5.209  5.209  4.816  0.393  0.000  313.4  159.0  154.4    0.0
 1990 316   132  12.20  24.60  14.20  2.594  2.594  2.397  0.197  0.000  316.0  161.4  154.6    0.0
 1990 317   133  26.70  34.90  18.50  6.585  6.585  6.082  0.503  0.000  322.6  167.5  155.1    0.0
 1990 318   134  15.90  33.00  20.80  3.907  3.907  3.606  0.301  0.000  326.5  171.1  155.4    0.0
 1990 319   135   8.60  23.20  17.30  1.844  1.844  1.701  0.143  0.000  328.3  172.8  155.6    0.0
 1990 320   136  17.60  22.10  12.20  3.569  3.569  3.291  0.279  0.000  331.9  176.1  155.8    0.0
 1990 321   137  28.70  26.10   9.30  5.974  5.974  5.504  0.470  0.000  337.9  181.6  156.3    0.0
 1990 322   138  27.80  29.70  16.50  6.390  6.390  5.884  0.506  0.000  344.2  187.4  156.8    0.0
 1990 323   139  27.10  33.40  21.80  6.736  6.736  6.199  0.537  0.000  351.0  193.6  157.3    0.0
 1990 324   140  12.20  28.00  21.10  2.848  2.848  2.619  0.229  0.000  353.8  196.3  157.6    0.0
 1990 325   141  30.70  28.70  18.80  7.100  7.100  6.530  0.570  0.000  360.9  202.8  158.1    0.0
 1990 326   142  28.10  28.00  15.30  6.278  6.278  5.775  0.504  0.000  367.2  208.6  158.6    0.0
 1990 327   143  29.80  28.20  14.20  6.617  6.617  6.086  0.531  0.000  373.8  214.6  159.2    0.0
 1990 328   144  25.60  28.70  16.80  5.832  5.832  5.364  0.468  0.000  379.7  220.0  159.6    0.0
 1990 329   145  20.10  29.20  18.20  4.654  4.654  4.280  0.373  0.000  384.3  224.3  160.0    0.0
 1990 330   146  22.90  24.90  15.80  4.953  4.953  4.555  0.398  0.000  389.3  228.8  160.4    0.0
 1990 331   147  30.40  21.20  10.00  5.981  5.981  5.501  0.480  0.000  395.2  234.3  160.9    0.0
 1990 332   148  30.90  24.60   9.00  6.298  6.298  5.792  0.505  0.000  401.5  240.1  161.4    0.0
 1990 333   149  31.00  27.10  12.20  6.689  6.689  6.152  0.537  0.000  408.2  246.3  161.9    0.0
 1990 334   150  14.90  26.80  14.90  3.273  3.273  3.010  0.263  0.000  411.5  249.3  162.2    0.0
 1990 335   151  23.40  26.40  14.70  5.107  5.107  4.698  0.410  0.000  416.6  254.0  162.6    0.0
 1990 336   152   9.00  23.50  14.10  1.888  1.888  1.736  0.152  0.000  418.5  255.7  162.8    0.0
 1990 337   153  30.10  22.90  11.40  6.127  6.127  5.635  0.492  0.000  424.6  261.4  163.3    0.0
 1990 338   154  28.70  27.90  10.60  6.173  6.173  5.677  0.495  0.000  430.8  267.1  163.8    0.0
 1990 339   155  16.80  32.30  20.30  4.085  4.085  3.757  0.328  0.000  434.9  270.8  164.1    0.0
 1990 340   156  16.80  25.60  17.50  3.713  3.713  3.415  0.298  0.000  438.6  274.2  164.4    0.0
 1990 341   157  26.90  25.20  16.00  5.848  5.848  5.379  0.469  0.000  444.4  279.6  164.8    0.0
 1990 342   158  30.30  25.00  12.00  6.363  6.363  5.852  0.511  0.000  450.8  285.5  165.4    0.0
 1990 343   159   9.00  19.70  14.20  1.801  1.801  1.656  0.145  0.000  452.6  287.1  165.5    0.0
 1990 344   160   9.10  19.50  15.90  1.843  1.843  1.695  0.148  0.000  454.5  288.8  165.7    0.0
 1990 345   161  24.70  25.00  14.70  5.302  5.302  4.876  0.426  0.000  459.8  293.7  166.1    0.0
 1990 346   162  14.70  22.00  10.50  2.936  2.936  2.694  0.242  0.000  462.7  296.4  166.3    0.0
 1990 347   163  19.00  24.00  14.30  4.018  4.018  3.680  0.338  0.000  466.7  300.1  166.7    0.0
 1990 348   164  29.20  21.90  10.30  5.818  5.818  5.314  0.505  0.000  472.5  305.4  167.2    0.0
 1990 349   165  31.80  27.30  10.90  6.815  6.815  6.210  0.604  0.000  479.3  311.6  167.8    0.0
 1990 350   166  28.70  30.20  13.70  6.506  6.506  5.911  0.596  0.000  485.9  317.5  168.4    0.0
 1990 351   167  14.40  30.10  18.00  3.369  3.369  3.048  0.322  0.000  489.2  320.5  168.7    0.0
 1990 352   168  27.40  25.60  17.30  6.063  6.063  5.454  0.610  0.000  495.3  326.0  169.3    0.0
 1990 353   169  31.40  25.60  14.40  6.796  6.796  6.080  0.716  0.000  502.1  332.1  170.0    0.0
 1990 354   170  31.60  27.10  14.00  6.945  6.945  6.181  0.764  0.000  509.0  338.3  170.8    0.0
 1990 355   171  25.60  29.80  15.90  5.894  5.894  5.214  0.679  0.000  514.9  343.5  171.5    0.0
 1990 356   172  10.00  25.70  19.00  2.252  2.252  1.976  0.275  0.000  517.2  345.4  171.7    0.0
 1990 357   173  19.50  28.40  17.80  4.492  4.492  3.908  0.583  0.000  521.7  349.4  172.3    0.0
 1990 358   174  13.10  24.40  15.50  2.833  2.833  2.439  0.393  0.000  524.5  351.8  172.7    0.0
 1990 359   175  29.40  25.70  12.70  6.321  6.321  5.394  0.927  0.000  530.8  357.2  173.6    0.0
 1990 360   176  31.40  31.30  15.30  7.359  7.359  6.220  1.139  0.000  538.2  363.4  174.8    0.0
 1990 361   177  31.40  31.50  18.00  7.536  7.536  6.277  1.260  0.000  545.7  369.7  176.0    0.0
 1990 362   178  31.40  21.00  13.30  6.432  6.432  5.257  1.175  0.000  552.1  374.9  177.2    0.0
 1990 363   179  29.60  23.30   9.40  6.048  6.026  4.886  1.139  0.000  558.2  379.8  178.3    0.0
 1990 364   180  30.80  27.20  11.40  6.725  6.725  5.371  1.354  0.000  564.9  385.2  179.7    0.0
 1990 365   181  31.50  29.40  14.80  7.262  7.262  5.700  1.562  0.000  572.2  390.9  181.3    0.0
 1991 001   182  24.30  31.60  17.10  5.857  5.857  4.485  1.373  0.000  578.0  395.4  182.6    0.0
 1991 002   183  24.10  29.20  20.30  5.814  5.542  4.303  1.239  0.000  583.6  399.7  183.9    0.0
 1991 003   184  26.70  29.10  17.40  6.326  5.497  4.488  1.010  0.000  589.1  404.2  184.9    0.0
 1991 004   185  31.30  28.60  13.40  7.152  5.948  5.074  0.874  0.000  595.0  409.2  185.8    0.0
 1991 005   186  31.30  28.20  13.80  7.141  5.847  5.066  0.782  0.000  600.8  414.3  186.5    0.0

*DSSAT Cropping System Model Ver. 4.0.2.000               Aug 03, 2016; 15:09:39

*RUN   5        : UYMZ                    
 MODEL          : MZCER040 - Maize           
 EXPERIMENT     : UYMZ0126 MZ    late to create DSS                             
 TREATMENT  1   : UYMZ                    

@YEAR DOY   DAS   SRAA   TMXA   TMNA   EOAA   ETAA   EPAA   ESAA   EFAD   ETAC   EPAC   ESAC   EFAC
 1991 184     0  12.70   8.30   5.30  2.263  2.263  0.000  2.263  0.000    2.3    0.0    2.3    0.0
 1991 185     1   8.50   9.00   0.20  1.446  1.388  0.000  1.388  0.000    3.7    0.0    3.7    0.0
 1991 186     2   9.30  13.20  -1.60  1.665  1.084  0.000  1.084  0.000    4.7    0.0    4.7    0.0
 1991 187     3  10.70  15.90   6.50  2.172  2.172  0.000  2.172  0.000    6.9    0.0    6.9    0.0
 1991 188     4  10.70  17.20   4.00  2.161  2.161  0.000  2.161  0.000    9.1    0.0    9.1    0.0
 1991 189     5   5.00  18.00   6.90  1.050  1.050  0.000  1.050  0.000   10.1    0.0   10.1    0.0
 1991 190     6   6.60  23.80  11.10  1.554  1.179  0.000  1.179  0.000   11.3    0.0   11.3    0.0
 1991 191     7   7.30  12.70   5.20  1.394  1.394  0.000  1.394  0.000   12.7    0.0   12.7    0.0
 1991 192     8   7.30   9.90   2.10  1.289  1.289  0.000  1.289  0.000   14.0    0.0   14.0    0.0
 1991 193     9   6.40   8.10   1.00  1.082  1.082  0.000  1.082  0.000   15.1    0.0   15.1    0.0
 1991 194    10  11.80   8.20  -1.10  1.950  1.950  0.000  1.950  0.000   17.0    0.0   17.0    0.0
 1991 195    11  11.40  10.00  -1.70  1.931  1.273  0.000  1.273  0.000   18.3    0.0   18.3    0.0
 1991 196    12  12.40  12.60  -2.10  2.186  2.186  0.000  2.186  0.000   20.5    0.0   20.5    0.0
 1991 197    13   8.10  16.00   5.80  1.636  1.551  0.000  1.551  0.000   22.0    0.0   22.0    0.0
 1991 198    14   8.40  22.00   9.90  1.913  1.155  0.000  1.155  0.000   23.2    0.0   23.2    0.0
 1991 199    15   3.90  16.90   8.70  0.820  0.820  0.000  0.820  0.000   24.0    0.0   24.0    0.0
 1991 200    16  10.60  15.00   5.60  2.105  2.105  0.000  2.105  0.000   26.1    0.0   26.1    0.0
 1991 201    17   9.40  24.20  12.80  2.256  2.256  0.000  2.256  0.000   28.4    0.0   28.4    0.0
 1991 202    18   4.00  12.80   8.00  0.787  0.787  0.000  0.787  0.000   29.1    0.0   29.1    0.0
 1991 203    19   4.00   8.40   6.60  0.724  0.724  0.000  0.724  0.000   29.9    0.0   29.9    0.0
 1991 204    20   8.20  10.20   4.80  1.499  1.499  0.000  1.499  0.000   31.4    0.0   31.4    0.0
 1991 205    21  14.00  15.90   2.30  2.726  2.726  0.000  2.726  0.000   34.1    0.0   34.1    0.0
 1991 206    22  14.10  16.80   2.80  2.797  2.388  0.000  2.388  0.000   36.5    0.0   36.5    0.0
 1991 207    23  14.30  24.00   9.10  3.320  2.940  0.000  2.940  0.000   39.4    0.0   39.4    0.0
 1991 208    24  14.40  27.10  10.20  3.505  1.440  0.006  1.434  0.000   40.9    0.0   40.9    0.0
[...]
 TREATMENT  1   : UYMZ                    

@YEAR DOY   DAS   SRAA   TMXA   TMNA   EOAA   ETAA   EPAA   ESAA   EFAD   ETAC   EPAC   ESAC   EFAC
 1992 184     0  12.10  13.40   3.90  2.305  2.305  0.000  2.305  0.000    2.3    0.0    2.3    0.0
 1992 185     1  12.10  13.80   1.00  2.250  1.740  0.000  1.740  0.000    4.0    0.0    4.0    0.0
 1992 186     2   3.70  14.00   8.90  0.748  0.748  0.000  0.748  0.000    4.8    0.0    4.8    0.0
 1992 187     3  10.70  11.60   6.10  2.028  2.028  0.000  2.028  0.000    6.8    0.0    6.8    0.0
 1992 188     4  10.20   9.20  -0.50  1.728  1.728  0.000  1.728  0.000    8.5    0.0    8.5    0.0
 1992 189     5  11.40  10.80  -2.00  1.951  1.951  0.000  1.951  0.000   10.5    0.0   10.5    0.0
 1992 190     6  11.30  17.00   2.00  2.231  1.456  0.000  1.456  0.000   12.0    0.0   12.0    0.0
 1992 191     7  11.40  19.50   4.90  2.400  2.400  0.000  2.400  0.000   14.4    0.0   14.4    0.0
 1992 192     8  12.30  23.00   9.50  2.829  1.432  0.000  1.432  0.000   15.8    0.0   15.8    0.0
 1992 193     9  12.30  24.20   9.60  2.875  1.104  0.000  1.104  0.000   16.9    0.0   16.9    0.0
 1992 194    10  12.30  24.60  11.90  2.945  0.933  0.000  0.933  0.000   17.8    0.0   17.8    0.0
 1992 195    11   8.30  25.80  13.80  2.048  0.823  0.000  0.823  0.000   18.6    0.0   18.6    0.0
 1992 196    12   3.90  16.50   4.30  0.782  0.782  0.000  0.782  0.000   19.4    0.0   19.4    0.0
 1992 197    13  11.40   7.10   1.00  1.894  1.894  0.000  1.894  0.000   21.3    0.0   21.3    0.0
 1992 198    14   7.10   6.60  -1.50  1.134  1.134  0.000  1.134  0.000   22.5    0.0   22.5    0.0
 1992 199    15  10.20   9.00  -1.80  1.695  1.695  0.000  1.695  0.000   24.2    0.0   24.2    0.0
 1992 200    16  13.50   6.80   3.40  2.294  1.935  0.000  1.935  0.000   26.1    0.0   26.1    0.0
 1992 201    17   4.00  11.20   2.70  0.726  0.726  0.000  0.726  0.000   26.8    0.0   26.8    0.0
 1992 202    18  12.80  16.30   0.20  2.455  2.455  0.000  2.455  0.000   29.3    0.0   29.3    0.0
 1992 203    19  14.10   9.70   2.30  2.487  1.415  0.000  1.415  0.000   30.7    0.0   30.7    0.0
 1992 204    20  10.40   8.40  -1.50  1.716  1.097  0.000  1.097  0.000   31.8    0.0   31.8    0.0
 1992 205    21  14.60   8.40  -1.30  2.415  0.928  0.000  0.928  0.000   32.7    0.0   32.7    0.0
 1992 206    22   9.40  10.50  -0.90  1.621  0.820  0.000  0.820  0.000   33.5    0.0   33.5    0.0
 1992 207    23  10.70  15.20   3.40  2.085  0.742  0.000  0.742  0.000   34.3    0.0   34.3    0.0
 1992 208    24   4.20  11.80   9.50  0.827  0.683  0.000  0.683  0.000   35.0    0.0   35.0    0.0
 1992 209    25  12.50  14.00   5.80  2.450  2.450  0.000  2.450  0.000   37.4    0.0   37.4    0.0
 1992 210    26   4.20  11.10   3.00  0.764  0.764  0.000  0.764  0.000   38.2    0.0   38.2    0.0
 1992 211    27   9.60  16.80   9.10  2.024  1.200  0.000  1.200  0.000   39.4    0.0   39.4    0.0
 1992 212    28   4.30  13.60   7.50  0.852  0.852  0.001  0.851  0.000   40.2    0.0   40.2    0.0
 1992 213    29   6.30   9.40   3.80  1.124  1.124  0.002  1.122  0.000   41.3    0.0   41.3    0.0
 1992 214    30  13.60   8.80   0.20  2.306  0.993  0.003  0.990  0.000   42.3    0.0   42.3    0.0
 1992 215    31  13.70  12.00   0.10  2.450  0.863  0.002  0.861  0.000   43.2    0.0   43.2    0.0
 1992 216    32  13.70  13.70   0.50  2.530  0.774  0.002  0.772  0.000   44.0    0.0   44.0    0.0
 1992 217    33  10.00  12.50   1.20  1.825  0.707  0.001  0.706  0.000   44.7    0.0   44.7    0.0
 1992 218    34  12.80  17.40  -1.30  2.458  0.656  0.001  0.655  0.000   45.3    0.0   45.3    0.0
 1992 219    35  15.20  25.60   6.90  3.534  0.615  0.001  0.613  0.000   46.0    0.0   45.9    0.0
 1992 220    36   4.50  21.40   8.20  1.002  0.581  0.002  0.579  0.000   46.5    0.0   46.5    0.0
 1992 221    37  14.50  10.40   1.40  2.561  1.927  0.007  1.920  0.000   48.5    0.0   48.4    0.0
 1992 222    38  10.20  13.40  -0.60  1.852  0.578  0.004  0.574  0.000   49.0    0.0   49.0    0.0
 1992 223    39   9.40  15.40   7.80  1.918  0.548  0.003  0.545  0.000   49.6    0.0   49.6    0.0
 1992 224    40  15.10  14.90   3.90  2.943  0.526  0.006  0.520  0.000   50.1    0.0   50.1    0.0
 1992 225    41  14.50  15.90   6.10  2.931  0.505  0.007  0.499  0.000   50.6    0.0   50.6    0.0
 1992 226    42  15.60  18.00   2.80  3.149  0.489  0.009  0.480  0.000   51.1    0.1   51.1    0.0
 1992 227    43  14.70  18.40   3.00  2.990  0.472  0.009  0.463  0.000   51.6    0.1   51.5    0.0
 1992 228    44   9.50  19.20   5.70  2.005  0.454  0.007  0.447  0.000   52.0    0.1   52.0    0.0
 1992 229    45  15.30  22.20   8.70  3.456  0.449  0.015  0.433  0.000   52.5    0.1   52.4    0.0
 1992 230    46  12.30  23.20   9.70  2.838  0.438  0.018  0.421  0.000   52.9    0.1   52.8    0.0
 1992 231    47  14.00  20.80   9.20  3.116  0.434  0.025  0.409  0.000   53.4    0.1   53.2    0.0
 1992 232    48  13.40  19.60   7.90  2.900  0.427  0.029  0.398  0.000   53.8    0.2   53.6    0.0
 1992 233    49  13.30  19.40   6.20  2.824  0.430  0.041  0.388  0.000   54.2    0.2   54.0    0.0
 1992 234    50  16.90  23.10   9.50  3.880  0.452  0.073  0.379  0.000   54.7    0.3   54.4    0.0
 1992 235    51   7.80  20.10  13.90  1.787  1.248  0.048  1.200  0.000   55.9    0.3   55.6    0.0
 1992 236    52  17.00  19.30   9.60  3.707  3.707  0.131  3.576  0.000   59.6    0.4   59.2    0.0
 1992 237    53  17.80  21.00   7.10  3.879  0.604  0.165  0.439  0.000   60.2    0.6   59.6    0.0
 1992 238    54  18.00  21.20   5.80  3.883  0.619  0.193  0.426  0.000   60.8    0.8   60.0    0.0
 1992 239    55  17.90  20.30   6.20  3.824  0.632  0.218  0.414  0.000   61.5    1.0   60.4    0.0
 1992 240    56  17.60  25.40   6.30  4.023  0.661  0.258  0.403  0.000   62.1    1.3   60.9    0.0
 1992 241    57  11.50  18.80  11.40  2.516  0.582  0.189  0.393  0.000   62.7    1.5   61.2    0.0
 1992 242    58  14.20  24.40  11.00  3.324  0.664  0.281  0.383  0.000   63.4    1.8   61.6    0.0
 1992 243    59   5.50  20.90  15.20  1.274  0.499  0.125  0.374  0.000   63.9    1.9   62.0    0.0
 1992 244    60   7.20  13.80   9.60  1.437  1.437  0.162  1.275  0.000   65.3    2.0   63.3    0.0
 1992 245    61   7.50  14.00   7.20  1.465  0.680  0.173  0.507  0.000   66.0    2.2   63.8    0.0
 1992 246    62   5.70  14.80   8.60  1.141  0.626  0.140  0.487  0.000   66.6    2.4   64.3    0.0
 1992 247    63  14.90  17.40   7.30  3.056  0.860  0.391  0.469  0.000   67.5    2.7   64.7    0.0
 1992 248    64  18.80  18.80   6.80  3.909  0.983  0.530  0.453  0.000   68.5    3.3   65.2    0.0
 1992 249    65  18.30  21.20   6.10  3.902  1.003  0.565  0.439  0.000   69.5    3.8   65.6    0.0
 1992 250    66  18.30  18.80   8.70  3.860  1.028  0.602  0.425  0.000   70.5    4.4   66.1    0.0
 1992 251    67  17.80  20.60   9.70  3.875  1.061  0.648  0.413  0.000   71.6    5.1   66.5    0.0
 1992 252    68   5.90  20.10  13.60  1.318  0.641  0.239  0.402  0.000   72.2    5.3   66.9    0.0
 1992 253    69  11.20  20.00  13.40  2.488  0.883  0.491  0.392  0.000   73.1    5.8   67.3    0.0
 1992 254    70  12.60  21.60  13.10  2.842  0.991  0.608  0.383  0.000   74.1    6.4   67.6    0.0
 1992 255    71   8.60  21.20  14.90  1.954  1.954  0.455  1.499  0.000   76.0    6.9   69.1    0.0
 1992 256    72  16.90  19.30  12.30  3.653  2.045  0.925  1.120  0.000   78.1    7.8   70.3    0.0
 1992 257    73  10.20  16.70   8.80  2.056  1.005  0.556  0.449  0.000   79.1    8.4   70.7    0.0
 1992 258    74  17.10  20.10   6.20  3.522  1.423  0.989  0.435  0.000   80.5    9.3   71.1    0.0
 1992 259    75  19.70  21.30   9.00  4.221  1.661  1.239  0.422  0.000   82.2   10.6   71.6    0.0
 1992 260    76  12.60  22.60  12.60  2.824  1.289  0.879  0.410  0.000   83.4   11.5   72.0    0.0
 1992 261    77  14.90  26.70  15.20  3.572  1.603  1.203  0.399  0.000   85.1   12.7   72.4    0.0
 1992 262    78  19.80  16.60   9.30  3.943  3.943  1.469  2.473  0.000   89.0   14.1   74.9    0.0
 1992 263    79  21.60  19.30   5.20  4.290  2.091  1.661  0.431  0.000   91.1   15.8   75.3    0.0
 1992 264    80  21.40  25.60   5.90  4.645  2.277  1.859  0.418  0.000   93.4   17.7   75.7    0.0
 1992 265    81  21.20  30.00  10.20  5.015  2.522  2.116  0.407  0.000   95.9   19.8   76.1    0.0
 1992 266    82   6.50  12.70   8.80  1.202  1.202  0.550  0.652  0.000   97.1   20.3   76.8    0.0
 1992 267    83  16.00  18.60   6.50  3.148  3.148  1.460  1.688  0.000  100.2   21.8   78.4    0.0
 1992 268    84   6.60  13.20  10.60  1.248  1.248  0.595  0.653  0.000  101.5   22.4   79.1    0.0
 1992 269    85  21.20  12.50   4.50  3.724  3.724  1.809  1.914  0.000  105.2   24.2   81.0    0.0
 1992 270    86  20.60  14.20   0.80  3.577  3.577  1.724  1.853  0.000  108.8   25.9   82.9    0.0
 1992 271    87  21.70  20.00   4.50  4.325  4.155  1.667  2.488  0.000  112.9   27.6   85.4    0.0
 1992 272    88  23.00  21.40   5.30  4.702  4.702  1.854  2.848  0.000  117.6   29.4   88.2    0.0
 1992 273    89  23.30  23.20   6.10  4.902  3.591  2.016  1.574  0.000  121.2   31.5   89.8    0.0
 1992 274    90  22.50  26.20  10.30  5.081  3.362  2.197  1.165  0.000  124.6   33.6   90.9    0.0
 1992 275    91  12.50  26.40  11.00  2.832  2.283  1.314  0.968  0.000  126.9   35.0   91.9    0.0
 1992 276    92  11.80  21.80  13.00  2.553  2.553  1.279  1.274  0.000  129.4   36.2   93.2    0.0
 1992 277    93  17.90  20.60  11.10  3.734  2.919  1.984  0.935  0.000  132.3   38.2   94.1    0.0
 1992 278    94  18.00  25.50  11.70  4.002  3.045  2.221  0.824  0.000  135.4   40.4   94.9    0.0
 1992 279    95   7.10  18.20  11.80  1.432  1.432  0.838  0.594  0.000  136.8   41.3   95.5    0.0
 1992 280    96  24.40  15.90   7.40  4.562  4.562  2.755  1.808  0.000  141.4   44.0   97.3    0.0
 1992 281    97  21.30  15.60   4.20  3.837  3.837  2.351  1.486  0.000  145.2   46.4   98.8    0.0
 1992 282    98  24.30  19.00   3.40  4.569  3.961  2.779  1.182  0.000  149.2   49.2  100.0    0.0
 1992 283    99  24.30  21.00   6.60  4.851  4.851  2.881  1.970  0.000  154.0   52.0  102.0    0.0
 1992 284   100  25.10  25.30   7.30  5.322  4.894  3.243  1.652  0.000  158.9   55.3  103.6    0.0
 1992 285   101  16.70  27.20   9.20  3.672  3.672  2.314  1.358  0.000  162.6   57.6  105.0    0.0
 1992 286   102  22.70  24.00  12.40  4.909  4.909  3.211  1.697  0.000  167.5   60.8  106.7    0.0
 1992 287   103  25.10  25.60   8.60  5.347  5.347  3.618  1.729  0.000  172.9   64.4  108.4    0.0
 1992 288   104  24.70  29.50  11.40  5.627  5.428  3.913  1.515  0.000  178.3   68.3  109.9    0.0
 1992 289   105   7.60  31.50  15.50  1.821  1.821  1.310  0.511  0.000  180.1   69.7  110.4    0.0
 1992 290   106   9.30  20.50  15.70  1.955  1.955  1.436  0.519  0.000  182.1   71.1  111.0    0.0
 1992 291   107  23.40  21.20  12.00  4.798  4.798  3.605  1.193  0.000  186.9   74.7  112.2    0.0
 1992 292   108  25.90  21.20   7.50  5.095  5.095  3.897  1.199  0.000  192.0   78.6  113.4    0.0
 1992 293   109   9.10  19.80  11.20  1.813  1.813  1.403  0.410  0.000  193.8   80.0  113.8    0.0
 1992 294   110  24.10  18.60  10.30  4.681  4.681  3.672  1.009  0.000  198.4   83.7  114.8    0.0
 1992 295   111  26.10  21.30   5.50  5.029  5.029  3.987  1.042  0.000  203.5   87.7  115.8    0.0
 1992 296   112  24.90  24.50   7.60  5.093  5.093  4.075  1.018  0.000  208.6   91.7  116.8    0.0
 1992 297   113  25.00  27.30  12.00  5.482  5.482  4.441  1.041  0.000  214.1   96.2  117.9    0.0
 1992 298   114  24.60  30.90  14.60  5.727  5.727  4.719  1.009  0.000  219.8  100.9  118.9    0.0
 1992 299   115   9.50  26.40  17.60  2.145  2.145  1.802  0.343  0.000  221.9  102.7  119.2    0.0
 1992 300   116  26.70  27.40  17.30  6.076  5.923  5.153  0.769  0.000  227.8  107.8  120.0    0.0
 1992 301   117  27.40  30.00  15.80  6.338  6.338  5.461  0.877  0.000  234.2  113.3  120.9    0.0
 1992 302   118  10.50  15.30   6.40  1.852  1.852  1.620  0.233  0.000  236.0  114.9  121.1    0.0
 1992 303   119  27.70  21.90   3.90  5.236  5.236  4.618  0.619  0.000  241.3  119.5  121.7    0.0
 1992 304   120  26.80  21.80   6.40  5.176  5.146  4.562  0.584  0.000  246.4  124.1  122.3    0.0
 1992 305   121  26.90  23.80   6.80  5.347  5.347  4.755  0.592  0.000  251.8  128.9  122.9    0.0
 1992 306   122  27.10  27.10   9.00  5.716  5.716  5.123  0.593  0.000  257.5  134.0  123.5    0.0
 1992 307   123  27.30  30.20  13.00  6.160  6.160  5.565  0.595  0.000  263.6  139.6  124.1    0.0
 1992 308   124  21.90  19.80   9.40  4.212  4.212  3.837  0.375  0.000  267.9  143.4  124.5    0.0
 1992 309   125  27.20  14.10   6.50  4.693  4.693  4.288  0.404  0.000  272.6  147.7  124.9    0.0
 1992 310   126  24.50  16.40   2.70  4.212  4.212  3.852  0.360  0.000  276.8  151.5  125.2    0.0
 1992 311   127  27.00  19.20   4.80  4.951  4.951  4.406  0.545  0.000  281.7  155.9  125.8    0.0
 1992 312   128  27.40  21.50   7.30  5.307  5.307  4.719  0.589  0.000  287.0  160.7  126.4    0.0
 1992 313   129  28.00  25.20   8.30  5.738  5.738  5.119  0.619  0.000  292.8  165.8  127.0    0.0
 1992 314   130  28.20  29.80  10.00  6.195  6.195  5.549  0.645  0.000  299.0  171.3  127.6    0.0
 1992 315   131   8.60  22.00  16.00  1.803  1.803  1.624  0.179  0.000  300.8  172.9  127.8    0.0
 1992 316   132  23.60  28.40  16.10  5.342  5.342  4.822  0.520  0.000  306.1  177.8  128.3    0.0
 1992 317   133  28.00  29.50  15.30  6.375  6.375  5.783  0.592  0.000  312.5  183.6  128.9    0.0
 1992 318   134  28.50  27.90  12.90  6.250  6.250  5.695  0.555  0.000  318.7  189.2  129.5    0.0
 1992 319   135  19.40  31.40  14.40  4.478  4.478  4.093  0.385  0.000  323.2  193.3  129.9    0.0
 1992 320   136  23.00  25.50  17.30  5.071  5.071  4.653  0.419  0.000  328.3  198.0  130.3    0.0
 1992 321   137  28.80  20.40  11.50  5.681  5.681  5.228  0.453  0.000  334.0  203.2  130.7    0.0
 1992 322   138  28.20  21.50   7.70  5.457  5.457  5.028  0.430  0.000  339.4  208.2  131.2    0.0
 1992 323   139  28.80  23.90   7.20  5.727  5.727  5.279  0.448  0.000  345.1  213.5  131.6    0.0
 1992 324   140  29.50  28.10  11.20  6.388  6.388  5.893  0.495  0.000  351.5  219.4  132.1    0.0
 1992 325   141  22.20  30.00  13.80  5.014  5.014  4.635  0.379  0.000  356.5  224.1  132.5    0.0
 1992 326   142   8.70  21.20  13.60  1.764  1.764  1.635  0.129  0.000  358.3  225.7  132.6    0.0
 1992 327   143  25.70  19.30  10.00  4.927  4.927  4.559  0.368  0.000  363.2  230.2  133.0    0.0
 1992 328   144  22.10  20.60   6.40  4.175  4.175  3.857  0.317  0.000  367.4  234.1  133.3    0.0
 1992 329   145  24.00  26.00  11.10  5.063  5.063  4.673  0.389  0.000  372.5  238.8  133.7    0.0
 1992 330   146  21.90  23.90  15.40  4.664  4.664  4.301  0.363  0.000  377.1  243.1  134.1    0.0
 1992 331   147  19.00  26.00  14.30  4.114  4.114  3.790  0.324  0.000  381.2  246.9  134.4    0.0
 1992 332   148  30.10  27.20  12.90  6.538  6.538  6.018  0.520  0.000  387.8  252.9  134.9    0.0
 1992 333   149  21.00  27.70  13.50  4.611  4.611  4.241  0.370  0.000  392.4  257.1  135.3    0.0
 1992 334   150  19.80  29.80  16.90  4.571  4.571  4.201  0.370  0.000  397.0  261.3  135.6    0.0
 1992 335   151  21.90  28.00  18.70  5.022  5.022  4.613  0.410  0.000  402.0  265.9  136.0    0.0
 1992 336   152  29.50  23.90  14.00  6.215  6.215  5.704  0.511  0.000  408.2  271.6  136.6    0.0
 1992 337   153  30.20  24.80   8.90  6.167  6.167  5.657  0.510  0.000  414.4  277.3  137.1    0.0
 1992 338   154  26.20  27.40   9.70  5.563  5.563  5.100  0.463  0.000  419.9  282.4  137.5    0.0
 1992 339   155  30.30  29.10  13.50  6.765  6.765  6.198  0.567  0.000  426.7  288.6  138.1    0.0
 1992 340   156  18.70  28.20  13.80  4.142  4.142  3.792  0.350  0.000  430.8  292.4  138.4    0.0
 1992 341   157  25.20  29.60  18.90  5.895  5.895  5.393  0.501  0.000  436.7  297.8  138.9    0.0
 1992 342   158  23.30  26.40  15.40  5.117  5.117  4.682  0.435  0.000  441.9  302.5  139.4    0.0
 1992 343   159  25.40  27.90  14.80  5.650  5.650  5.170  0.480  0.000  447.5  307.6  139.9    0.0
 1992 344   160  21.00  26.70  16.50  4.668  4.668  4.271  0.397  0.000  452.2  311.9  140.3    0.0
 1992 345   161  22.70  27.30  18.10  5.144  5.144  4.706  0.437  0.000  457.3  316.6  140.7    0.0
 1992 346   162  23.20  26.50  15.70  5.113  5.113  4.678  0.435  0.000  462.4  321.3  141.1    0.0
 1992 347   163  29.50  27.30  13.40  6.446  6.446  5.897  0.548  0.000  468.9  327.2  141.7    0.0
 1992 348   164  30.90  30.20  14.90  7.063  7.063  6.461  0.602  0.000  475.9  333.7  142.3    0.0
 1992 349   165  28.90  28.40  15.70  6.512  6.512  5.954  0.558  0.000  482.4  339.6  142.8    0.0
 1992 350   166  30.30  28.00  10.00  6.499  6.499  5.938  0.561  0.000  488.9  345.5  143.4    0.0
 1992 351   167  24.80  29.80  12.50  5.542  5.542  5.059  0.483  0.000  494.5  350.6  143.9    0.0
 1992 352   168  19.40  27.60  17.70  4.399  4.399  4.011  0.388  0.000  498.9  354.6  144.3    0.0
 1992 353   169  29.70  30.40  14.50  6.788  6.788  6.180  0.607  0.000  505.7  360.8  144.9    0.0
 1992 354   170  18.00  30.80  14.60  4.136  4.136  3.760  0.376  0.000  509.8  364.6  145.3    0.0
 1992 355   171  31.80  33.80  18.10  7.748  7.748  7.029  0.719  0.000  517.6  371.6  146.0    0.0
 1992 356   172  25.50  32.40  15.70  6.017  6.017  5.446  0.570  0.000  523.6  377.0  146.5    0.0
 1992 357   173  11.20  29.40  18.60  2.613  2.613  2.359  0.254  0.000  526.2  379.4  146.8    0.0
 1992 358   174  11.20  27.70  20.80  2.607  2.607  2.347  0.260  0.000  528.8  381.7  147.1    0.0
 1992 359   175  27.80  28.90  17.70  6.410  6.410  5.752  0.658  0.000  535.2  387.5  147.7    0.0
 1992 360   176  22.90  27.40  15.10  5.091  5.091  4.552  0.539  0.000  540.3  392.0  148.3    0.0
 1992 361   177  31.40  27.40  13.20  6.881  6.881  6.129  0.752  0.000  547.2  398.2  149.0    0.0
 1992 362   178  31.00  28.00  12.60  6.813  6.813  6.041  0.772  0.000  554.0  404.2  149.8    0.0
 1992 363   179  30.00  32.00  13.10  6.935  6.935  6.119  0.816  0.000  560.9  410.3  150.6    0.0
 1992 364   180   9.10  25.60  19.70  2.058  2.058  1.806  0.252  0.000  563.0  412.1  150.9    0.0
 1992 365   181   9.10  23.30  19.60  2.003  2.003  1.747  0.256  0.000  565.0  413.9  151.1    0.0
 1992 366   182   9.10  20.20  19.20  1.925  1.925  1.668  0.257  0.000  566.9  415.5  151.4    0.0
 1993 001   183   9.10  21.20  19.60  1.957  1.957  1.684  0.273  0.000  568.9  417.2  151.6    0.0
 1993 002   184   9.10  21.80  19.40  1.970  1.970  1.683  0.287  0.000  570.8  418.9  151.9    0.0
 1993 003   185   9.10  21.90  19.70  1.979  1.979  1.677  0.301  0.000  572.8  420.6  152.2    0.0
 1993 004   186  14.90  28.90  19.80  3.518  3.518  2.958  0.560  0.000  576.3  423.6  152.8    0.0
 1993 005   187  23.60  30.80  21.50  5.764  5.764  4.805  0.959  0.000  582.1  428.4  153.7    0.0
 1993 006   188  29.90  32.00  19.70  7.311  7.311  6.038  1.273  0.000  589.4  434.4  155.0    0.0
 1993 007   189  12.50  27.20  20.30  2.916  2.916  2.384  0.532  0.000  592.3  436.8  155.5    0.0
 1993 008   190  20.20  26.60  20.10  4.680  4.680  3.783  0.897  0.000  597.0  440.6  156.4    0.0
 1993 009   191  30.70  26.90  16.00  6.927  6.927  5.530  1.396  0.000  603.9  446.1  157.8    0.0
 1993 010   192  30.90  31.10  16.00  7.324  7.324  5.771  1.553  0.000  611.3  451.9  159.4    0.0
 1993 011   193  31.30  32.20  17.60  7.609  7.609  5.911  1.698  0.000  618.9  457.8  161.1    0.0
 1993 012   194  30.90  32.70  19.60  7.675  7.135  5.870  1.265  0.000  626.0  463.6  162.4    0.0
 1993 013   195  22.70  33.00  20.70  5.700  5.700  4.360  1.340  0.000  631.7  468.0  163.7    0.0
 1993 014   196  17.40  30.10  22.30  4.285  4.285  3.278  1.007  0.000  636.0  471.3  164.7    0.0
 1993 015   197  26.90  30.80  22.50  6.683  6.683  5.112  1.571  0.000  642.7  476.4  166.3    0.0
