*GROWTH ASPECTS OUTPUT FILE

*DSSAT Cropping System Model Ver. 4.0.2.000               Aug 03, 2016; 15:09:39

*RUN   1        : UYMZ                    
 MODEL          : MZCER040 - Maize           
 EXPERIMENT     : UYMZ0126 MZ    late to create DSS                             
 TREATMENT  1   : UYMZ                    

@YEAR DOY   DAS   DAP   L#SD   GSTD   LAID   LWAD   SWAD   GWAD   RWAD   CWAD   G#AD   GWGD   HIAD   PWAD   P#AD   WSPD   WSGD   NSTD   EWSD   LN%D   SH%D   HIPD   PWDD   PWTD     SLAD   CHTD   CWID   RDPD   RL1D   RL2D   RL3D   RL4D   RL5D   RL6D   RL7D   RL8D   RL9D   RL10   CDAD   LDAD   SDAD   SNW0C   SNW1C
 1987 187     3     0    0.0      0   0.00      0      0      0      0      0      0    0.0  0.000      0      0  0.000  0.000  0.000  0.000   0.00   0.00   0.00      0      0      0.0   0.00   0.00   0.03   0.00   0.00   0.00   0.00   0.00   0.00   0.00   0.00   0.00   0.00      0      0      0       0       0
 1987 188     4     1    0.0      0   0.00      0      0      0      0      0      0    0.0  0.000      0      0  0.000  0.000  0.000  0.000   0.00   0.00   0.00      0      0      0.0   0.00   0.00   0.03   0.00   0.00   0.00   0.00   0.00   0.00   0.00   0.00   0.00   0.00      0      0      0       0       0
 1987 189     5     2    0.0      0   0.00      0      0      0      0      0      0    0.0  0.000      0      0  0.000  0.000  0.000  0.000   0.00   0.00   0.00      0      0      0.0   0.00   0.00   0.04   0.00   0.00   0.00   0.00   0.00   0.00   0.00   0.00   0.00   0.00      0      0      0       0       0
 1987 190     6     3    0.0      0   0.00      0      0      0      0      0      0    0.0  0.000      0      0  0.000  0.000  0.000  0.000   0.00   0.00   0.00      0      0      0.0   0.00   0.00   0.05   0.00   0.00   0.00   0.00   0.00   0.00   0.00   0.00   0.00   0.00      0      0      0       0       0
 1987 191     7     4    0.0      0   0.00      0      0      0      0      0      0    0.0  0.000      0      0  0.000  0.000  0.000  0.000   0.00   0.00   0.00      0      0      0.0   0.00   0.00   0.07   0.00   0.00   0.00   0.00   0.00   0.00   0.00   0.00   0.00   0.00      0      0      0       0       0
 1987 192     8     5    0.0      0   0.00      0      0      0      0      0      0    0.0  0.000      0      0  0.000  0.000  0.000  0.000   0.00   0.00   0.00      0      0      0.0   0.00   0.00   0.08   0.00   0.00   0.00   0.00   0.00   0.00   0.00   0.00   0.00   0.00      0      0      0       0       0
 1987 193     9     6    0.0      0   0.00      0      0      0      0      0      0    0.0  0.000      0      0  0.000  0.000  0.000  0.000   0.00   0.00   0.00      0      0      0.0   0.00   0.00   0.09   0.00   0.00   0.00   0.00   0.00   0.00   0.00   0.00   0.00   0.00      0      0      0       0       0
 1987 194    10     7    0.0      0   0.00      0      0      0      0      0      0    0.0  0.000      0      0  0.000  0.000  0.000  0.000   0.00   0.00   0.00      0      0      0.0   0.00   0.00   0.10   0.00   0.00   0.00   0.00   0.00   0.00   0.00   0.00   0.00   0.00      0      0      0       0       0
 1987 195    11     8    0.0      0   0.00      0      0      0      0      0      0    0.0  0.000      0      0  0.000  0.000  0.000  0.000   0.00   0.00   0.00      0      0      0.0   0.00   0.00   0.11   0.00   0.00   0.00   0.00   0.00   0.00   0.00   0.00   0.00   0.00      0      0      0       0       0
 1987 196    12     9    2.0      1   0.00     14     14      0     14     28      0    0.0  0.000      0      0  0.000  0.000  0.012  0.000   4.40   0.00   0.00      0      0     27.4   0.00   0.00   0.13   0.28   0.09   0.00   0.00   0.00   0.00   0.00   0.00   0.00   0.00      0      0      0       0       0
 1987 197    13    10    2.0      1   0.01     14     14      0     14     28      0    0.0  0.000      0      0  0.000  0.000  0.015  0.000   4.52   0.00   0.00      0      0     44.8   0.00   0.00   0.14   0.28   0.09   0.00   0.00   0.00   0.00   0.00   0.00   0.00   0.00      0      0      0       0       0
 1987 198    14    11    2.0      1   0.01     14     14      0     14     28      0    0.0  0.000      0      0  0.000  0.000  0.000  0.000   4.52   0.00   0.00      0      0     50.2   0.00   0.00   0.14   0.28   0.09   0.00   0.00   0.00   0.00   0.00   0.00   0.00   0.00      0      0      0       0       0
 1987 199    15    12    2.0      1   0.01     14     14      0     14     28      0    0.0  0.000      0      0  0.000  0.000  0.000  0.000   4.51   0.00   0.00      0      0     48.8   0.00   0.00   0.14   0.28   0.10   0.00   0.00   0.00   0.00   0.00   0.00   0.00   0.00      0      0      0       0       0
 1987 200    16    13    2.0      1   0.00     14     14      0     14     28      0    0.0  0.000      0      0  0.000  0.000  0.000  0.000   4.51   0.00   0.00      0      0      3.8   0.00   0.00   0.14   0.28   0.10   0.00   0.00   0.00   0.00   0.00   0.00   0.00   0.00      0      0      0       0       0
 1987 201    17    14    2.0      1   0.00     14     14      0     14     28      0    0.0  0.000      0      0  0.000  0.000  0.000  0.000   4.51   0.00   0.00      0      0      3.9   0.00   0.00   0.14   0.28   0.09   0.00   0.00   0.00   0.00   0.00   0.00   0.00   0.00      0      0      0       0       0
 1987 202    18    15    2.0      1   0.00     14     14      0     14     28      0    0.0  0.000      0      0  0.000  0.000  0.000  0.000   4.51   0.00   0.00      0      0      4.2   0.00   0.00   0.15   0.28   0.09   0.00   0.00   0.00   0.00   0.00   0.00   0.00   0.00      0      0      0       0       0
 1987 203    19    16    2.0      1   0.00     14     14      0     14     28      0    0.0  0.000      0      0  0.000  0.000  0.000  0.000   4.51   0.00   0.00      0      0      6.3   0.00   0.00   0.15   0.27   0.09   0.00   0.00   0.00   0.00   0.00   0.00   0.00   0.00      0      0      0       0       0
 1987 204    20    17    2.0      1   0.00     14     14      0     14     28      0    0.0  0.000      0      0  0.000  0.000  0.000  0.000   4.51   0.00   0.00      0      0     17.7   0.00   0.00   0.15   0.26   0.09   0.00   0.00   0.00   0.00   0.00   0.00   0.00   0.00      0      0      0       0       0
 1987 205    21    18    3.0      1   0.00     14     14      0     14     28      0    0.0  0.000      0      0  0.000  0.000  0.000  0.000   4.51   0.00   0.00      0      0     35.0   0.00   0.00   0.16   0.24   0.08   0.00   0.00   0.00   0.00   0.00   0.00   0.00   0.00      0      0      0       0       0
 1987 206    22    19    3.0      1   0.01     14     14      0     14     28      0    0.0  0.000      0      0  0.000  0.000  0.000  0.162   4.51   0.00   0.00      0      0     65.2   0.00   0.00   0.18   0.23   0.08   0.00   0.00   0.00   0.00   0.00   0.00   0.00   0.00      0      0      0       0       0
 1987 207    23    20    3.0      1   0.01     14     14      0     15     28      0    0.0  0.000      0      0  0.000  0.000  0.000  0.202   4.51   0.00   0.00      0      0     72.0   0.00   0.00   0.18   0.21   0.08   0.00   0.00   0.00   0.00   0.00   0.00   0.00   0.00      0      0      0       0       0
 1987 208    24    21    4.0      1   0.02     14     14      0     15     28      0    0.0  0.000      0      0  0.000  0.000  0.000  0.278   4.51   0.00   0.00      0      0    122.5   0.00   0.00   0.19   0.20   0.08   0.00   0.00   0.00   0.00   0.00   0.00   0.00   0.00      0      0      0       0       0
 1987 209    25    22    4.0      1   0.02     14     14      0     16     28      0    0.0  0.000      0      0  0.000  0.000  0.000  0.197   4.51   0.00   0.00      0      0    151.3   0.00   0.00   0.19   0.19   0.09   0.01   0.00   0.00   0.00   0.00   0.00   0.00   0.00      0      0      0       0       0
 1987 210    26    23    4.0      1   0.03     14     14      0     17     28      0    0.0  0.000      0      0  0.000  0.000  0.000  0.017   4.51   0.00   0.00      0      0    191.4   0.00   0.00   0.20   0.19   0.09   0.01   0.00   0.00   0.00   0.00   0.00   0.00   0.00      0      0      0       0       0
 1987 211    27    24    4.0      1   0.03     14     14      0     18     28      0    0.0  0.000      0      0  0.000  0.000  0.000  0.041   4.37   0.00   0.00      0      0    208.5   0.00   0.00   0.20   0.18   0.10   0.02   0.00   0.00   0.00   0.00   0.00   0.00   0.00      0      0      0       0       0
 1987 212    28    25    4.0      1   0.03     14     14      0     19     28      0    0.0  0.000      0      0  0.000  0.000  0.000  0.047   4.37   0.00   0.00      0      0    202.7   0.00   0.00   0.20   0.17   0.10   0.02   0.00   0.00   0.00   0.00   0.00   0.00   0.00      0      0      0       0       0
 1987 213    29    26    4.0      1   0.03     14     14      0     22     28      0    0.0  0.000      0      0  0.000  0.000  0.000  0.036   4.35   0.00   0.00      0      0    236.9   0.00   0.00   0.21   0.17   0.14   0.04   0.00   0.00   0.00   0.00   0.00   0.00   0.00      0      0      0       0       0
 1987 214    30    27    4.0      1   0.04     15     14      0     26     29      0    0.0  0.000      0      0  0.000  0.000  0.000  0.027   4.23   0.00   0.00      0      0    279.3   0.00   0.00   0.21   0.18   0.17   0.05   0.00   0.00   0.00   0.00   0.00   0.00   0.00      0      0      0       0       0
 1987 215    31    28    4.0      1   0.04     16     14      0     29     30      0    0.0  0.000      0      0  0.000  0.000  0.000  0.010   4.12   0.00   0.00      0      0    253.6   0.00   0.00   0.22   0.18   0.20   0.07   0.00   0.00   0.00   0.00   0.00   0.00   0.00      0      0      0       0       0
 1987 216    32    29    4.0      1   0.04     17     14      0     30     31      0    0.0  0.000      0      0  0.000  0.000  0.000  0.000   4.21   0.00   0.00      0      0    250.6   0.00   0.00   0.22   0.19   0.21   0.08   0.00   0.00   0.00   0.00   0.00   0.00   0.00      0      0      0       0       1
 1987 217    33    30    4.0      1   0.05     19     14      0     30     33      0    0.0  0.000      0      0  0.000  0.000  0.000  0.000   4.11   0.00   0.00      0      0    251.8   0.00   0.00   0.22   0.18   0.20   0.08   0.00   0.00   0.00   0.00   0.00   0.00   0.00      0      0      0       0       1
 1987 218    34    31    4.0      1   0.05     19     14      0     30     33      0    0.0  0.000      0      0  0.000  0.000  0.000  0.000   4.27   0.00   0.00      0      0    252.0   0.00   0.00   0.22   0.17   0.19   0.07   0.00   0.00   0.00   0.00   0.00   0.00   0.00      0      0      0       0       1
 1987 219    35    32    5.0      1   0.05     20     14      0     32     34      0    0.0  0.000      0      0  0.000  0.000  0.000  0.509   4.19   0.00   0.00      0      0    252.4   0.00   0.00   0.22   0.16   0.19   0.08   0.00   0.00   0.00   0.00   0.00   0.00   0.00      0      0      0       0       1
 1987 220    36    33    5.0      1   0.05     21     14      0     33     35      0    0.0  0.000      0      0  0.000  0.000  0.000  0.308   4.11   0.00   0.00      0      0    252.7   0.00   0.00   0.23   0.15   0.20   0.09   0.00   0.00   0.00   0.00   0.00   0.00   0.00      0      0      0       0       1
 1987 221    37    34    5.0      1   0.06     24     14      0     37     38      0    0.0  0.000      0      0  0.000  0.000  0.000  0.113   3.96   0.00   0.00      0      0    252.5   0.00   0.00   0.23   0.15   0.22   0.11   0.00   0.00   0.00   0.00   0.00   0.00   0.00      0      0      0       0       1
 1987 222    38    35    5.0      1   0.07     28     14      0     38     42      0    0.0  0.000      0      0  0.000  0.000  0.000  0.060   3.87   0.00   0.00      0      0    251.4   0.00   0.00   0.24   0.15   0.22   0.11   0.00   0.00   0.00   0.00   0.00   0.00   0.00      0      0      0       0       2
 1987 223    39    36    5.0      1   0.09     34     14      0     41     48      0    0.0  0.000      0      0  0.000  0.000  0.000  0.032   3.71   0.00   0.00      0      0    248.7   0.00   0.00   0.25   0.15   0.24   0.13   0.00   0.00   0.00   0.00   0.00   0.00   0.00      0      0      0       0       2
 1987 224    40    37    5.0      1   0.10     40     14      0     41     54      0    0.0  0.000      0      0  0.000  0.000  0.000  0.036   3.80   0.00   0.00      0      0    245.9   0.00   0.00   0.25   0.15   0.24   0.14   0.00   0.00   0.00   0.00   0.00   0.00   0.00      0      0      0       0       2
 1987 225    41    38    6.0      1   0.11     45     14      0     42     59      0    0.0  0.000      0      0  0.000  0.000  0.000  0.059   3.87   0.00   0.00      0      0    243.3   0.00   0.00   0.26   0.14   0.24   0.14   0.00   0.00   0.00   0.00   0.00   0.00   0.00      0      0      0       0       2
 1987 226    42    39    6.0      1   0.12     48     14      0     47     62      0    0.0  0.000      0      0  0.000  0.000  0.000  0.553   3.98   0.00   0.00      0      0    241.6   0.00   0.00   0.27   0.14   0.26   0.17   0.00   0.00   0.00   0.00   0.00   0.00   0.00      0      0      0       0       2
 1987 227    43    40    6.0      1   0.12     51     14      0     52     65      0    0.0  0.000      0      0  0.000  0.000  0.000  0.580   4.03   0.00   0.00      0      0    240.4   0.00   0.00   0.27   0.13   0.27   0.20   0.00   0.00   0.00   0.00   0.00   0.00   0.00      0      0      0       0       3
 1987 228    44    41    6.0      1   0.12     52     14      0     59     66      0    0.0  0.000      0      0  0.000  0.000  0.000  0.378   4.09   0.00   0.00      0      0    239.7   0.00   0.00   0.28   0.13   0.30   0.26   0.00   0.00   0.00   0.00   0.00   0.00   0.00      0      0      0       0       3
 1987 229    45    42    6.0      1   0.12     52     14      0     60     66      0    0.0  0.000      0      0  0.000  0.000  0.000  0.147   4.09   0.00   0.00      0      0    237.8   0.00   0.00   0.28   0.12   0.29   0.25   0.00   0.00   0.00   0.00   0.00   0.00   0.00      0      0      0       0       3
 1987 230    46    43    6.0      1   0.12     52     14      0     61     66      0    0.0  0.000      0      0  0.000  0.000  0.011  0.080   4.07   0.00   0.00      0      0    237.3   0.00   0.00   0.28   0.12   0.29   0.26   0.00   0.00   0.00   0.00   0.00   0.00   0.00      0      0      0       0       3
 1987 231    47    44    6.0      1   0.12     53     14      0     64     67      0    0.0  0.000      0      0  0.000  0.000  0.011  0.038   4.16   0.00   0.00      0      0    223.5   0.00   0.00   0.28   0.12   0.31   0.29   0.00   0.00   0.00   0.00   0.00   0.00   0.00      0      0      0       0       3
 1987 232    48    45    6.0      1   0.12     53     14      0     66     67      0    0.0  0.000      0      0  0.000  0.000  0.000  0.001   4.12   0.00   0.00      0      0    217.6   0.00   0.00   0.28   0.13   0.32   0.31   0.00   0.00   0.00   0.00   0.00   0.00   0.00      0      0      0       0       3
 1987 233    49    46    6.0      1   0.12     56     14      0     68     70      0    0.0  0.000      0      0  0.000  0.000  0.002  0.000   3.95   0.00   0.00      0      0    217.3   0.00   0.00   0.28   0.13   0.33   0.32   0.00   0.00   0.00   0.00   0.00   0.00   0.00      0      0      0       0       3
 1987 234    50    47    6.0      1   0.13     62     14      0     81     76      0    0.0  0.000      0      0  0.000  0.000  0.005  0.000   3.87   0.00   0.00      0      0    215.1   0.00   0.00   0.28   0.15   0.40   0.44   0.00   0.00   0.00   0.00   0.00   0.00   0.00      0      0      0       0       4
 1987 235    51    48    6.0      1   0.14     68     14      0     94     82      0    0.0  0.000      0      0  0.000  0.000  0.000  0.000   3.85   0.00   0.00      0      0    211.6   0.00   0.00   0.29   0.17   0.48   0.56   0.00   0.00   0.00   0.00   0.00   0.00   0.00      0      0      0       0       4
 1987 236    52    49    6.0      1   0.16     75     14      0    103     89      0    0.0  0.000      0      0  0.000  0.000  0.000  0.000   3.78   0.00   0.00      0      0    210.4   0.00   0.00   0.30   0.19   0.52   0.64   0.00   0.00   0.00   0.00   0.00   0.00   0.00      0      0      0       0       4
 1987 237    53    50    7.0      1   0.19     90     14      0    116    104      0    0.0  0.000      0      0  0.000  0.000  0.000  0.000   3.55   0.00   0.00      0      0    208.0   0.00   0.00   0.31   0.30   0.57   0.73   0.00   0.00   0.00   0.00   0.00   0.00   0.00      0      0      0       0       5
 1987 238    54    51    7.0      1   0.21    101     14      0    135    115      0    0.0  0.000      0      0  0.000  0.000  0.000  0.000   3.70   0.00   0.00      0      0    205.9   0.00   0.00   0.31   0.46   0.66   0.87   0.00   0.00   0.00   0.00   0.00   0.00   0.00      0      0      0       0       6
 1987 239    55    52    7.0      1   0.24    116     14      0    149    130      0    0.0  0.000      0      0  0.000  0.000  0.000  0.000   3.59   0.00   0.00      0      0    203.1   0.00   0.00   0.32   0.57   0.71   0.97   0.01   0.00   0.00   0.00   0.00   0.00   0.00      0      0      0       0       6
 1987 240    56    53    7.0      1   0.26    129     14      0    151    143      0    0.0  0.000      0      0  0.000  0.000  0.000  0.000   3.70   0.00   0.00      0      0    200.9   0.00   0.00   0.32   0.56   0.69   0.93   0.01   0.00   0.00   0.00   0.00   0.00   0.00      0      0      0       0       7
 1987 241    57    54    7.0      1   0.27    134     14      0    153    148      0    0.0  0.000      0      0  0.000  0.000  0.000  0.000   3.91   0.00   0.00      0      0    200.0   0.00   0.00   0.32   0.54   0.67   0.89   0.01   0.00   0.00   0.00   0.00   0.00   0.00      0      0      0       0       8
 1987 242    58    55    7.0      1   0.27    136     14      0    171    150      0    0.0  0.000      0      0  0.000  0.000  0.000  0.354   3.99   0.00   0.00      0      0    195.1   0.00   0.00   0.32   0.63   0.75   0.96   0.01   0.00   0.00   0.00   0.00   0.00   0.00      0      0      0       0       8
 1987 243    59    56    7.0      1   0.24    140     14      0    189    154      0    0.0  0.000      0      0  0.000  0.000  0.000  0.134   3.95   0.00   0.00      0      0    174.7   0.00   0.00   0.33   0.73   0.86   1.06   0.02   0.00   0.00   0.00   0.00   0.00   0.00      0      0      0       0       9
 1987 244    60    57    8.0      1   0.26    147     14      0    202    161      0    0.0  0.000      0      0  0.000  0.000  0.000  0.046   3.76   0.00   0.00      0      0    174.5   0.00   0.00   0.33   0.81   0.94   1.13   0.03   0.00   0.00   0.00   0.00   0.00   0.00      0      0      0       0       9
 1987 245    61    58    8.0      1   0.27    155     14      0    205    169      0    0.0  0.000      0      0  0.000  0.000  0.010  0.000   3.84   0.00   0.00      0      0    174.2   0.00   0.00   0.34   0.83   0.95   1.14   0.03   0.00   0.00   0.00   0.00   0.00   0.00      0      0      0       0      10
 1987 246    62    59    8.0      1   0.29    165     14      0    232    179      0    0.0  0.000      0      0  0.000  0.000  0.000  0.000   3.80   0.00   0.00      0      0    174.0   0.00   0.00   0.34   1.00   1.13   1.31   0.05   0.00   0.00   0.00   0.00   0.00   0.00      0      0      0       0      11
 1987 247    63    60    8.0      1   0.27    170     14      0    254    184      0    0.0  0.000      0      0  0.000  0.000  0.000  0.000   3.89   0.00   0.00      0      0    158.2   0.00   0.00   0.35   1.14   1.27   1.44   0.06   0.00   0.00   0.00   0.00   0.00   0.00      0      0      0       0      13
 1987 248    64    61    8.0      1   0.23    175     14      0    265    189      0    0.0  0.000      0      0  0.000  0.000  0.000  0.000   3.91   0.00   0.00      0      0    134.4   0.00   0.00   0.35   1.21   1.34   1.51   0.07   0.00   0.00   0.00   0.00   0.00   0.00      0      0      0       0      14
 1987 249    65    62    8.0      1   0.21    180     14      0    281    194      0    0.0  0.000      0      0  0.000  0.000  0.000  0.000   3.89   0.00   0.00      0      0    117.8   0.00   0.00   0.35   1.31   1.44   1.61   0.09   0.00   0.00   0.00   0.00   0.00   0.00      0      0      0       0      15
 1987 250    66    63    8.0      1   0.22    189     14      0    297    203      0    0.0  0.000      0      0  0.000  0.000  0.000  0.000   3.81   0.00   0.00      0      0    115.3   0.00   0.00   0.36   1.41   1.54   1.70   0.10   0.00   0.00   0.00   0.00   0.00   0.00      0      0      0       0      17
 1987 251    67    64    8.0      1   0.25    208     14      0    303    222      0    0.0  0.000      0      0  0.000  0.000  0.000  0.000   3.63   0.00   0.00      0      0    119.7   0.00   0.00   0.37   1.45   1.58   1.74   0.11   0.00   0.00   0.00   0.00   0.00   0.00      0      0      0       0      18
 1987 252    68    65    8.0      1   0.29    233     14      0    304    247      0    0.0  0.000      0      0  0.000  0.000  0.000  0.000   3.56   0.00   0.00      0      0    124.0   0.00   0.00   0.38   1.46   1.59   1.75   0.11   0.00   0.00   0.00   0.00   0.00   0.00      0      0      0       0      20
 1987 253    69    66    9.0      1   0.31    245     14      0    324    259      0    0.0  0.000      0      0  0.000  0.000  0.000  0.000   3.75   0.00   0.00      0      0    125.7   0.00   0.00   0.38   1.57   1.71   1.86   0.14   0.00   0.00   0.00   0.00   0.00   0.00      0      0      0       0      21
 1987 254    70    67    9.0      1   0.32    258     14      0    355    272      0    0.0  0.000      0      0  0.000  0.000  0.000  0.000   3.74   0.00   0.00      0      0    123.6   0.00   0.00   0.39   1.76   1.89   2.03   0.18   0.00   0.00   0.00   0.00   0.00   0.00      0      0      0       0      23
 1987 255    71    68    9.0      1   0.31    271     14      0    388    285      0    0.0  0.000      0      0  0.000  0.000  0.000  0.000   3.76   0.00   0.00      0      0    115.8   0.00   0.00   0.40   1.96   2.08   2.22   0.23   0.00   0.00   0.00   0.00   0.00   0.00      0      0      0       0      24
 1987 256    72    69    9.0      1   0.36    300     14      0    417    314      0    0.0  0.000      0      0  0.000  0.000  0.000  0.000   3.54   0.00   0.00      0      0    119.4   0.00   0.00   0.41   2.14   2.26   2.38   0.28   0.00   0.00   0.00   0.00   0.00   0.00      0      0      0       0      26
 1987 257    73    70    9.0      2   0.41    309     14      0    426    323      0    0.0  0.000      0      0  0.000  0.000  0.000  0.000   3.77   0.00   0.00      0      0    133.2   0.00   0.00   0.42   2.19   2.31   2.43   0.30   0.00   0.00   0.00   0.00   0.00   0.00      0      0      0       0      28
 1987 258    74    71    9.0      2   0.44    326     14      0    445    340      0    0.0  0.000      0      0  0.000  0.000  0.002  0.000   3.70   0.00   0.00      0      0    134.5   0.00   0.00   0.43   2.13   2.28   2.40   0.32   0.00   0.00   0.00   0.00   0.00   0.00      0      0      0       0      31
 1987 259    75    72    9.0      2   0.41    330     14      0    464    344      0    0.0  0.000      0      0  0.000  0.000  0.000  0.000   3.77   0.00   0.00      0      0    123.5   0.00   0.00   0.43   2.14   2.32   2.44   0.35   0.00   0.00   0.00   0.00   0.00   0.00      0      0      0       0      33
 1987 260    76    73    9.0      2   0.43    344     14      0    489    358      0    0.0  0.000      0      0  0.000  0.000  0.000  0.096   3.84   0.00   0.00      0      0    124.5   0.00   0.00   0.43   2.20   2.42   2.55   0.40   0.00   0.00   0.00   0.00   0.00   0.00      0      0      0       0      35
 1987 261    77    74   10.0      3   0.45    360     14      0    514    374      0    0.0  0.000      0      0  0.000  0.000  0.022  0.029   3.71   0.00   0.00      0      0    124.1   0.00   0.00   0.44   2.28   2.55   2.69   0.45   0.00   0.00   0.00   0.00   0.00   0.00      0      0      0       0      38
 1987 262    78    75   10.0      3   0.44    369     14      0    545    383      0    0.0  0.000      0      0  0.000  0.000  0.022  0.000   3.66   0.00   0.00      0      0    118.8   0.00   0.00   0.44   2.40   2.72   2.87   0.52   0.00   0.00   0.00   0.00   0.00   0.00      0      0      0       0      40
 1987 263    79    76   10.0      3   0.36    381     14      0    582    395      0    0.0  0.000      0      0  0.000  0.000  0.022  0.000   3.63   0.00   0.00      0      0     95.6   0.00   0.00   0.44   2.56   2.92   3.09   0.61   0.00   0.00   0.00   0.00   0.00   0.00      0      0      0       0      43
 1987 264    80    77   10.0      3   0.36    387     14      0    593    401      0    0.0  0.000      0      0  0.000  0.000  0.022  0.000   3.58   0.00   0.00      0      0     93.4   0.00   0.00   0.45   2.60   2.99   3.15   0.64   0.00   0.00   0.00   0.00   0.00   0.00      0      0      0       0      43
 1987 265    81    78   10.0      3   0.29    395     14      0    611    409      0    0.0  0.000      0      0  0.000  0.000  0.022  0.000   3.63   0.00   0.00      0      0     72.8   0.00   0.00   0.45   2.68   3.08   3.26   0.68   0.00   0.00   0.00   0.00   0.00   0.00      0      0      0       0      46
 1987 266    82    79   10.0      3   0.31    413     14      0    630    427      0    0.0  0.000      0      0  0.000  0.000  0.022  0.000   3.59   0.00   0.00      0      0     75.9   0.00   0.00   0.45   2.76   3.18   3.36   0.73   0.00   0.00   0.00   0.00   0.00   0.00      0      0      0       0      49
 1987 267    83    80   10.0      3   0.35    439     14      0    668    454      0    0.0  0.000      0      0  0.000  0.000  0.022  0.000   3.54   0.00   0.00      0      0     78.7   0.00   0.00   0.46   2.91   3.37   3.56   0.81   0.01   0.00   0.00   0.00   0.00   0.00      0      0      0       0      52
 1987 268    84    81   10.0      3   0.40    480     15      0    697    494      0    0.0  0.000      0      0  0.000  0.000  0.022  0.000   3.51   0.00   0.00      0      0     84.2   0.00   0.00   0.47   3.02   3.50   3.71   0.88   0.01   0.00   0.00   0.00   0.00   0.00      0      0      0       0      55
 1987 269    85    82   11.0      3   0.49    540     16      0    714    556      0    0.0  0.000      0      0  0.000  0.000  0.022  0.000   3.48   0.00   0.00      0      0     90.6   0.00   0.00   0.49   3.08   3.58   3.79   0.92   0.02   0.00   0.00   0.00   0.00   0.00      0      0      0       0      59
 1987 270    86    83   11.0      3   0.54    581     17      0    751    598      0    0.0  0.000      0      0  0.000  0.000  0.022  0.000   3.45   0.00   0.00      0      0     93.9   0.00   0.00   0.50   3.23   3.75   3.98   1.00   0.05   0.00   0.00   0.00   0.00   0.00      0      0      0       0      62
 1987 271    87    84   11.0      3   0.59    613     19      0    811    632      0    0.0  0.000      0      0  0.000  0.000  0.022  0.000   3.43   0.00   0.00      0      0     96.0   0.00   0.00   0.50   3.48   4.00   4.00   1.13   0.09   0.00   0.00   0.00   0.00   0.00      0      0      0       0      66
 1987 272    88    85   11.0      3   0.65    660     21      0    860    681      0    0.0  0.000      0      0  0.000  0.000  0.022  0.000   3.40   0.00   0.00      0      0     98.7   0.00   0.00   0.51   3.69   4.00   4.00   1.24   0.14   0.00   0.00   0.00   0.00   0.00      0      0      0       0      70
 1987 273    89    86   11.0      3   0.72    709     24      0    860    733      0    0.0  0.000      0      0  0.000  0.000  0.022  0.000   3.38   0.00   0.00      0      0    100.9   0.00   0.00   0.52   3.68   4.00   4.00   1.25   0.14   0.00   0.00   0.00   0.00   0.00      0      0      0       0      75
 1987 274    90    87   12.0      3   0.77    752     27      0    940    779      0    0.0  0.000      0      0  0.000  0.000  0.022  0.000   3.36   0.00   0.00      0      0    102.5   0.00   0.00   0.53   3.95   4.00   4.00   1.42   0.23   0.00   0.00   0.00   0.00   0.00      0      0      0       0      79
 1987 275    91    88   12.0      3   0.81    781     30      0   1002    811      0    0.0  0.000      0      0  0.000  0.000  0.022  0.000   3.38   0.00   0.00      0      0    103.4   0.00   0.00   0.54   4.00   4.00   4.00   1.56   0.31   0.00   0.00   0.00   0.00   0.00      0      0      0       0      84
 1987 276    92    89   12.0      3   0.86    821     33      0   1054    854      0    0.0  0.000      0      0  0.000  0.000  0.022  0.000   3.33   0.00   0.00      0      0    104.3   0.00   0.00   0.54   4.00   4.00   4.00   1.68   0.38   0.00   0.00   0.00   0.00   0.00      0      0      0       0      89
 1987 277    93    90   12.0      3   0.94    886     41      0   1136    926      0    0.0  0.000      0      0  0.000  0.000  0.022  0.000   3.31   0.00   0.00      0      0    105.9   0.00   0.00   0.55   4.00   4.00   4.00   1.86   0.50   0.00   0.00   0.00   0.00   0.00      0      0      0       0      94
 1987 278    94    91   12.0      3   1.03    960     51      0   1221   1011      0    0.0  0.000      0      0  0.000  0.000  0.022  0.000   3.28   0.00   0.00      0      0    107.3   0.00   0.00   0.56   4.00   4.00   4.00   2.05   0.64   0.00   0.00   0.00   0.00   0.00      0      0      0       0     100
 1987 279    95    92   12.0      3   1.12   1033     62      0   1267   1095      0    0.0  0.000      0      0  0.000  0.000  0.022  0.000   3.25   0.00   0.00      0      0    108.3   0.00   0.00   0.58   4.00   4.00   4.00   2.15   0.72   0.00   0.00   0.00   0.00   0.00      0      0      0       0     106
 1987 280    96    93   13.0      3   1.21   1107     76      0   1266   1183      0    0.0  0.000      0      0  0.000  0.000  0.022  0.000   3.22   0.00   0.00      0      0    109.0   0.00   0.00   0.59   4.00   4.00   4.00   2.15   0.73   0.00   0.00   0.00   0.00   0.00      0      0      0       0     112
 1987 281    97    94   13.0      3   1.28   1173     90      0   1318   1262      0    0.0  0.000      0      0  0.000  0.000  0.022  0.000   3.20   0.00   0.00      0      0    109.5   0.00   0.00   0.60   4.00   4.00   4.00   2.27   0.84   0.00   0.00   0.00   0.00   0.00      0      0      0       0     118
 1987 282    98    95   13.0      3   1.35   1231    103      0   1433   1334      0    0.0  0.000      0      0  0.000  0.000  0.022  0.000   3.18   0.00   0.00      0      0    109.7   0.00   0.00   0.61   4.00   4.00   4.00   2.52   1.10   0.00   0.00   0.00   0.00   0.00      0      0      0       0     125
 1987 283    99    96   13.0      3   1.48   1344    135      0   1494   1478      0    0.0  0.000      0      0  0.000  0.000  0.022  0.000   3.14   0.00   0.00      0      0    110.2   0.00   0.00   0.62   4.00   4.00   4.00   2.63   1.22   0.01   0.00   0.00   0.00   0.00      0      0      0       0     132
 1987 284   100    97   14.0      3   1.59   1444    167      0   1533   1611      0    0.0  0.000      0      0  0.000  0.000  0.022  0.000   3.10   0.00   0.00      0      0    110.4   0.00   0.00   0.63   3.95   4.00   4.00   2.72   1.32   0.02   0.00   0.00   0.00   0.00      0      0      0       0     139
 1987 285   101    98   14.0      3   1.68   1522    195      0   1648   1717      0    0.0  0.000      0      0  0.000  0.000  0.022  0.001   3.08   0.00   0.00      0      0    110.4   0.00   0.00   0.64   3.85   4.00   4.00   2.96   1.59   0.05   0.00   0.00   0.00   0.00      0      0      0       0     147
 1987 286   102    99   14.0      3   1.72   1559    210      0   1766   1769      0    0.0  0.000      0      0  0.000  0.000  0.022  0.186   3.07   0.00   0.00      0      0    110.2   0.00   0.00   0.65   3.79   4.00   4.00   3.24   1.88   0.09   0.00   0.00   0.00   0.00      0      0      0       0     155
 1987 287   103   100   14.0      3   1.76   1599    226      0   1820   1825      0    0.0  0.000      0      0  0.000  0.000  0.022  0.060   3.06   0.00   0.00      0      0    109.8   0.00   0.00   0.66   3.73   4.00   4.00   3.35   2.01   0.11   0.00   0.00   0.00   0.00      0      0      0       0     164
 1987 288   104   101   14.0      3   1.81   1647    247      0   1841   1894      0    0.0  0.000      0      0  0.000  0.000  0.022  0.228   3.03   0.00   0.00      0      0    109.6   0.00   0.00   0.66   3.67   4.00   4.00   3.37   2.06   0.12   0.00   0.00   0.00   0.00      0      0      0       0     173
 1987 289   105   102   15.0      3   1.86   1704    273      0   1934   1977      0    0.0  0.000      0      0  0.000  0.000  0.022  0.108   3.01   0.00   0.00      0      0    109.4   0.00   0.00   0.67   3.62   4.00   4.00   3.59   2.29   0.17   0.00   0.00   0.00   0.00      0      0      0       0     183
 1987 290   106   103   15.0      3   1.92   1762    302      0   2096   2064      0    0.0  0.000      0      0  0.000  0.000  0.022  0.043   2.99   0.00   0.00      0      0    109.2   0.00   0.00   0.68   3.59   4.00   4.00   4.00   2.72   0.26   0.00   0.00   0.00   0.00      0      0      0       0     192
 1987 291   107   104   15.0      3   1.99   1822    333      0   2269   2155      0    0.0  0.000      0      0  0.000  0.000  0.022  0.003   2.97   0.00   0.00      0      0    109.0   0.00   0.00   0.69   3.56   4.00   4.00   4.00   3.19   0.38   0.00   0.00   0.00   0.00      0      0      0       0     203
 1987 292   108   105   15.0      3   2.06   1889    372      0   2386   2261      0    0.0  0.000      0      0  0.000  0.000  0.022  0.003   2.95   0.00   0.00      0      0    108.8   0.00   0.00   0.69   3.53   4.00   4.00   4.00   3.52   0.47   0.00   0.00   0.00   0.00      0      0      0       0     214
 1987 293   109   106   15.0      3   2.14   1968    420      0   2538   2388      0    0.0  0.000      0      0  0.000  0.000  0.022  0.003   2.93   0.00   0.00      0      0    108.5   0.00   0.00   0.70   3.51   4.00   4.00   4.00   3.96   0.60   0.00   0.00   0.00   0.00      0      0      0       0     226
 1987 294   110   107   16.0      3   2.24   2065    486      0   2649   2551      0    0.0  0.000      0      0  0.000  0.000  0.022  0.002   2.90   0.00   0.00      0      0    108.3   0.00   0.00   0.72   3.50   4.00   4.00   4.00   4.00   0.72   0.00   0.00   0.00   0.00      0      0      0       0     239
 1987 295   111   108   16.0      3   2.33   2156    552      0   2739   2707      0    0.0  0.000      0      0  0.000  0.000  0.022  0.001   2.87   0.00   0.00      0      0    108.0   0.00   0.00   0.73   3.49   4.00   4.00   4.00   4.00   0.84   0.00   0.00   0.00   0.00      0      0      0       0     252
 1987 296   112   109   16.0      3   2.45   2280    652      0   2825   2931      0    0.0  0.000      0      0  0.000  0.000  0.022  0.000   2.84   0.00   0.00      0      0    107.6   0.00   0.00   0.74   3.48   4.00   4.00   4.00   4.00   0.96   0.00   0.00   0.00   0.00      0      0      0       0     266
 1987 297   113   110   16.0      3   2.58   2403    762      0   2872   3165      0    0.0  0.000      0      0  0.000  0.000  0.022  0.000   2.81   0.00   0.00      0      0    107.2   0.00   0.00   0.76   3.48   4.00   4.00   4.00   4.00   1.06   0.00   0.00   0.00   0.00      0      0      0       0     280
 1987 298   114   111   17.0      3   2.67   2497    853      0   2868   3350      0    0.0  0.000      0      0  0.000  0.000  0.022  0.000   2.77   0.00   0.00      0      0    106.9   0.00   0.00   0.77   3.46   3.99   4.00   4.00   4.00   1.07   0.00   0.00   0.00   0.00      0      0      0       0     294
 1987 299   115   112   17.0      3   2.75   2586    922      0   2862   3508      0    0.0  0.000      0      0  0.000  0.000  0.022  0.000   2.74   0.00   0.00      0      0    106.5   0.00   0.00   0.78   3.44   3.97   3.99   4.00   4.00   1.08   0.00   0.00   0.00   0.00      0      0      0       0     308
 1987 300   116   113   17.0      3   2.82   2655   1001      0   2856   3656      0    0.0  0.000      0      0  0.000  0.000  0.022  0.000   2.71   0.00   0.00      0      0    106.1   0.00   0.00   0.80   3.43   3.95   3.98   4.00   4.00   1.10   0.00   0.00   0.00   0.00      0      0      0       0     323
 1987 301   117   114   18.0      3   2.93   2774   1168      0   2870   3942      0    0.0  0.000      0      0  0.000  0.000  0.022  0.000   2.69   0.00   0.00      0      0    105.7   0.00   0.00   0.81   3.42   3.94   3.99   4.00   4.00   1.16   0.00   0.00   0.00   0.00      0      0      0       0     337
 1987 302   118   115   18.0      3   3.04   2884   1349      0   2972   4233      0    0.0  0.000      0      0  0.000  0.000  0.022  0.000   2.62   0.00   0.00      0      0    105.3   0.00   0.00   0.82   3.43   3.95   4.00   4.00   4.00   1.47   0.00   0.00   0.00   0.00      0      0      0       0     351
 1987 303   119   116   18.0      3   3.15   3002   1573      0   3043   4575      0    0.0  0.000      0      0  0.000  0.000  0.022  0.000   2.52   0.00   0.00      0      0    104.8   0.00   0.00   0.84   3.44   3.96   4.00   4.00   4.00   1.72   0.00   0.00   0.00   0.00      0      0      0       0     366
 1987 304   120   117   19.0      3   3.25   3110   1803      0   3121   4913      0    0.0  0.000      0      0  0.000  0.000  0.022  0.000   2.42   0.00   0.00      0      0    104.4   0.00   0.00   0.85   3.46   3.97   4.00   4.00   4.00   2.02   0.00   0.00   0.00   0.00      0      0      0       0     381
 1987 305   121   118   19.0      3   3.31   3188   1981      0   3120   5169      0    0.0  0.000      0      0  0.000  0.000  0.022  0.000   2.37   0.00   0.00      0      0    104.0   0.00   0.00   0.87   3.45   3.96   3.99   4.00   4.00   2.06   0.00   0.00   0.00   0.00      0      0      0       0     397
 1987 306   122   119   19.0      3   3.37   3252   2141      0   3117   5393      0    0.0  0.000      0      0  0.000  0.000  0.023  0.000   2.33   0.00   0.00      0      0    103.6   0.00   0.00   0.88   3.44   3.95   3.97   4.00   4.00   2.10   0.00   0.00   0.00   0.00      0      0      0       0     413
 1987 307   123   120   20.0      3   3.42   3316   2308      0   3114   5624      0    0.0  0.000      0      0  0.000  0.000  0.024  0.000   2.27   0.00   0.00      0      0    103.2   0.00   0.00   0.90   3.44   3.94   3.96   3.99   4.00   2.14   0.00   0.00   0.00   0.00      0      0      0       0     428
 1987 308   124   121   20.0      3   3.45   3354   2414      0   3106   5769      0    0.0  0.000      0      0  0.000  0.000  0.025  0.000   2.26   0.00   0.00      0      0    102.8   0.00   0.00   0.91   3.43   3.93   3.95   3.97   3.99   2.16   0.00   0.00   0.00   0.00      0      0      0       0     444
 1987 309   125   122   20.0      3   3.47   3392   2524      0   3099   5916      0    0.0  0.000      0      0  0.000  0.000  0.027  0.000   2.23   0.00   0.00      0      0    102.4   0.00   0.00   0.92   3.42   3.92   3.94   3.96   3.98   2.18   0.01   0.00   0.00   0.00      0      0      0       0     459
 1987 310   126   123   21.0      3   3.51   3443   2675      0   3095   6118      0    0.0  0.000      0      0  0.000  0.000  0.027  0.000   2.18   0.00   0.00      0      0    102.0   0.00   0.00   0.93   3.42   3.91   3.94   3.94   3.97   2.20   0.05   0.00   0.00   0.00      0      0      0       0     475
 1987 311   127   124   21.0      3   3.55   3494   2828      0   3262   6322      0    0.0  0.000      0      0  0.000  0.000  0.028  0.013   2.14   0.00   0.00      0      0    101.6   0.00   0.00   0.94   3.67   4.00   4.00   4.00   4.00   2.54   0.82   0.00   0.00   0.00      0      0      0       0     490
 1987 312   128   125   21.0      3   3.58   3543   2971      0   3382   6514      0    0.0  0.000      0      0  0.000  0.000  0.029  0.012   2.11   0.00   0.00      0      0    101.2   0.00   0.00   0.95   3.86   4.00   4.00   4.00   4.00   2.68   1.54   0.00   0.00   0.00      0      0      0       0     507
 1987 313   129   126   21.0      3   3.60   3573   3063      0   3588   6636      0    0.0  0.000      0      0  0.000  0.000  0.030  0.003   2.10   0.00   0.00      0      0    100.7   0.00   0.00   0.96   4.00   4.00   4.00   4.00   4.00   2.79   2.84   0.00   0.00   0.00      0      0      0       0     524
 1987 314   130   127   21.0      3   3.62   3614   3184      0   3769   6798      0    0.0  0.000      0      0  0.000  0.000  0.031  0.000   2.08   0.00   0.00      0      0    100.3   0.00   0.00   0.96   4.00   4.00   4.00   4.00   4.00   2.89   4.00   0.00   0.00   0.00      0      0      0       0     541
 1987 315   131   128   21.0      3   3.67   3672   3354      0   3911   7025      0    0.0  0.000      0      0  0.000  0.000  0.031  0.000   2.03   0.00   0.00      0      0     99.9   0.00   0.00   0.97   4.00   4.00   4.00   4.00   4.00   2.96   4.00   0.00   0.00   0.00      0      0      0       0     560
 1987 316   132   129   21.0      3   3.71   3737   3545      0   3977   7282      0    0.0  0.000      0      0  0.000  0.000  0.031  0.000   1.98   0.00   0.00      0      0     99.4   0.00   0.00   0.99   4.00   4.00   4.00   4.00   4.00   2.99   4.00   0.00   0.00   0.00      0      0      0       0     580
 1987 317   133   130   21.0      3   3.77   3811   3761      0   4051   7572      0    0.0  0.000      0      0  0.000  0.000  0.033  0.000   1.92   0.00   0.00      0      0     98.9   0.00   0.00   1.00   4.00   4.00   4.00   4.00   4.00   3.02   4.00   0.00   0.00   0.00      0      0      0       0     600
 1987 318   134   131   21.0      3   3.83   3888   3986      0   4112   7874      0    0.0  0.000      0      0  0.000  0.000  0.035  0.000   1.86   0.00   0.00      0      0     98.5   0.00   0.00   1.01   4.00   4.00   4.00   4.00   4.00   3.05   4.00   0.00   0.00   0.00      0      0      0       0     620
 1987 319   135   132   21.0      4   3.81   3847   3393      0   4205   8090      0    0.0  0.000    849      0  0.000  0.000  0.037  0.000   2.03   0.00   0.10      0    849     99.0   0.00   0.00   1.03   4.00   4.00   4.00   4.00   4.00   3.10   4.00   0.00   0.00   0.00      0      0      0       0     641
 1987 320   136   133   21.0      4   3.79   3804   3440      0   4391   8210      0    0.0  0.000    966      0  0.000  0.000  0.040  0.240   2.04   0.00   0.12      0    966     99.7   0.00   0.00   1.04   4.00   4.00   4.00   4.00   4.00   3.20   4.00   0.00   0.00   0.00      0      0      0       0     662
 1987 321   137   134   21.0      4   3.78   3759   3511      0   4540   8413      0    0.0  0.000   1143      0  0.000  0.000  0.027  0.079   2.04   0.00   0.14      0   1143    100.5   0.00   0.00   1.05   4.00   4.00   4.00   4.00   4.00   3.29   4.00   0.00   0.00   0.00      0      0      0       0     684
 1987 322   138   135   21.0      4   3.77   3710   3581      0   4527   8610      0    0.0  0.000   1318      0  0.000  0.000  0.024  0.042   2.04   0.00   0.15      0   1318    101.5   0.00   0.00   1.06   4.00   4.00   4.00   3.99   3.99   3.28   4.00   0.00   0.00   0.00      0      0      0       0     706
 1987 323   139   136   21.0      4   3.76   3660   3647      0   4530   8789      0    0.0  0.000   1482      0  0.000  0.000  0.023  0.141   2.04   0.00   0.17      0   1482    102.6   0.00   0.00   1.07   3.83   3.83   3.83   3.78   3.78   3.11   3.85   0.00   0.00   0.00      0      0      0       0     729
 1987 324   140   137   21.0      4   3.75   3608   3701      0   4520   8928      0    0.0  0.000   1619      0  0.000  0.000  0.022  0.094   2.04   0.00   0.18      0   1619    103.8   0.00   0.00   1.08   3.75   3.75   3.75   3.68   3.68   3.03   3.76   0.00   0.00   0.00      0      0      0       0     752
 1987 325   141   138   21.0      4   3.74   3554   3738      0   4735   9001      0    0.0  0.000   1709      0  0.000  0.000  0.022  0.262   2.05   0.00   0.19      0   1709    105.1   0.00   0.00   1.09   4.00   4.00   4.00   3.91   3.88   3.19   4.00   0.10   0.00   0.00      0      0      0       0     774
 1987 326   142   139   21.0      4   3.73   3498   3780      0   4938   9092      0    0.0  0.000   1814      0  0.000  0.000  0.022  0.079   2.05   0.00   0.20      0   1814    106.5   0.00   0.00   1.09   4.00   4.00   4.00   4.00   4.00   3.41   4.00   0.25   0.00   0.00      0      0      0       0     798
 1987 327   143   140   21.0      4   3.72   3441   3828      0   4947   9205      0    0.0  0.000   1936      0  0.000  0.000  0.022  0.044   2.05   0.00   0.21      0   1936    108.0   0.00   0.00   1.10   4.00   4.00   4.00   4.00   4.00   3.42   4.00   0.28   0.00   0.00      0      0      0       0     822
 1987 328   144   141   21.0      4   3.71   3382   3898      0   4943   9390      0    0.0  0.000   2110      0  0.000  0.000  0.022  0.020   2.04   0.00   0.22      0   2110    109.6   0.00   0.00   1.11   4.00   4.00   4.00   4.00   4.00   3.43   3.99   0.30   0.00   0.00      0      0      0       0     847
 1987 329   145   142   21.0      4   3.70   3320   3973      0   4965   9590      0    0.0  0.000   2297      0  0.000  0.000  0.022  0.013   2.03   0.00   0.24      0   2297    111.3   0.00   0.00   1.12   4.00   4.00   4.00   4.00   4.00   3.45   4.00   0.36   0.00   0.00      0      0      0       0     872
 1987 330   146   143   21.0      4   3.69   3256   4039      0   4989   9759      0    0.0  0.000   2464      0  0.000  0.000  0.022  0.007   1.99   0.00   0.25      0   2464    113.2   0.00   0.00   1.12   4.00   4.00   4.00   4.00   4.00   3.48   4.00   0.44   0.00   0.00      0      0      0       0     897
 1987 331   147   144   21.0      4   3.68   3190   4106      0   5107   9926      0    0.0  0.000   2630      0  0.000  0.000  0.022  0.000   1.95   0.00   0.26      0   2630    115.2   0.00   0.00   1.13   4.00   4.00   4.00   4.00   4.00   3.60   4.00   0.67   0.00   0.00      0      0      0       0     922
 1987 332   148   145   21.0      4   3.67   3121   4186      0   5238  10136      0    0.0  0.000   2829      0  0.000  0.000  0.022  0.000   1.91   0.00   0.28      0   2829    117.4   0.00   0.00   1.14   4.00   4.00   4.00   4.00   4.00   3.73   4.00   0.95   0.00   0.00      0      0      0       0     947
 1987 333   149   146   21.0      5   3.67   3121   4186    266   5296  10402   3553    7.5  0.026   3096      7  0.000  0.000  0.000  0.000   1.86   8.61   0.30      0   3096    117.4   0.00   0.00   1.15   4.00   4.00   4.00   4.00   4.00   3.79   4.00   1.12   0.00   0.00      0      0      0       0     973
 1987 334   150   147   21.0      5   3.67   3121   4186    533   5352  10669   3553   15.0  0.050   3362      7  0.000  0.000  0.000  0.000   1.81  15.85   0.32      0   3362    117.4   0.00   0.00   1.16   4.00   4.00   4.00   4.00   4.00   3.84   4.00   1.29   0.00   0.00      0      0      0       0    1000
 1987 335   151   148   21.0      5   3.67   3121   4186    799   5408  10935   3553   22.5  0.073   3629      7  0.000  0.000  0.000  0.000   1.76  22.03   0.33      0   3629    117.4   0.00   0.00   1.18   4.00   4.00   4.00   4.00   4.00   3.90   4.00   1.47   0.00   0.00      0      0      0       0    1027
 1987 336   152   149   21.0      5   3.67   3121   4186   1066   5404  11202   3553   30.0  0.095   3895      7  0.000  0.000  0.000  0.000   1.72  27.36   0.35      0   3895    117.4   0.00   0.00   1.19   4.00   4.00   4.00   4.00   4.00   3.90   3.99   1.52   0.00   0.00      0      0      0       0    1054
 1987 337   153   150   21.0      5   3.67   3121   4116   1323   5377  11389   3553   37.2  0.116   4152      7  0.000  0.000  0.000  0.000   1.69  31.86   0.36      0   4152    117.4   0.00   0.00   1.19   4.00   4.00   4.00   4.00   4.00   3.90   3.99   1.52   0.00   0.00      0      0      0       0    1081
 1987 338   154   151   21.0      5   3.67   3121   4155   1474   5369  11579   3553   41.5  0.127   4304      7  0.000  0.000  0.000  0.000   1.66  34.26   0.37      0   4304    117.4   0.00   0.00   1.20   4.00   4.00   4.00   4.00   4.00   3.89   3.99   1.55   0.00   0.00      0      0      0       0    1108
 1987 339   155   152   21.0      5   3.67   3121   4186   1657   5449  11793   3553   46.6  0.141   4487      7  0.000  0.000  0.000  0.000   1.61  36.94   0.38      0   4487    117.4   0.00   0.00   1.20   4.00   4.00   4.00   4.00   4.00   3.97   4.00   1.73   0.00   0.00      0      0      0       0    1134
 1987 340   156   153   21.0      5   3.67   3121   4186   1874   5516  12010   3553   52.7  0.156   4703      7  0.000  0.000  0.000  0.152   1.57  39.84   0.39      0   4703    117.4   0.00   0.00   1.21   4.00   4.00   4.00   4.00   4.00   4.00   4.00   1.85   0.00   0.00      0      0      0       0    1162
 1987 341   157   154   21.0      5   3.66   3121   4186   2081   5492  12217   3553   58.6  0.170   4910      7  0.000  0.000  0.007  0.074   1.54  42.38   0.40      0   4910    117.3   0.00   0.00   1.22   3.99   3.99   3.99   3.98   3.98   3.98   3.98   1.85   0.00   0.00      0      0      0       0    1189
 1987 342   158   155   21.0      5   3.66   3121   4186   2282   5541  12418   3553   64.2  0.184   5112      7  0.000  0.000  0.012  0.061   1.50  44.65   0.41      0   5112    117.2   0.00   0.00   1.23   4.00   4.00   4.00   4.00   4.00   4.00   4.00   1.91   0.00   0.00      0      0      0       0    1217
 1987 343   159   156   21.0      5   3.65   3121   4186   2476   5608  12612   3553   69.7  0.196   5306      7  0.000  0.000  0.018  0.028   1.47  46.67   0.42      0   5306    116.9   0.00   0.00   1.24   4.00   4.00   4.00   4.00   4.00   4.00   4.00   1.96   0.00   0.00      0      0      0       0    1244
 1987 344   160   157   21.0      5   3.64   3121   4186   2734   5669  12870   3553   77.0  0.212   5563      7  0.000  0.000  0.022  0.002   1.42  49.14   0.43      0   5563    116.6   0.00   0.00   1.25   4.00   4.00   4.00   4.00   4.00   4.00   4.00   1.99   0.00   0.00      0      0      0       0    1272
 1987 345   161   158   21.0      5   3.63   3121   4186   2987   5675  13123   3553   84.1  0.228   5816      7  0.000  0.000  0.030  0.000   1.38  51.35   0.44      0   5816    116.1   0.00   0.00   1.25   4.00   4.00   4.00   4.00   4.00   4.00   4.00   2.00   0.00   0.00      0      0      0       0    1301
 1987 346   162   159   21.0      5   3.61   3121   4186   3165   5749  13301   3553   89.1  0.238   5995      7  0.000  0.000  0.041  0.000   1.35  52.80   0.45      0   5995    115.6   0.00   0.00   1.25   4.00   4.00   4.00   4.00   4.00   4.00   4.00   2.03   0.00   0.00      0      0      0       0    1329
 1987 347   163   160   21.0      5   3.59   3121   4186   3347   5825  13483   3553   94.2  0.248   6177      7  0.000  0.000  0.045  0.000   1.32  54.19   0.46      0   6177    114.9   0.00   0.00   1.25   4.00   4.00   4.00   4.00   4.00   4.00   4.00   2.06   0.00   0.00      0      0      0       0    1358
 1987 348   164   161   21.0      5   3.56   3121   4186   3567   5821  13703   3553  100.4  0.260   6396      7  0.000  0.000  0.049  0.000   1.28  55.77   0.47      0   6396    114.2   0.00   0.00   1.25   4.00   4.00   4.00   4.00   4.00   4.00   4.00   2.06   0.00   0.00      0      0      0       0    1387
 1987 349   165   162   21.0      5   3.54   3121   4186   3834   5837  13970   3553  107.9  0.274   6663      7  0.000  0.000  0.054  0.000   1.24  57.54   0.48      0   6663    113.4   0.00   0.00   1.25   4.00   4.00   4.00   4.00   4.00   4.00   4.00   2.06   0.00   0.00      0      0      0       0    1416
 1987 350   166   163   21.0      5   3.51   3121   4132   4084   5808  14166   3553  114.9  0.288   6913      7  0.000  0.000  0.065  0.000   1.21  59.07   0.49      0   6913    112.5   0.00   0.00   1.25   4.00   4.00   4.00   4.00   4.00   4.00   4.00   2.06   0.00   0.00      0      0      0       0    1445
 1987 351   167   164   21.0      5   3.48   3121   4186   4287   5861  14423   3553  120.7  0.297   7117      7  0.000  0.000  0.077  0.000   1.16  60.24   0.49      0   7117    111.4   0.00   0.00   1.25   4.00   4.00   4.00   4.00   4.00   4.00   4.00   2.09   0.00   0.00      0      0      0       0    1474
 1987 352   168   165   21.0      5   3.44   3121   4186   4465   5900  14601   3553  125.7  0.306   7294      7  0.000  0.000  0.082  0.134   1.13  61.21   0.50      0   7294    110.3   0.00   0.00   1.25   4.00   4.00   4.00   4.00   4.00   4.00   4.00   2.10   0.00   0.00      0      0      0       0    1504
 1987 353   169   166   21.0      5   3.40   3121   4186   4648   5956  14784   3553  130.8  0.314   7477      7  0.000  0.000  0.092  0.032   1.11  62.16   0.51      0   7477    109.0   0.00   0.00   1.25   4.00   4.00   4.00   4.00   4.00   4.00   4.00   2.12   0.00   0.00      0      0      0       0    1533
 1987 354   170   167   21.0      5   3.36   3121   4186   4858   5984  14994   3553  136.7  0.324   7688      7  0.000  0.000  0.097  0.003   1.08  63.20   0.51      0   7688    107.7   0.00   0.00   1.25   4.00   4.00   4.00   4.00   4.00   4.00   4.00   2.14   0.00   0.00      0      0      0       0    1563
 1987 355   171   168   21.0      5   3.32   3121   4186   5026   6053  15162   3553  141.5  0.331   7856      7  0.000  0.000  0.105  0.000   1.06  63.98   0.52      0   7856    106.3   0.00   0.00   1.25   4.00   4.00   4.00   4.00   4.00   4.00   4.00   2.16   0.00   0.00      0      0      0       0    1593
 1987 356   172   169   21.0      5   3.27   3121   4186   5198   6083  15335   3553  146.3  0.339   8028      7  0.000  0.000  0.109  0.000   1.04  64.76   0.52      0   8028    104.8   0.00   0.00   1.25   4.00   4.00   4.00   4.00   4.00   4.00   4.00   2.18   0.00   0.00      0      0      0       0    1623
 1987 357   173   170   21.0      5   3.22   3121   4186   5391   6117  15527   3553  151.7  0.347   8221      7  0.000  0.000  0.114  0.000   1.01  65.58   0.53      0   8221    103.3   0.00   0.00   1.25   4.00   4.00   4.00   4.00   4.00   4.00   4.00   2.19   0.00   0.00      0      0      0       0    1654
 1987 358   174   171   21.0      5   3.18   3121   4186   5605   6170  15741   3553  157.7  0.356   8434      7  0.000  0.000  0.121  0.000   0.98  66.45   0.54      0   8434    101.8   0.00   0.00   1.25   4.00   4.00   4.00   4.00   4.00   4.00   4.00   2.21   0.00   0.00      0      0      0       0    1684
 1987 359   175   172   21.0      5   3.13   3121   4135   5822   6139  15908   3553  163.9  0.366   8652      7  0.000  0.000  0.129  0.000   0.96  67.30   0.54      0   8652    100.1   0.00   0.00   1.25   4.00   4.00   4.00   4.00   4.00   4.00   4.00   2.21   0.00   0.00      0      0      0       0    1715
 1987 360   176   173   21.0      5   3.07   3121   4116   6089   6108  16155   3553  171.4  0.377   8918      7  0.000  0.000  0.137  0.000   0.93  68.28   0.55      0   8918     98.4   0.00   0.00   1.25   4.00   4.00   4.00   4.00   4.00   4.00   4.00   2.21   0.00   0.00      0      0      0       0    1746
 1987 361   177   174   21.0      5   3.02   3121   4172   6355   6106  16478   3553  178.9  0.386   9185      7  0.000  0.000  0.145  0.000   0.88  69.20   0.56      0   9185     96.6   0.00   0.00   1.25   4.00   4.00   4.00   4.00   4.00   4.00   4.00   2.21   0.00   0.00      0      0      0       0    1776
 1987 362   178   175   21.0      5   2.96   3121   4186   6622   6085  16758   3553  186.4  0.395   9451      7  0.000  0.000  0.155  0.000   0.85  70.06   0.56      0   9451     94.8   0.00   0.00   1.25   4.00   4.00   4.00   3.99   3.99   3.99   3.99   2.21   0.00   0.00      0      0      0       0    1807
 1987 363   179   176   21.0      5   2.89   3121   4080   6873   6055  16903   3553  193.4  0.407   9702      7  0.000  0.000  0.174  0.180   0.83  70.84   0.57      0   9702     92.7   0.00   0.00   1.25   4.00   4.00   4.00   3.99   3.99   3.99   3.99   2.21   0.00   0.00      0      0      0       0    1837
 1987 364   180   177   21.0      5   2.83   3121   4039   7140   6025  17129   3553  200.9  0.417   9969      7  0.000  0.000  0.186  0.192   0.80  71.62   0.58      0   9969     90.5   0.00   0.00   1.25   4.00   4.00   4.00   3.99   3.99   3.99   3.99   2.21   0.00   0.00      0      0      0       0    1867
 1987 365   181   178   21.0      5   2.76   3121   4094   7406   6022  17451   3553  208.4  0.424  10235      7  0.000  0.000  0.192  0.268   0.76  72.36   0.59      0  10235     88.4   0.00   0.00   1.25   4.00   4.00   4.00   4.00   4.00   4.00   3.99   2.21   0.00   0.00      0      0      0       0    1898
 1988 001   182   179   21.0      5   2.69   3121   4186   7673   6038  17809   3553  215.9  0.431  10502      7  0.000  0.000  0.207  0.133   0.72  73.06   0.59      0  10502     86.1   0.00   0.00   1.25   4.00   4.00   4.00   4.00   4.00   4.00   4.00   2.21   0.00   0.00      0      0      0       0    1928
 1988 002   183   180   21.0      5   2.59   3121   4186   7939   6050  18075   3553  223.4  0.439  10768      7  0.000  0.000  0.256  0.037   0.70  73.73   0.60      0  10768     83.1   0.00   0.00   1.25   4.00   4.00   4.00   4.00   4.00   4.00   4.00   2.22   0.00   0.00      0      0      0       0    1958
 1988 003   184   181   21.0      5   2.46   3121   4186   8206   6047  18342   3553  230.9  0.447  11035      7  0.000  0.000  0.298  0.005   0.68  74.36   0.60      0  11035     78.8   0.00   0.00   1.25   4.00   4.00   4.00   4.00   4.00   4.00   4.00   2.22   0.00   0.00      0      0      0       0    1988
 1988 004   185   182   21.0      5   2.30   3121   4186   8472   6048  18608   3553  238.4  0.455  11301      7  0.000  0.000  0.325  0.000   0.66  74.96   0.61      0  11301     73.8   0.00   0.00   1.25   4.00   4.00   4.00   4.00   4.00   4.00   4.00   2.22   0.00   0.00      0      0      0       0    2018
 1988 005   186   183   21.0      5   2.17   3121   4124   8739   6018  18813   3553  245.9  0.465  11568      7  0.000  0.000  0.351  0.000   0.65  75.54   0.61      0  11568     69.5   0.00   0.00   1.25   4.00   4.00   4.00   4.00   4.00   4.00   4.00   2.22   0.00   0.00      0      0      0       0    2049
 1988 006   187   184   21.0      5   2.09   3121   4186   8893   6035  19029   3553  250.3  0.467  11723      7  0.000  0.000  0.387  0.000   0.63  75.86   0.62      0  11723     66.8   0.00   0.00   1.25   4.00   4.00   4.00   4.00   4.00   4.00   4.00   2.22   0.00   0.00      0      0      0       0    2079
 1988 007   188   185   21.0      5   1.98   3121   4186   9081   6042  19217   3553  255.6  0.473  11910      7  0.000  0.000  0.388  0.056   0.62  76.24   0.62      0  11910     63.5   0.00   0.00   1.25   4.00   4.00   4.00   4.00   4.00   4.00   4.00   2.23   0.00   0.00      0      0      0       0    2109
 1988 008   189   186   21.0      5   1.85   3121   4186   9329   6022  19465   3553  262.6  0.479  12158      7  0.000  0.000  0.410  0.013   0.60  76.73   0.62      0  12158     59.3   0.00   0.00   1.25   4.00   4.00   4.00   3.99   3.99   3.99   3.99   2.22   0.00   0.00      0      0      0       0    2139
 1988 009   190   187   21.0      5   1.85   3121   4186   9329   6022  19465   3553  262.6  0.479  12158      7  0.000  0.000  0.410  0.013   0.60  76.73   0.62      0  12158     59.3   0.00   0.00   1.25   4.00   4.00   4.00   3.99   3.99   3.98   3.98   2.21   0.00   0.00      0      0      0       0    2139
 1988 010   191   188   21.0      5   1.85   3121   4186   9329   6022  19465   3553  262.6  0.479  12158      7  0.000  0.000  0.410  0.013   0.60  76.73   0.62      0  12158     59.3   0.00   0.00   1.25   4.00   4.00   4.00   3.98   3.98   3.97   3.96   2.21   0.00   0.00      0      0      0       0    2139
 1988 011   192   189   21.0      5   1.85   3121   4186   9329   6022  19465   3553  262.6  0.479  12158      7  0.000  0.000  0.410  0.013   0.60  76.73   0.62      0  12158     59.3   0.00   0.00   1.25   3.99   4.00   4.00   3.97   3.96   3.95   3.94   2.20   0.00   0.00      0      0      0       0    2139

*DSSAT Cropping System Model Ver. 4.0.2.000               Aug 03, 2016; 15:09:39

*RUN   2        : UYMZ                    
 MODEL          : MZCER040 - Maize           
 EXPERIMENT     : UYMZ0126 MZ    late to create DSS                             
 TREATMENT  1   : UYMZ                    

@YEAR DOY   DAS   DAP   L#SD   GSTD   LAID   LWAD   SWAD   GWAD   RWAD   CWAD   G#AD   GWGD   HIAD   PWAD   P#AD   WSPD   WSGD   NSTD   EWSD   LN%D   SH%D   HIPD   PWDD   PWTD     SLAD   CHTD   CWID   RDPD   RL1D   RL2D   RL3D   RL4D   RL5D   RL6D   RL7D   RL8D   RL9D   RL10   CDAD   LDAD   SDAD   SNW0C   SNW1C
 1988 187     3     0    0.0      0   0.00      0      0      0      0      0      0    0.0  0.000      0      0  0.000  0.000  0.000  0.000   0.00   0.00   0.00      0      0      0.0   0.00   0.00   0.03   0.00   0.00   0.00   0.00   0.00   0.00   0.00   0.00   0.00   0.00      0      0      0       0       0
 1988 188     4     1    0.0      0   0.00      0      0      0      0      0      0    0.0  0.000      0      0  0.000  0.000  0.000  0.000   0.00   0.00   0.00      0      0      0.0   0.00   0.00   0.03   0.00   0.00   0.00   0.00   0.00   0.00   0.00   0.00   0.00   0.00      0      0      0       0       0
 1988 189     5     2    0.0      0   0.00      0      0      0      0      0      0    0.0  0.000      0      0  0.000  0.000  0.000  0.000   0.00   0.00   0.00      0      0      0.0   0.00   0.00   0.03   0.00   0.00   0.00   0.00   0.00   0.00   0.00   0.00   0.00   0.00      0      0      0       0       0
 1988 190     6     3    0.0      0   0.00      0      0      0      0      0      0    0.0  0.000      0      0  0.000  0.000  0.000  0.000   0.00   0.00   0.00      0      0      0.0   0.00   0.00   0.03   0.00   0.00   0.00   0.00   0.00   0.00   0.00   0.00   0.00   0.00      0      0      0       0       0
 1988 191     7     4    0.0      0   0.00      0      0      0      0      0      0    0.0  0.000      0      0  0.000  0.000  0.000  0.000   0.00   0.00   0.00      0      0      0.0   0.00   0.00   0.03   0.00   0.00   0.00   0.00   0.00   0.00   0.00   0.00   0.00   0.00      0      0      0       0       0
 1988 192     8     5    0.0      0   0.00      0      0      0      0      0      0    0.0  0.000      0      0  0.000  0.000  0.000  0.000   0.00   0.00   0.00      0      0      0.0   0.00   0.00   0.03   0.00   0.00   0.00   0.00   0.00   0.00   0.00   0.00   0.00   0.00      0      0      0       0       0
 1988 193     9     6    0.0      0   0.00      0      0      0      0      0      0    0.0  0.000      0      0  0.000  0.000  0.000  0.000   0.00   0.00   0.00      0      0      0.0   0.00   0.00   0.03   0.00   0.00   0.00   0.00   0.00   0.00   0.00   0.00   0.00   0.00      0      0      0       0       0
 1988 194    10     7    0.0      0   0.00      0      0      0      0      0      0    0.0  0.000      0      0  0.000  0.000  0.000  0.000   0.00   0.00   0.00      0      0      0.0   0.00   0.00   0.03   0.00   0.00   0.00   0.00   0.00   0.00   0.00   0.00   0.00   0.00      0      0      0       0       0
 1988 195    11     8    0.0      0   0.00      0      0      0      0      0      0    0.0  0.000      0      0  0.000  0.000  0.000  0.000   0.00   0.00   0.00      0      0      0.0   0.00   0.00   0.03   0.00   0.00   0.00   0.00   0.00   0.00   0.00   0.00   0.00   0.00      0      0      0       0       0
 1988 196    12     9    0.0      0   0.00      0      0      0      0      0      0    0.0  0.000      0      0  0.000  0.000  0.000  0.000   0.00   0.00   0.00      0      0      0.0   0.00   0.00   0.03   0.00   0.00   0.00   0.00   0.00   0.00   0.00   0.00   0.00   0.00      0      0      0       0       0
 1988 197    13    10    0.0      0   0.00      0      0      0      0      0      0    0.0  0.000      0      0  0.000  0.000  0.000  0.000   0.00   0.00   0.00      0      0      0.0   0.00   0.00   0.04   0.00   0.00   0.00   0.00   0.00   0.00   0.00   0.00   0.00   0.00      0      0      0       0       0
 1988 198    14    11    0.0      0   0.00      0      0      0      0      0      0    0.0  0.000      0      0  0.000  0.000  0.000  0.000   0.00   0.00   0.00      0      0      0.0   0.00   0.00   0.04   0.00   0.00   0.00   0.00   0.00   0.00   0.00   0.00   0.00   0.00      0      0      0       0       0
 1988 199    15    12    0.0      0   0.00      0      0      0      0      0      0    0.0  0.000      0      0  0.000  0.000  0.000  0.000   0.00   0.00   0.00      0      0      0.0   0.00   0.00   0.06   0.00   0.00   0.00   0.00   0.00   0.00   0.00   0.00   0.00   0.00      0      0      0       0       0
 1988 200    16    13    0.0      0   0.00      0      0      0      0      0      0    0.0  0.000      0      0  0.000  0.000  0.000  0.000   0.00   0.00   0.00      0      0      0.0   0.00   0.00   0.07   0.00   0.00   0.00   0.00   0.00   0.00   0.00   0.00   0.00   0.00      0      0      0       0       0
 1988 201    17    14    0.0      0   0.00      0      0      0      0      0      0    0.0  0.000      0      0  0.000  0.000  0.000  0.000   0.00   0.00   0.00      0      0      0.0   0.00   0.00   0.08   0.00   0.00   0.00   0.00   0.00   0.00   0.00   0.00   0.00   0.00      0      0      0       0       0
 1988 202    18    15    0.0      0   0.00      0      0      0      0      0      0    0.0  0.000      0      0  0.000  0.000  0.000  0.000   0.00   0.00   0.00      0      0      0.0   0.00   0.00   0.09   0.00   0.00   0.00   0.00   0.00   0.00   0.00   0.00   0.00   0.00      0      0      0       0       0
 1988 203    19    16    0.0      0   0.00      0      0      0      0      0      0    0.0  0.000      0      0  0.000  0.000  0.000  0.000   0.00   0.00   0.00      0      0      0.0   0.00   0.00   0.09   0.00   0.00   0.00   0.00   0.00   0.00   0.00   0.00   0.00   0.00      0      0      0       0       0
 1988 204    20    17    0.0      0   0.00      0      0      0      0      0      0    0.0  0.000      0      0  0.000  0.000  0.000  0.000   0.00   0.00   0.00      0      0      0.0   0.00   0.00   0.09   0.00   0.00   0.00   0.00   0.00   0.00   0.00   0.00   0.00   0.00      0      0      0       0       0
 1988 205    21    18    0.0      0   0.00      0      0      0      0      0      0    0.0  0.000      0      0  0.000  0.000  0.000  0.000   0.00   0.00   0.00      0      0      0.0   0.00   0.00   0.09   0.00   0.00   0.00   0.00   0.00   0.00   0.00   0.00   0.00   0.00      0      0      0       0       0
 1988 206    22    19    0.0      0   0.00      0      0      0      0      0      0    0.0  0.000      0      0  0.000  0.000  0.000  0.000   0.00   0.00   0.00      0      0      0.0   0.00   0.00   0.09   0.00   0.00   0.00   0.00   0.00   0.00   0.00   0.00   0.00   0.00      0      0      0       0       0
 1988 207    23    20    0.0      0   0.00      0      0      0      0      0      0    0.0  0.000      0      0  0.000  0.000  0.000  0.000   0.00   0.00   0.00      0      0      0.0   0.00   0.00   0.10   0.00   0.00   0.00   0.00   0.00   0.00   0.00   0.00   0.00   0.00      0      0      0       0       0
 1988 208    24    21    0.0      0   0.00      0      0      0      0      0      0    0.0  0.000      0      0  0.000  0.000  0.000  0.000   0.00   0.00   0.00      0      0      0.0   0.00   0.00   0.11   0.00   0.00   0.00   0.00   0.00   0.00   0.00   0.00   0.00   0.00      0      0      0       0       0
 1988 209    25    22    1.0      1   0.00     14     14      0     14     28      0    0.0  0.000      0      0  0.000  0.000  0.012  0.000   4.40   0.00   0.00      0      0      5.8   0.00   0.00   0.12   0.28   0.09   0.00   0.00   0.00   0.00   0.00   0.00   0.00   0.00      0      0      0       0       0
 1988 210    26    23    1.0      1   0.00     14     14      0     14     28      0    0.0  0.000      0      0  0.000  0.000  0.019  0.000   4.56   0.00   0.00      0      0      9.3   0.00   0.00   0.12   0.28   0.09   0.00   0.00   0.00   0.00   0.00   0.00   0.00   0.00      0      0      0       0       0
 1988 211    27    24    2.0      1   0.00     14     14      0     14     28      0    0.0  0.000      0      0  0.000  0.000  0.000  0.000   4.56   0.00   0.00      0      0     24.8   0.00   0.00   0.13   0.28   0.09   0.00   0.00   0.00   0.00   0.00   0.00   0.00   0.00      0      0      0       0       0
 1988 212    28    25    2.0      1   0.01     14     14      0     14     28      0    0.0  0.000      0      0  0.000  0.000  0.000  0.000   4.56   0.00   0.00      0      0     50.6   0.00   0.00   0.14   0.28   0.09   0.00   0.00   0.00   0.00   0.00   0.00   0.00   0.00      0      0      0       0       0
 1988 213    29    26    2.0      1   0.01     14     14      0     15     28      0    0.0  0.000      0      0  0.000  0.000  0.000  0.000   4.56   0.00   0.00      0      0     67.2   0.00   0.00   0.15   0.28   0.10   0.00   0.00   0.00   0.00   0.00   0.00   0.00   0.00      0      0      0       0       0
 1988 214    30    27    2.0      1   0.01     14     14      0     15     28      0    0.0  0.000      0      0  0.000  0.000  0.000  0.000   4.56   0.00   0.00      0      0     73.5   0.00   0.00   0.16   0.26   0.09   0.00   0.00   0.00   0.00   0.00   0.00   0.00   0.00      0      0      0       0       0
 1988 215    31    28    3.0      1   0.01     14     14      0     15     28      0    0.0  0.000      0      0  0.000  0.000  0.000  0.000   4.56   0.00   0.00      0      0     76.9   0.00   0.00   0.16   0.24   0.09   0.00   0.00   0.00   0.00   0.00   0.00   0.00   0.00      0      0      0       0       0
 1988 216    32    29    3.0      1   0.01     14     14      0     15     28      0    0.0  0.000      0      0  0.000  0.000  0.000  0.469   4.56   0.00   0.00      0      0     77.2   0.00   0.00   0.16   0.23   0.08   0.00   0.00   0.00   0.00   0.00   0.00   0.00   0.00      0      0      0       0       0
 1988 217    33    30    3.0      1   0.01     14     14      0     15     28      0    0.0  0.000      0      0  0.000  0.000  0.000  0.416   4.56   0.00   0.00      0      0     82.0   0.00   0.00   0.16   0.21   0.08   0.00   0.00   0.00   0.00   0.00   0.00   0.00   0.00      0      0      0       0       0
 1988 218    34    31    3.0      1   0.01     14     14      0     16     28      0    0.0  0.000      0      0  0.000  0.000  0.000  0.198   4.44   0.00   0.00      0      0     89.8   0.00   0.00   0.17   0.20   0.09   0.00   0.00   0.00   0.00   0.00   0.00   0.00   0.00      0      0      0       0       0
 1988 219    35    32    3.0      1   0.01     14     14      0     17     28      0    0.0  0.000      0      0  0.000  0.000  0.000  0.005   4.43   0.00   0.00      0      0    100.0   0.00   0.00   0.17   0.19   0.11   0.01   0.00   0.00   0.00   0.00   0.00   0.00   0.00      0      0      0       0       0
 1988 220    36    33    3.0      1   0.02     14     14      0     18     28      0    0.0  0.000      0      0  0.000  0.000  0.000  0.007   4.41   0.00   0.00      0      0    113.8   0.00   0.00   0.18   0.19   0.11   0.01   0.00   0.00   0.00   0.00   0.00   0.00   0.00      0      0      0       0       0
 1988 221    37    34    3.0      1   0.02     14     14      0     19     28      0    0.0  0.000      0      0  0.000  0.000  0.000  0.005   4.40   0.00   0.00      0      0    125.2   0.00   0.00   0.18   0.19   0.12   0.01   0.00   0.00   0.00   0.00   0.00   0.00   0.00      0      0      0       0       0
 1988 222    38    35    3.0      1   0.02     14     14      0     19     28      0    0.0  0.000      0      0  0.000  0.000  0.000  0.000   4.40   0.00   0.00      0      0    126.3   0.00   0.00   0.18   0.19   0.12   0.01   0.00   0.00   0.00   0.00   0.00   0.00   0.00      0      0      0       0       0
 1988 223    39    36    3.0      1   0.01     14     14      0     20     28      0    0.0  0.000      0      0  0.000  0.000  0.000  0.000   4.40   0.00   0.00      0      0    105.5   0.00   0.00   0.18   0.19   0.13   0.02   0.00   0.00   0.00   0.00   0.00   0.00   0.00      0      0      0       0       1
 1988 224    40    37    3.0      1   0.02     14     14      0     21     28      0    0.0  0.000      0      0  0.000  0.000  0.000  0.000   4.39   0.00   0.00      0      0    110.1   0.00   0.00   0.19   0.19   0.15   0.02   0.00   0.00   0.00   0.00   0.00   0.00   0.00      0      0      0       0       1
 1988 225    41    38    4.0      1   0.02     14     14      0     23     28      0    0.0  0.000      0      0  0.000  0.000  0.000  0.000   4.37   0.00   0.00      0      0    146.3   0.00   0.00   0.19   0.20   0.17   0.03   0.00   0.00   0.00   0.00   0.00   0.00   0.00      0      0      0       0       1
 1988 226    42    39    4.0      1   0.03     14     14      0     24     28      0    0.0  0.000      0      0  0.000  0.000  0.000  0.000   4.37   0.00   0.00      0      0    188.2   0.00   0.00   0.20   0.20   0.17   0.04   0.00   0.00   0.00   0.00   0.00   0.00   0.00      0      0      0       0       1
 1988 227    43    40    4.0      1   0.04     14     14      0     25     28      0    0.0  0.000      0      0  0.000  0.000  0.000  0.000   4.37   0.00   0.00      0      0    284.4   0.00   0.00   0.21   0.20   0.18   0.04   0.00   0.00   0.00   0.00   0.00   0.00   0.00      0      0      0       0       1
 1988 228    44    41    4.0      1   0.05     16     14      0     27     30      0    0.0  0.000      0      0  0.000  0.000  0.000  0.000   3.98   0.00   0.00      0      0    308.7   0.00   0.00   0.22   0.21   0.19   0.05   0.00   0.00   0.00   0.00   0.00   0.00   0.00      0      0      0       0       1
 1988 229    45    42    4.0      1   0.06     19     14      0     31     33      0    0.0  0.000      0      0  0.000  0.000  0.000  0.000   3.97   0.00   0.00      0      0    301.7   0.00   0.00   0.22   0.22   0.23   0.08   0.00   0.00   0.00   0.00   0.00   0.00   0.00      0      0      0       0       1
 1988 230    46    43    5.0      1   0.06     21     14      0     35     35      0    0.0  0.000      0      0  0.000  0.000  0.000  0.000   4.00   0.00   0.00      0      0    281.1   0.00   0.00   0.22   0.24   0.26   0.11   0.00   0.00   0.00   0.00   0.00   0.00   0.00      0      0      0       0       1
 1988 231    47    44    5.0      1   0.07     27     14      0     40     41      0    0.0  0.000      0      0  0.000  0.000  0.000  0.000   3.68   0.00   0.00      0      0    274.3   0.00   0.00   0.23   0.26   0.30   0.15   0.00   0.00   0.00   0.00   0.00   0.00   0.00      0      0      0       0       1
 1988 232    48    45    5.0      1   0.10     36     14      0     41     50      0    0.0  0.000      0      0  0.000  0.000  0.000  0.000   3.44   0.00   0.00      0      0    264.3   0.00   0.00   0.25   0.26   0.30   0.16   0.00   0.00   0.00   0.00   0.00   0.00   0.00      0      0      0       0       2
 1988 233    49    46    5.0      1   0.11     43     14      0     48     57      0    0.0  0.000      0      0  0.000  0.000  0.000  0.000   3.74   0.00   0.00      0      0    258.5   0.00   0.00   0.25   0.27   0.34   0.20   0.00   0.00   0.00   0.00   0.00   0.00   0.00      0      0      0       0       2
 1988 234    50    47    5.0      1   0.12     49     14      0     61     63      0    0.0  0.000      0      0  0.000  0.000  0.000  0.000   3.82   0.00   0.00      0      0    253.8   0.00   0.00   0.26   0.29   0.41   0.31   0.00   0.00   0.00   0.00   0.00   0.00   0.00      0      0      0       0       2
 1988 235    51    48    6.0      1   0.14     55     14      0     76     69      0    0.0  0.000      0      0  0.000  0.000  0.000  0.042   3.80   0.00   0.00      0      0    247.5   0.00   0.00   0.27   0.32   0.50   0.43   0.00   0.00   0.00   0.00   0.00   0.00   0.00      0      0      0       0       2
 1988 236    52    49    6.0      1   0.17     72     14      0     86     86      0    0.0  0.000      0      0  0.000  0.000  0.000  0.000   3.34   0.00   0.00      0      0    237.6   0.00   0.00   0.28   0.34   0.55   0.51   0.00   0.00   0.00   0.00   0.00   0.00   0.00      0      0      0       0       3
 1988 237    53    50    6.0      1   0.20     84     14      0     97     98      0    0.0  0.000      0      0  0.000  0.000  0.000  0.000   3.61   0.00   0.00      0      0    231.6   0.00   0.00   0.29   0.46   0.60   0.59   0.00   0.00   0.00   0.00   0.00   0.00   0.00      0      0      0       0       3
 1988 238    54    51    6.0      1   0.20     90     14      0    116    104      0    0.0  0.000      0      0  0.000  0.000  0.000  0.000   3.90   0.00   0.00      0      0    226.4   0.00   0.00   0.30   0.63   0.68   0.73   0.00   0.00   0.00   0.00   0.00   0.00   0.00      0      0      0       0       4
 1988 239    55    52    6.0      1   0.12     91     14      0    123    105      0    0.0  0.000      0      0  0.000  0.000  0.000  0.000   4.09   0.00   0.00      0      0    136.4   0.00   0.00   0.30   0.69   0.71   0.77   0.00   0.00   0.00   0.00   0.00   0.00   0.00      0      0      0       0       4
 1988 240    56    53    6.0      1   0.05     93     14      0    128    107      0    0.0  0.000      0      0  0.000  0.000  0.000  0.000   4.02   0.00   0.00      0      0     49.5   0.00   0.00   0.30   0.74   0.73   0.81   0.00   0.00   0.00   0.00   0.00   0.00   0.00      0      0      0       0       4
 1988 241    57    54    7.0      1   0.03     95     14      0    128    109      0    0.0  0.000      0      0  0.000  0.000  0.003  0.000   3.94   0.00   0.00      0      0     33.9   0.00   0.00   0.30   0.74   0.73   0.81   0.00   0.00   0.00   0.00   0.00   0.00   0.00      0      0      0       0       4
 1988 242    58    55    7.0      1   0.06    108     14      0    129    122      0    0.0  0.000      0      0  0.000  0.000  0.010  0.000   3.51   0.00   0.00      0      0     52.5   0.00   0.00   0.31   0.75   0.73   0.81   0.00   0.00   0.00   0.00   0.00   0.00   0.00      0      0      0       0       4
 1988 243    59    56    7.0      1   0.08    118     14      0    131    132      0    0.0  0.000      0      0  0.000  0.000  0.019  0.000   3.77   0.00   0.00      0      0     63.4   0.00   0.00   0.31   0.77   0.74   0.83   0.00   0.00   0.00   0.00   0.00   0.00   0.00      0      0      0       0       5
 1988 244    60    57    7.0      1   0.09    129     14      0    137    143      0    0.0  0.000      0      0  0.000  0.000  0.000  0.000   3.76   0.00   0.00      0      0     72.4   0.00   0.00   0.32   0.82   0.76   0.87   0.00   0.00   0.00   0.00   0.00   0.00   0.00      0      0      0       0       5
 1988 245    61    58    7.0      1   0.09    132     14      0    141    146      0    0.0  0.000      0      0  0.000  0.000  0.000  0.000   3.96   0.00   0.00      0      0     69.8   0.00   0.00   0.32   0.86   0.78   0.90   0.00   0.00   0.00   0.00   0.00   0.00   0.00      0      0      0       0       6
 1988 246    62    59    7.0      1   0.05    134     14      0    144    148      0    0.0  0.000      0      0  0.000  0.000  0.000  0.000   4.02   0.00   0.00      0      0     35.1   0.00   0.00   0.32   0.88   0.79   0.92   0.00   0.00   0.00   0.00   0.00   0.00   0.00      0      0      0       0       7
 1988 247    63    60    7.0      1   0.03    137     14      0    144    151      0    0.0  0.000      0      0  0.000  0.000  0.000  0.000   3.93   0.00   0.00      0      0     24.2   0.00   0.00   0.32   0.89   0.79   0.93   0.00   0.00   0.00   0.00   0.00   0.00   0.00      0      0      0       0       7
[...]
 1992 319   135   132   22.0      3   3.64   4269   3556      0   5266   7824      0    0.0  0.000      0      0  0.000  0.000  0.036  0.000   1.95   0.00   0.00      0      0     85.2   0.00   0.00   0.98   4.00   4.00   4.00   4.00   4.00   2.48   1.56   0.00   0.00   0.00      0      0      0       0     790
 1992 320   136   133   22.0      3   3.69   4341   3758      0   5324   8099      0    0.0  0.000      0      0  0.000  0.000  0.039  0.000   1.89   0.00   0.00      0      0     85.0   0.00   0.00   1.00   4.00   4.00   4.00   4.00   4.00   2.55   1.79   0.00   0.00   0.00      0      0      0       0     816
 1992 321   137   134   22.0      3   3.71   4383   3877      0   5494   8260      0    0.0  0.000      0      0  0.000  0.000  0.043  0.004   1.86   0.00   0.00      0      0     84.6   0.00   0.00   1.01   4.00   4.00   4.00   4.00   4.00   2.72   2.25   0.00   0.00   0.00      0      0      0       0     843
 1992 322   138   135   22.0      3   3.72   4417   3975      0   5671   8392      0    0.0  0.000      0      0  0.000  0.000  0.047  0.000   1.84   0.00   0.00      0      0     84.2   0.00   0.00   1.01   4.00   4.00   4.00   4.00   4.00   2.91   2.61   0.00   0.00   0.00      0      0      0       0     871
 1992 323   139   136   22.0      3   3.73   4457   4087      0   5842   8544      0    0.0  0.000      0      0  0.000  0.000  0.048  0.000   1.82   0.00   0.00      0      0     83.7   0.00   0.00   1.02   4.00   4.00   4.00   4.00   4.00   3.11   2.86   0.00   0.00   0.00      0      0      0       0     899
 1992 324   140   137   22.0      3   3.77   4518   4258      0   5979   8776      0    0.0  0.000      0      0  0.000  0.000  0.049  0.000   1.78   0.00   0.00      0      0     83.4   0.00   0.00   1.03   4.00   4.00   4.00   4.00   4.00   3.28   2.95   0.00   0.00   0.00      0      0      0       0     928
 1992 325   141   138   22.0      3   3.81   4591   4462      0   6023   9054      0    0.0  0.000      0      0  0.000  0.000  0.049  0.000   1.73   0.00   0.00      0      0     83.0   0.00   0.00   1.04   4.00   4.00   4.00   4.00   4.00   3.35   2.98   0.00   0.00   0.00      0      0      0       0     958
 1992 326   142   139   22.0      4   3.79   4547   3761      0   6000   9162      0    0.0  0.000    855      0  0.000  0.000  0.052  0.000   1.89   0.00   0.09      0    855     83.3   0.00   0.00   1.05   4.00   4.00   4.00   3.99   3.99   3.34   2.97   0.00   0.00   0.00      0      0      0       0     988
 1992 327   143   140   22.0      4   3.76   4500   3796      0   6153   9240      0    0.0  0.000    943      0  0.000  0.000  0.055  0.000   1.90   0.00   0.10      0    943     83.5   0.00   0.00   1.06   4.00   4.00   4.00   4.00   4.00   3.52   3.09   0.00   0.00   0.00      0      0      0       0    1018
 1992 328   144   141   22.0      4   3.74   4453   3828      0   6281   9304      0    0.0  0.000   1023      0  0.000  0.000  0.039  0.000   1.91   0.00   0.11      0   1023     84.0   0.00   0.00   1.06   4.00   4.00   4.00   4.00   4.00   3.68   3.19   0.00   0.00   0.00      0      0      0       0    1049
 1992 329   145   142   22.0      4   3.72   4403   3887      0   6379   9461      0    0.0  0.000   1171      0  0.000  0.000  0.036  0.000   1.92   0.00   0.12      0   1171     84.6   0.00   0.00   1.07   4.00   4.00   4.00   4.00   4.00   3.81   3.27   0.00   0.00   0.00      0      0      0       0    1080
 1992 330   146   143   22.0      4   3.71   4351   3953      0   6445   9639      0    0.0  0.000   1335      0  0.000  0.000  0.034  0.000   1.92   0.00   0.14      0   1335     85.2   0.00   0.00   1.09   4.00   4.00   4.00   4.00   4.00   3.90   3.34   0.00   0.00   0.00      0      0      0       0    1112
 1992 331   147   144   22.0      4   3.69   4296   4022      0   6478   9825      0    0.0  0.000   1507      0  0.000  0.000  0.032  0.000   1.92   0.00   0.15      0   1507     86.0   0.00   0.00   1.09   4.00   4.00   4.00   4.00   4.00   3.95   3.37   0.03   0.00   0.00      0      0      0       0    1144
 1992 332   148   145   22.0      4   3.68   4238   4091      0   6619  10008      0    0.0  0.000   1679      0  0.000  0.000  0.030  0.000   1.92   0.00   0.17      0   1679     86.8   0.00   0.00   1.10   4.00   4.00   4.00   4.00   4.00   4.00   3.48   0.17   0.00   0.00      0      0      0       0    1177
 1992 333   149   146   22.0      4   3.67   4177   4163      0   6665  10200      0    0.0  0.000   1860      0  0.000  0.000  0.028  0.000   1.92   0.00   0.18      0   1860     87.8   0.00   0.00   1.11   4.00   4.00   4.00   4.00   4.00   4.00   3.52   0.25   0.00   0.00      0      0      0       0    1210
 1992 334   150   147   22.0      4   3.66   4113   4251      0   6671  10446      0    0.0  0.000   2081      0  0.000  0.000  0.026  0.000   1.92   0.00   0.20      0   2081     88.9   0.00   0.00   1.12   4.00   4.00   4.00   4.00   4.00   4.00   3.53   0.29   0.00   0.00      0      0      0       0    1243
 1992 335   151   148   22.0      4   3.65   4046   4340      0   6697  10690      0    0.0  0.000   2303      0  0.000  0.000  0.023  0.012   1.92   0.00   0.22      0   2303     90.1   0.00   0.00   1.13   4.00   4.00   4.00   4.00   4.00   4.00   3.56   0.38   0.00   0.00      0      0      0       0    1277
 1992 336   152   149   22.0      4   3.64   3976   4404      0   6842  10843      0    0.0  0.000   2463      0  0.000  0.000  0.022  0.000   1.92   0.00   0.23      0   2463     91.4   0.00   0.00   1.14   4.00   4.00   4.00   4.00   4.00   4.00   3.66   0.63   0.00   0.00      0      0      0       0    1310
 1992 337   153   150   22.0      4   3.63   3905   4456      0   7014  10952      0    0.0  0.000   2592      0  0.000  0.000  0.022  0.000   1.93   0.00   0.24      0   2592     92.8   0.00   0.00   1.15   4.00   4.00   4.00   4.00   4.00   4.00   3.79   0.91   0.00   0.00      0      0      0       0    1344
 1992 338   154   151   22.0      4   3.62   3831   4517      0   7128  11093      0    0.0  0.000   2745      0  0.000  0.000  0.022  0.000   1.93   0.00   0.25      0   2745     94.4   0.00   0.00   1.15   4.00   4.00   4.00   4.00   4.00   4.00   3.88   1.11   0.00   0.00      0      0      0       0    1379
 1992 339   155   152   22.0      4   3.61   3754   4595      0   7255  11287      0    0.0  0.000   2939      0  0.000  0.000  0.022  0.000   1.93   0.00   0.26      0   2939     96.1   0.00   0.00   1.16   4.00   4.00   4.00   4.00   4.00   4.00   3.97   1.31   0.00   0.00      0      0      0       0    1415
 1992 340   156   153   22.0      4   3.60   3674   4670      0   7269  11472      0    0.0  0.000   3128      0  0.000  0.000  0.022  0.000   1.93   0.00   0.27      0   3128     97.9   0.00   0.00   1.17   4.00   4.00   4.00   4.00   4.00   4.00   3.99   1.37   0.00   0.00      0      0      0       0    1451
 1992 341   157   154   22.0      5   3.60   3674   4670    284   7288  11756   3783    7.5  0.024   3412      7  0.000  0.000  0.000  0.000   1.87   8.32   0.29      0   3412     97.9   0.00   0.00   1.18   4.00   4.00   4.00   4.00   4.00   4.00   4.00   1.42   0.00   0.00      0      0      0       0    1488
 1992 342   158   155   22.0      5   3.60   3674   4670    531   7307  12003   3783   14.0  0.044   3659      7  0.000  0.000  0.000  0.000   1.82  14.50   0.30      0   3659     97.9   0.00   0.00   1.19   4.00   4.00   4.00   4.00   4.00   4.00   4.00   1.47   0.00   0.00      0      0      0       0    1524
 1992 343   159   156   22.0      5   3.60   3674   4670    788   7334  12260   3783   20.8  0.064   3916      7  0.000  0.000  0.000  0.000   1.77  20.12   0.32      0   3916     97.9   0.00   0.00   1.20   4.00   4.00   4.00   4.00   4.00   4.00   4.00   1.51   0.00   0.00      0      0      0       0    1561
 1992 344   160   157   22.0      5   3.60   3674   4670   1051   7336  12523   3783   27.8  0.084   4179      7  0.000  0.000  0.000  0.000   1.72  25.14   0.33      0   4179     97.9   0.00   0.00   1.21   4.00   4.00   4.00   4.00   4.00   4.00   4.00   1.52   0.00   0.00      0      0      0       0    1597
 1992 345   161   158   22.0      5   3.60   3674   4670   1334   7343  12807   3783   35.3  0.104   4463      7  0.000  0.000  0.000  0.000   1.67  29.90   0.35      0   4463     97.9   0.00   0.00   1.22   4.00   4.00   4.00   4.00   4.00   4.00   4.00   1.53   0.00   0.00      0      0      0       0    1634
 1992 346   162   159   22.0      5   3.60   3674   4670   1586   7359  13058   3783   41.9  0.121   4714      7  0.000  0.000  0.002  0.000   1.62  33.64   0.36      0   4714     97.9   0.00   0.00   1.23   4.00   4.00   4.00   4.00   4.00   4.00   4.00   1.54   0.00   0.00      0      0      0       0    1671
 1992 347   163   160   22.0      5   3.59   3674   4670   1820   7410  13292   3783   48.1  0.137   4948      7  0.000  0.000  0.009  0.000   1.58  36.78   0.37      0   4948     97.7   0.00   0.00   1.24   4.00   4.00   4.00   4.00   4.00   4.00   4.00   1.56   0.00   0.00      0      0      0       0    1707
 1992 348   164   161   22.0      5   3.58   3674   4670   2104   7455  13576   3783   55.6  0.155   5232      7  0.000  0.000  0.015  0.000   1.52  40.21   0.39      0   5232     97.6   0.00   0.00   1.25   4.00   4.00   4.00   4.00   4.00   4.00   4.00   1.59   0.00   0.00      0      0      0       0    1744
 1992 349   165   162   22.0      5   3.57   3674   4670   2377   7491  13849   3783   62.8  0.172   5505      7  0.000  0.000  0.024  0.000   1.48  43.18   0.40      0   5505     97.3   0.00   0.00   1.25   4.00   4.00   4.00   4.00   4.00   4.00   4.00   1.61   0.00   0.00      0      0      0       0    1782
 1992 350   166   163   22.0      5   3.56   3674   4670   2580   7549  14052   3783   68.2  0.184   5708      7  0.000  0.000  0.034  0.000   1.44  45.20   0.41      0   5708     96.9   0.00   0.00   1.25   4.00   4.00   4.00   4.00   4.00   4.00   4.00   1.64   0.00   0.00      0      0      0       0    1819
 1992 351   167   164   22.0      5   3.54   3674   4670   2832   7568  14305   3783   74.9  0.198   5961      7  0.000  0.000  0.038  0.000   1.40  47.52   0.42      0   5961     96.4   0.00   0.00   1.25   4.00   4.00   4.00   4.00   4.00   4.00   4.00   1.65   0.00   0.00      0      0      0       0    1857
 1992 352   168   165   22.0      5   3.52   3674   4670   3116   7551  14588   3783   82.4  0.214   6244      7  0.000  0.000  0.046  0.000   1.35  49.90   0.43      0   6244     95.9   0.00   0.00   1.25   4.00   4.00   4.00   4.00   4.00   4.00   4.00   1.65   0.00   0.00      0      0      0       0    1895
 1992 353   169   166   22.0      5   3.50   3674   4670   3399   7583  14871   3783   89.8  0.229   6527      7  0.000  0.000  0.055  0.000   1.30  52.07   0.44      0   6527     95.2   0.00   0.00   1.25   4.00   4.00   4.00   4.00   4.00   4.00   4.00   1.67   0.00   0.00      0      0      0       0    1933
 1992 354   170   167   22.0      5   3.47   3674   4670   3682   7558  15155   3783   97.3  0.243   6811      7  0.000  0.000  0.065  0.000   1.26  54.07   0.45      0   6811     94.4   0.00   0.00   1.25   4.00   4.00   4.00   4.00   4.00   3.99   3.99   1.67   0.00   0.00      0      0      0       0    1970
 1992 355   171   168   22.0      5   3.44   3674   4670   3966   7597  15438   3783  104.8  0.257   7094      7  0.000  0.000  0.073  0.000   1.22  55.91   0.46      0   7094     93.6   0.00   0.00   1.25   4.00   4.00   4.00   4.00   4.00   4.00   4.00   1.69   0.00   0.00      0      0      0       0    2008
 1992 356   172   169   22.0      5   3.40   3674   4670   4250   7604  15722   3783  112.3  0.270   7378      7  0.000  0.000  0.082  0.000   1.17  57.60   0.47      0   7378     92.6   0.00   0.00   1.25   4.00   4.00   4.00   4.00   4.00   4.00   4.00   1.70   0.00   0.00      0      0      0       0    2046
 1992 357   173   170   22.0      5   3.36   3674   4589   4534   7566  15924   3783  119.8  0.285   7662      7  0.000  0.000  0.091  0.000   1.14  59.17   0.48      0   7662     91.5   0.00   0.00   1.25   4.00   4.00   4.00   4.00   4.00   4.00   4.00   1.70   0.00   0.00      0      0      0       0    2084
 1992 358   174   171   22.0      5   3.32   3674   4505   4817   7528  16124   3783  127.3  0.299   7945      7  0.000  0.000  0.101  0.000   1.11  60.63   0.49      0   7945     90.4   0.00   0.00   1.25   4.00   4.00   4.00   4.00   4.00   4.00   4.00   1.70   0.00   0.00      0      0      0       0    2122
 1992 359   175   172   22.0      5   3.28   3674   4609   5101   7543  16512   3783  134.8  0.309   8229      7  0.000  0.000  0.107  0.000   1.06  61.99   0.50      0   8229     89.2   0.00   0.00   1.25   4.00   4.00   4.00   4.00   4.00   4.00   4.00   1.71   0.00   0.00      0      0      0       0    2160
 1992 360   176   173   22.0      5   3.23   3674   4670   5356   7542  16828   3783  141.6  0.318   8484      7  0.000  0.000  0.113  0.000   1.02  63.13   0.50      0   8484     87.9   0.00   0.00   1.25   4.00   4.00   4.00   4.00   4.00   4.00   4.00   1.72   0.00   0.00      0      0      0       0    2197
 1992 361   177   174   22.0      5   3.18   3674   4670   5589   7580  17061   3783  147.7  0.328   8717      7  0.000  0.000  0.130  0.000   0.99  64.11   0.51      0   8717     86.5   0.00   0.00   1.25   4.00   4.00   4.00   4.00   4.00   4.00   4.00   1.74   0.00   0.00      0      0      0       0    2235
 1992 362   178   175   22.0      5   3.12   3674   4670   5822   7615  17294   3783  153.9  0.337   8950      7  0.000  0.000  0.141  0.000   0.96  65.05   0.52      0   8950     85.0   0.00   0.00   1.25   4.00   4.00   4.00   4.00   4.00   4.00   4.00   1.76   0.00   0.00      0      0      0       0    2273
 1992 363   179   176   22.0      5   3.06   3674   4670   6105   7631  17578   3783  161.4  0.347   9234      7  0.000  0.000  0.149  0.000   0.92  66.12   0.53      0   9234     83.4   0.00   0.00   1.25   4.00   4.00   4.00   4.00   4.00   4.00   4.00   1.77   0.00   0.00      0      0      0       0    2311
 1992 364   180   177   22.0      5   3.00   3674   4536   6389   7593  17727   3783  168.9  0.360   9517      7  0.000  0.000  0.160  0.000   0.91  67.13   0.54      0   9517     81.7   0.00   0.00   1.25   4.00   4.00   4.00   4.00   4.00   4.00   4.00   1.77   0.00   0.00      0      0      0       0    2349
 1992 365   181   178   22.0      5   2.94   3674   4423   6649   7555  17873   3783  175.8  0.372   9777      7  0.000  0.000  0.171  0.000   0.89  68.00   0.55      0   9777     80.0   0.00   0.00   1.25   4.00   4.00   4.00   4.00   4.00   4.00   4.00   1.77   0.00   0.00      0      0      0       0    2387
 1992 366   182   179   22.0      5   2.87   3674   4349   6868   7517  18019   3783  181.6  0.381   9996      7  0.000  0.000  0.174  0.000   0.87  68.71   0.55      0   9996     78.2   0.00   0.00   1.25   4.00   4.00   4.00   4.00   4.00   4.00   4.00   1.77   0.00   0.00      0      0      0       0    2425
 1993 001   183   180   22.0      5   2.81   3674   4258   7103   7479  18163   3783  187.8  0.391  10231      7  0.000  0.000  0.176  0.000   0.85  69.43   0.56      0  10231     76.5   0.00   0.00   1.25   4.00   4.00   4.00   4.00   4.00   4.00   4.00   1.77   0.00   0.00      0      0      0       0    2463
 1993 002   184   181   22.0      5   2.75   3674   4160   7343   7442  18305   3783  194.1  0.401  10471      7  0.000  0.000  0.183  0.206   0.83  70.13   0.57      0  10471     74.8   0.00   0.00   1.25   4.00   4.00   4.00   4.00   4.00   4.00   4.00   1.77   0.00   0.00      0      0      0       0    2500
 1993 003   185   182   22.0      5   2.68   3674   4056   7587   7405  18445   3783  200.6  0.411  10716      7  0.000  0.000  0.189  0.545   0.81  70.81   0.58      0  10716     73.0   0.00   0.00   1.25   4.00   4.00   4.00   4.00   4.00   4.00   4.00   1.77   0.00   0.00      0      0      0       0    2537
 1993 004   186   183   22.0      5   2.62   3674   3999   7871   7368  18672   3783  208.1  0.422  10999      7  0.000  0.000  0.195  0.524   0.78  71.56   0.59      0  10999     71.2   0.00   0.00   1.25   4.00   4.00   4.00   4.00   4.00   4.00   4.00   1.77   0.00   0.00      0      0      0       0    2574
 1993 005   187   184   22.0      5   2.55   3674   4033   8155   7348  18990   3783  215.6  0.429  11283      7  0.000  0.000  0.209  0.258   0.74  72.28   0.59      0  11283     69.4   0.00   0.00   1.25   3.99   3.99   3.99   3.96   3.96   3.95   3.95   1.75   0.00   0.00      0      0      0       0    2611
 1993 006   188   185   22.0      5   2.48   3674   4103   8439   7346  19343   3783  223.1  0.436  11567      7  0.000  0.000  0.241  0.062   0.71  72.96   0.60      0  11567     67.5   0.00   0.00   1.25   4.00   4.00   4.00   3.99   3.98   3.97   3.95   1.75   0.00   0.00      0      0      0       0    2648
 1993 007   189   186   22.0      5   2.41   3674   3984   8722   7309  19509   3783  230.6  0.447  11850      7  0.000  0.000  0.286  0.031   0.69  73.60   0.61      0  11850     65.6   0.00   0.00   1.25   4.00   4.00   4.00   3.99   3.98   3.97   3.95   1.75   0.00   0.00      0      0      0       0    2685
 1993 008   190   187   22.0      5   2.34   3674   3946   9006   7273  19754   3783  238.1  0.456  12134      7  0.000  0.000  0.339  0.204   0.67  74.22   0.61      0  12134     63.6   0.00   0.00   1.25   4.00   4.00   4.00   3.99   3.98   3.97   3.95   1.75   0.00   0.00      0      0      0       0    2721
 1993 009   191   188   22.0      5   2.26   3674   3995   9265   7261  20062   3783  244.9  0.462  12394      7  0.000  0.000  0.360  0.099   0.64  74.76   0.62      0  12394     61.6   0.00   0.00   1.25   4.00   4.00   4.00   4.00   3.99   3.98   3.95   1.75   0.00   0.00      0      0      0       0    2757
 1993 010   192   189   22.0      5   2.19   3674   4023   9549   7238  20374   3783  252.4  0.469  12677      7  0.000  0.000  0.391  0.034   0.62  75.32   0.62      0  12677     59.6   0.00   0.00   1.25   4.00   4.00   4.00   4.00   3.99   3.97   3.94   1.75   0.00   0.00      0      0      0       0    2794
 1993 011   193   190   22.0      5   2.11   3674   4039   9833   7211  20674   3783  259.9  0.476  12961      7  0.000  0.000  0.432  0.001   0.60  75.86   0.63      0  12961     57.5   0.00   0.00   1.25   4.00   4.00   4.00   3.99   3.98   3.96   3.93   1.74   0.00   0.00      0      0      0       0    2830
 1993 012   194   191   22.0      5   2.11   3674   4039   9833   7211  20674   3783  259.9  0.476  12961      7  0.000  0.000  0.432  0.001   0.60  75.86   0.63      0  12961     57.5   0.00   0.00   1.25   4.00   4.00   4.00   3.98   3.97   3.95   3.92   1.74   0.00   0.00      0      0      0       0    2830
 1993 013   195   192   22.0      5   2.11   3674   4039   9833   7211  20674   3783  259.9  0.476  12961      7  0.000  0.000  0.432  0.001   0.60  75.86   0.63      0  12961     57.5   0.00   0.00   1.25   4.00   4.00   4.00   3.97   3.96   3.93   3.90   1.73   0.00   0.00      0      0      0       0    2830
 1993 014   196   193   22.0      5   2.11   3674   4039   9833   7211  20674   3783  259.9  0.476  12961      7  0.000  0.000  0.432  0.001   0.60  75.86   0.63      0  12961     57.5   0.00   0.00   1.25   3.99   4.00   4.00   3.96   3.94   3.92   3.88   1.72   0.00   0.00      0      0      0       0    2830
 1993 015   197   194   22.0      5   2.11   3674   4039   9833   7211  20674   3783  259.9  0.476  12961      7  0.000  0.000  0.432  0.001   0.60  75.86   0.63      0  12961     57.5   0.00   0.00   1.25   3.98   4.00   4.00   3.95   3.93   3.90   3.87   1.72   0.00   0.00      0      0      0       0    2830
