*SOIL N BALANCE - CERES SOIL N&C ROUTINES

*DSSAT Cropping System Model Ver. 4.0.2.000               Aug 03, 2016; 15:09:39

*RUN   1        : UYMZ                    
 MODEL          : MZCER040 - Maize           
 EXPERIMENT     : UYMZ0126 MZ    late to create DSS                             
 TREATMENT  1   : UYMZ                    



                                         INITIAL Year/Doy      FINAL Year/Doy
                                                 1987/184            1988/011
SOIL N BALANCE                                  -----------kg N/ha-----------

   Soil Humus N                                  16646.04            16534.15
   Soil Litter N                                     0.00               13.24
   N in Surface Residue                              0.00                0.00
   Soil NO3                                         74.81                6.29
   Soil NH4                                         23.95                8.56
   Soil Urea                                         0.00                0.00

   Added to / Removed from Soil:
   N in Harvest Residues from Previous Crop          0.00
   N from Organic Applications                       0.00
   N from senesced plant matter                     21.79
   Fertilizer N                                     50.00
   Leached NO3                                                          15.30
   N Denitrified                                                         4.24
   N Uptake From Soil                                                  233.94
   Ammonia volatilization                                                0.87

   Total N balance                               16816.60            16816.59

================================================================================

*DSSAT Cropping System Model Ver. 4.0.2.000               Aug 03, 2016; 15:09:39

*RUN   2        : UYMZ                    
 MODEL          : MZCER040 - Maize           
 EXPERIMENT     : UYMZ0126 MZ    late to create DSS                             
 TREATMENT  1   : UYMZ                    



                                         INITIAL Year/Doy      FINAL Year/Doy
                                                 1988/184            1989/005
SOIL N BALANCE                                  -----------kg N/ha-----------

   Soil Humus N                                  16646.04            16539.23
   Soil Litter N                                     0.00               15.44
   N in Surface Residue                              0.00                0.00
   Soil NO3                                         74.81                6.51
   Soil NH4                                         23.95                6.16
   Soil Urea                                         0.00                0.00

   Added to / Removed from Soil:
   N in Harvest Residues from Previous Crop          0.00
   N from Organic Applications                       0.00
   N from senesced plant matter                     19.35
   Fertilizer N                                     50.00
   Leached NO3                                                          12.67
   N Denitrified                                                         3.62
   N Uptake From Soil                                                  229.88
   Ammonia volatilization                                                0.64

   Total N balance                               16814.16            16814.16

================================================================================

*DSSAT Cropping System Model Ver. 4.0.2.000               Aug 03, 2016; 15:09:39

*RUN   3        : UYMZ                    
 MODEL          : MZCER040 - Maize           
 EXPERIMENT     : UYMZ0126 MZ    late to create DSS                             
 TREATMENT  1   : UYMZ                    



                                         INITIAL Year/Doy      FINAL Year/Doy
                                                 1989/184            1990/004
SOIL N BALANCE                                  -----------kg N/ha-----------

   Soil Humus N                                  16646.04            16539.74
   Soil Litter N                                     0.00               15.86
   N in Surface Residue                              0.00                0.00
   Soil NO3                                         74.81                5.88
   Soil NH4                                         23.95                6.73
   Soil Urea                                         0.00                0.00

   Added to / Removed from Soil:
   N in Harvest Residues from Previous Crop          0.00
   N from Organic Applications                       0.00
   N from senesced plant matter                     22.46
   Fertilizer N                                     50.00
   Leached NO3                                                           6.37
   N Denitrified                                                         0.85
   N Uptake From Soil                                                  241.03
   Ammonia volatilization                                                0.80

   Total N balance                               16817.26            16817.26

================================================================================

*DSSAT Cropping System Model Ver. 4.0.2.000               Aug 03, 2016; 15:09:39

*RUN   4        : UYMZ                    
 MODEL          : MZCER040 - Maize           
 EXPERIMENT     : UYMZ0126 MZ    late to create DSS                             
 TREATMENT  1   : UYMZ                    



                                         INITIAL Year/Doy      FINAL Year/Doy
                                                 1990/184            1991/005
SOIL N BALANCE                                  -----------kg N/ha-----------

   Soil Humus N                                  16646.04            16537.18
   Soil Litter N                                     0.00                9.56
   N in Surface Residue                              0.00                0.00
   Soil NO3                                         74.81                5.99
   Soil NH4                                         23.95                7.89
   Soil Urea                                         0.00                0.00

   Added to / Removed from Soil:
   N in Harvest Residues from Previous Crop          0.00
   N from Organic Applications                       0.00
   N from senesced plant matter                     14.67
   Fertilizer N                                     50.00
   Leached NO3                                                           8.45
   N Denitrified                                                         2.20
   N Uptake From Soil                                                  237.40
   Ammonia volatilization                                                0.81

   Total N balance                               16809.47            16809.47

================================================================================

*DSSAT Cropping System Model Ver. 4.0.2.000               Aug 03, 2016; 15:09:39

*RUN   5        : UYMZ                    
 MODEL          : MZCER040 - Maize           
 EXPERIMENT     : UYMZ0126 MZ    late to create DSS                             
 TREATMENT  1   : UYMZ                    



                                         INITIAL Year/Doy      FINAL Year/Doy
                                                 1991/184            1992/006
SOIL N BALANCE                                  -----------kg N/ha-----------

   Soil Humus N                                  16646.04            16537.62
   Soil Litter N                                     0.00               13.78
   N in Surface Residue                              0.00                0.00
   Soil NO3                                         74.81                5.99
   Soil NH4                                         23.95                8.50
   Soil Urea                                         0.00                0.00

   Added to / Removed from Soil:
   N in Harvest Residues from Previous Crop          0.00
   N from Organic Applications                       0.00
   N from senesced plant matter                     21.71
   Fertilizer N                                     50.00
   Leached NO3                                                          35.50
   N Denitrified                                                         3.23
   N Uptake From Soil                                                  210.93
   Ammonia volatilization                                                0.97

   Total N balance                               16816.52            16816.52

================================================================================

*DSSAT Cropping System Model Ver. 4.0.2.000               Aug 03, 2016; 15:09:39

*RUN   6        : UYMZ                    
 MODEL          : MZCER040 - Maize           
 EXPERIMENT     : UYMZ0126 MZ    late to create DSS                             
 TREATMENT  1   : UYMZ                    



                                         INITIAL Year/Doy      FINAL Year/Doy
                                                 1992/184            1993/015
SOIL N BALANCE                                  -----------kg N/ha-----------

   Soil Humus N                                  16646.04            16537.27
   Soil Litter N                                     0.00               18.02
   N in Surface Residue                              0.00                0.00
   Soil NO3                                         74.81                7.19
   Soil NH4                                         23.95                8.37
   Soil Urea                                         0.00                0.00

   Added to / Removed from Soil:
   N in Harvest Residues from Previous Crop          0.00
   N from Organic Applications                       0.00
   N from senesced plant matter                     26.38
   Fertilizer N                                     50.00
   Leached NO3                                                           0.43
   N Denitrified                                                         0.08
   N Uptake From Soil                                                  248.66
   Ammonia volatilization                                                1.17

   Total N balance                               16821.18            16821.19
