*SOIL NITROGEN DAILY OUTPUT FILE

*DSSAT Cropping System Model Ver. 4.0.2.000               Aug 03, 2016; 15:09:39

*RUN   1        : UYMZ                    
 MODEL          : MZCER040 - Maize           
 EXPERIMENT     : UYMZ0126 MZ    late to create DSS                             
 TREATMENT  1   : UYMZ                    

@YEAR DOY   DAS  NAPC  NI#M    NLCC   NIAD    NOAD   NITD   NHTD  NI1D  NI2D  NI3D  NI4D  NI5D  NI6D  NI7D  NI8D  NI9D  NI10  NH1D  NH2D  NH3D  NH4D  NH5D  NH6D  NH7D  NH8D  NH9D  NH10    NMNC    NITC    NDNC    NIMC    AMLC
 1987 184     0     0     0     0.0   99.3   16645   76.5   22.8  13.3  16.6  15.1   8.6   4.6   0.0   0.1   0.1   0.0   0.0   0.6   1.3   1.5   1.4   1.4  1.50  1.46  1.45  0.00  0.00    0.55    1.71    0.00    0.00    0.00
 1987 185     1     0     0     0.0   99.9   16645   77.6   22.2  12.6  17.2  15.3   8.7   4.6   0.0   0.1   0.1   0.0   0.0   0.6   1.2   1.4   1.4   1.4  1.51  1.43  1.41  0.00  0.00    1.09    2.83    0.00    0.00    0.00
 1987 186     2     0     0     0.0  100.4   16644   78.9   21.5  13.0  17.3  15.5   8.8   4.7   0.1   0.1   0.2   0.0   0.0   0.3   1.1   1.4   1.3   1.3  1.51  1.40  1.36  0.00  0.00    1.64    4.09    0.00    0.00    0.00
 1987 187     3     0     0     0.0  101.0   16644   80.0   20.9   5.9  16.0  19.1   8.9   4.8   0.1   0.2   0.2   0.0   0.0   0.2   1.0   1.4   1.3   1.3  1.51  1.36  1.32  0.00  0.00    2.21    5.22    0.00    0.00    0.00
 1987 188     4     0     0     0.0  101.6   16643   80.9   20.6   6.0  15.6  19.4   9.0   4.8   0.1   0.2   0.3   0.0   0.0   0.1   1.0   1.4   1.2   1.3  1.52  1.33  1.28  0.00  0.00    2.79    6.11    0.00    0.00    0.00
 1987 189     5     0     0     0.0  102.1   16643   82.0   20.2   6.1  15.7  19.5   9.2   4.9   0.1   0.3   0.3   0.0   0.0   0.1   0.9   1.4   1.2   1.2  1.52  1.30  1.24  0.00  0.00    3.37    7.17    0.00    0.00    0.00
 1987 190     6     0     0     0.0  102.7   16642   83.0   19.7   6.2  15.8  19.6   9.4   5.0   0.1   0.3   0.3   0.0   0.0   0.1   0.9   1.3   1.1   1.2  1.52  1.27  1.20  0.00  0.00    3.95    8.18    0.00    0.00    0.00
 1987 191     7     0     0     0.0  103.3   16642   83.9   19.3   6.3  15.9  19.7   9.5   5.0   0.2   0.4   0.4   0.0   0.0   0.1   0.8   1.3   1.1   1.1  1.52  1.24  1.17  0.00  0.00    4.52    9.14    0.00    0.00    0.00
 1987 192     8     0     0     0.0  103.9   16641   84.9   19.0   2.8  12.2  19.9  12.8   5.1   0.2   0.4   0.4   0.0   0.0   0.1   0.7   1.3   1.1   1.1  1.53  1.21  1.13  0.00  0.00    5.10   10.07    0.00    0.00    0.00
 1987 193     9     0     0     0.0  104.4   16640   85.4   19.1   2.8  12.0  19.5  12.8   5.7   0.2   0.4   0.5   0.0   0.0   0.2   0.8   1.4   1.1   1.1  1.53  1.19  1.10  0.00  0.00    5.67   10.55    0.00    0.00    0.00
 1987 194    10     0     0     0.0  105.0   16640   85.9   19.1   3.0  11.9  19.3  12.8   6.0   0.2   0.5   0.5   0.0   0.0   0.1   0.9   1.5   1.1   1.0  1.53  1.16  1.06  0.00  0.00    6.26   11.13    0.00    0.00    0.00
 1987 195    11     0     0     0.0  105.6   16639   86.7   18.9   3.2  12.0  19.2  12.9   6.2   0.2   0.5   0.5   0.0   0.0   0.1   0.8   1.5   1.1   1.0  1.54  1.13  1.03  0.00  0.00    6.83   11.92    0.00    0.00    0.00
 1987 196    12     0     0     0.0  106.2   16639   87.5   18.7   3.5  12.1  19.2  12.9   6.2   0.2   0.5   0.6   0.0   0.0   0.1   0.7   1.6   1.0   1.0  1.54  1.11  1.00  0.00  0.00    7.42   12.70    0.00    0.00    0.00
 1987 197    13     0     0     0.0  106.8   16638   88.5   18.3   3.9  12.1  19.3  13.0   6.3   0.3   0.6   0.6   0.0   0.0   0.1   0.7   1.6   1.0   1.0  1.54  1.08  0.97  0.00  0.00    8.04   13.67    0.00    0.00    0.00
 1987 198    14     0     0     0.0  107.2   16637   89.2   18.0   4.2  12.0  19.5  13.1   6.4   0.3   0.6   0.6   0.0   0.0   0.1   0.7   1.5   1.0   0.9  1.54  1.06  0.94  0.00  0.00    8.65   14.62    0.00    0.00    0.00
 1987 199    15     0     0     0.0  107.8   16637   90.1   17.7   4.6  12.0  19.6  13.1   6.4   0.3   0.7   0.7   0.0   0.0   0.1   0.6   1.5   0.9   0.9  1.55  1.04  0.91  0.00  0.00    9.24   15.50    0.00    0.00    0.00
 1987 200    16     0     0     0.0  108.4   16636   90.9   17.4   4.9  12.0  19.7  13.2   6.5   0.3   0.7   0.7   0.0   0.0   0.1   0.6   1.5   0.9   0.9  1.55  1.02  0.89  0.00  0.00    9.80   16.33    0.00    0.00    0.00
 1987 201    17     0     0     0.0  108.9   16636   91.7   17.2   5.2  12.0  19.8  13.2   6.6   0.3   0.7   0.7   0.0   0.0   0.1   0.6   1.4   0.9   0.9  1.55  1.00  0.86  0.00  0.00   10.30   17.06    0.00    0.00    0.00
 1987 202    18     0     0     0.0  109.3   16635   92.3   17.0   5.5  12.0  19.8  13.3   6.6   0.4   0.7   0.8   0.0   0.0   0.1   0.6   1.4   0.9   0.9  1.55  0.98  0.84  0.00  0.00   10.72   17.70    0.00    0.00    0.00
 1987 203    19     0     0     0.0  109.7   16635   92.9   16.8   5.8  12.0  19.9  13.3   6.7   0.4   0.8   0.8   0.0   0.0   0.1   0.6   1.4   0.9   0.8  1.56  0.96  0.81  0.00  0.00   11.10   18.28    0.00    0.00    0.00
 1987 204    20     0     0     0.0  110.0   16635   93.5   16.6   4.7  12.4  20.1  13.3   6.7   0.4   0.8   0.8   0.0   0.0   0.1   0.5   1.4   0.8   0.8  1.56  0.94  0.79  0.00  0.00   11.46   18.85    0.00    0.00    0.00
 1987 205    21     0     0     0.0  110.4   16634   94.0   16.5   3.4  11.0  20.6  14.0   6.9   0.4   0.8   0.8   0.0   0.0   0.1   0.6   1.3   0.8   0.8  1.56  0.92  0.77  0.00  0.00   11.84   19.34    0.00    0.00    0.00
 1987 206    22     0     0     0.0  110.9   16634   94.3   16.5   3.5  10.9  20.2  13.9   7.4   0.5   0.9   0.9   0.0   0.0   0.1   0.6   1.4   0.9   0.8  1.56  0.91  0.75  0.00  0.00   12.30   19.71    0.00    0.00    0.00
 1987 207    23     0     0     0.0  111.4   16633   94.6   16.8   2.6   9.9  19.5  14.7   7.9   0.6   0.9   0.9   0.0   0.0   0.1   0.7   1.5   0.9   0.8  1.58  0.89  0.73  0.00  0.00   12.82   20.01    0.00    0.00    0.00
 1987 208    24     0     0     0.0  111.9   16633   94.8   17.1   2.0   9.0  18.7  14.6   8.8   0.9   0.9   0.9   0.0   0.0   0.2   0.8   1.6   0.9   0.8  1.59  0.89  0.71  0.00  0.00   13.35   20.20    0.00    0.00    0.00
 1987 209    25     0     0     0.3  112.1   16632   94.6   17.5   2.0   8.8  18.3  14.2   8.9   1.2   0.9   0.9   0.0   0.0   0.3   0.8   1.6   0.9   0.9  1.61  0.90  0.70  0.00  0.00   13.92   20.35    0.09    0.00    0.00
 1987 210    26     0     0     0.5  112.2   16632   94.4   17.8   2.2   8.6  17.9  13.9   8.9   1.4   1.0   0.9   0.0   0.0   0.2   0.9   1.7   1.0   0.9  1.62  0.90  0.70  0.00  0.00   14.49   20.64    0.38    0.00    0.00
 1987 211    27     0     0     0.5  112.6   16631   94.6   18.0   1.8   7.9  17.5  14.3   9.2   1.5   1.0   0.9   0.0   0.0   0.1   0.8   1.8   1.0   0.9  1.64  0.90  0.70  0.00  0.00   15.04   21.04    0.54    0.00    0.00
 1987 212    28     0     0     0.7  112.5   16631   94.2   18.2   1.9   7.8  17.0  13.9   9.3   1.8   1.0   1.0   0.0   0.0   0.1   0.9   1.8   1.0   0.9  1.65  0.90  0.69  0.00  0.00   15.53   21.23    0.91    0.00    0.00
 1987 213    29     0     0     0.8  112.6   16630   94.1   18.5   2.0   7.7  16.8  13.6   9.3   1.9   1.1   1.0   0.0   0.0   0.1   0.9   1.9   1.0   0.9  1.67  0.91  0.69  0.00  0.00   16.00   21.44    1.12    0.00    0.00
 1987 214    30     0     0     0.8  112.9   16630   94.3   18.6   2.2   7.8  16.7  13.5   9.3   2.0   1.1   1.0   0.0   0.0   0.1   0.9   1.9   1.0   1.0  1.68  0.91  0.68  0.00  0.00   16.45   21.78    1.23    0.00    0.00
 1987 215    31     0     0     0.9  113.3   16629   94.7   18.6   2.5   7.8  16.8  13.4   9.3   2.0   1.1   1.0   0.0   0.0   0.1   0.8   1.9   1.0   1.0  1.69  0.91  0.68  0.00  0.00   16.92   22.30    1.26    0.00    0.00
 1987 216    32     0     0     0.9  113.6   16629   95.1   18.5   2.8   7.8  16.9  13.4   9.4   2.1   1.1   1.0   0.0   0.0   0.1   0.8   1.8   1.1   1.0  1.71  0.91  0.68  0.00  0.00   17.39   22.81    1.28    0.00    0.00
 1987 217    33     0     0     0.9  114.0   16628   95.5   18.5   2.3   7.9  17.1  13.4   9.4   2.1   1.1   1.0   0.0   0.0   0.1   0.7   1.8   1.1   1.0  1.72  0.91  0.67  0.00  0.00   17.86   23.30    1.29    0.00    0.00
 1987 218    34     0     0     0.9  114.5   16628   95.7   18.8   1.9   7.2  17.1  13.7   9.6   2.1   1.2   1.0   0.0   0.0   0.2   0.8   1.8   1.1   1.0  1.73  0.92  0.67  0.00  0.00   18.33   23.50    1.31    0.00    0.00
 1987 219    35     0     0     0.9  114.7   16627   95.7   19.0   1.2   6.0  15.4  13.7  10.6   2.7   1.3   1.0   0.0   0.0   0.2   0.8   1.9   1.1   1.0  1.75  0.92  0.66  0.00  0.00   18.77   23.66    1.38    0.00    0.00
 1987 220    36     0     0     1.3  114.5   16627   95.2   19.3   1.3   5.9  15.0  13.2  10.4   3.0   1.4   1.1   0.0   0.0   0.2   0.9   1.9   1.1   1.0  1.76  0.92  0.66  0.00  0.00   19.18   23.84    1.59    0.00    0.00
 1987 221    37     0     0     1.5  114.5   16626   95.0   19.5   1.4   5.8  14.8  12.9  10.3   3.1   1.5   1.1   0.0   0.0   0.1   0.9   2.0   1.1   1.1  1.78  0.92  0.66  0.00  0.00   19.59   24.04    1.72    0.00    0.00
 1987 222    38     0     0     1.6  114.6   16626   95.0   19.6   1.6   5.9  14.7  12.7  10.2   3.2   1.6   1.1   0.0   0.0   0.1   0.8   2.0   1.1   1.1  1.79  0.93  0.65  0.00  0.00   20.02   24.37    1.86    0.00    0.00
 1987 223    39     0     0     1.7  114.8   16626   95.1   19.7   1.8   5.9  14.6  12.7  10.2   3.2   1.6   1.1   0.0   0.0   0.1   0.8   2.0   1.2   1.1  1.80  0.93  0.65  0.00  0.00   20.47   24.71    1.92    0.00    0.00
 1987 224    40     0     0     1.7  115.0   16625   95.5   19.6   1.8   6.0  14.7  12.6  10.2   3.2   1.6   1.1   0.0   0.0   0.1   0.7   2.0   1.2   1.1  1.82  0.93  0.65  0.00  0.00   20.96   25.27    1.94    0.00    0.00
 1987 225    41     0     0     1.7  115.3   16625   95.6   19.7   1.7   5.9  14.8  12.6  10.2   3.3   1.6   1.2   0.0   0.0   0.2   0.8   1.9   1.2   1.1  1.83  0.93  0.64  0.00  0.00   21.47   25.68    1.96    0.00    0.00
 1987 226    42     0     0     1.7  115.5   16624   95.7   19.9   1.4   5.4  14.6  12.9  10.3   3.3   1.7   1.2   0.0   0.0   0.1   0.8   1.9   1.2   1.1  1.84  0.93  0.64  0.00  0.00   21.99   25.98    1.98    0.00    0.00
 1987 227    43     0     0     1.8  115.7   16624   95.5   20.1   1.2   4.9  13.8  13.1  10.8   3.5   1.7   1.2   0.0   0.0   0.1   0.9   2.0   1.2   1.1  1.86  0.94  0.64  0.00  0.00   22.51   26.22    2.04    0.00    0.00
 1987 228    44     0     0     2.1  115.5   16623   95.1   20.4   1.3   4.8  13.4  12.6  10.7   3.7   1.8   1.2   0.0   0.0   0.1   1.0   2.0   1.2   1.1  1.87  0.94  0.63  0.00  0.00   23.02   26.43    2.23    0.00    0.00
 1987 229    45     0     0     2.2  115.3   16623   94.7   20.6   1.3   4.7  13.1  12.3  10.6   3.9   1.9   1.3   0.0   0.0   0.1   1.0   2.1   1.3   1.2  1.89  0.94  0.63  0.00  0.00   23.52   26.67    2.36    0.00    0.00
 1987 230    46     0     0     2.2  115.7   16622   95.0   20.7   1.5   4.8  13.0  12.2  10.6   3.9   2.0   1.3   0.0   0.0   0.1   0.9   2.1   1.3   1.2  1.90  0.94  0.63  0.00  0.00   23.97   27.04    2.47    0.00    0.00
 1987 231    47     0     0     2.3  116.0   16622   95.2   20.8   1.7   4.9  13.0  12.1  10.6   4.0   2.0   1.3   0.0   0.0   0.1   0.9   2.2   1.3   1.2  1.91  0.94  0.62  0.00  0.00   24.39   27.38    2.53    0.00    0.00
 1987 232    48     0     0     2.3  116.2   16621   95.5   20.7   1.8   4.9  13.1  12.1  10.5   4.0   2.0   1.3   0.0   0.0   0.1   0.8   2.1   1.3   1.2  1.92  0.95  0.62  0.00  0.00   24.77   27.85    2.56    0.00    0.00
 1987 233    49     0     0     2.3  116.5   16621   95.9   20.6   2.0   5.0  13.2  12.1  10.5   4.0   2.0   1.3   0.0   0.0   0.1   0.8   2.0   1.3   1.2  1.93  0.95  0.62  0.00  0.00   25.12   28.29    2.58    0.00    0.00
 1987 234    50     0     0     2.3  116.8   16621   96.3   20.5   2.1   5.0  13.3  12.1  10.6   4.0   2.0   1.3   0.0   0.0   0.1   0.7   2.0   1.3   1.2  1.95  0.95  0.61  0.00  0.00   25.46   28.71    2.60    0.00    0.00
 1987 235    51     0     0     2.3  116.9   16620   96.5   20.4   2.2   5.1  13.2  12.1  10.6   4.0   2.0   1.3   0.0   0.0   0.1   0.7   1.9   1.3   1.2  1.96  0.95  0.61  0.00  0.00   25.85   29.15    2.61    0.00    0.00
 1987 236    52     0     0     2.3  117.0   16620   96.7   20.3   2.4   5.1  13.2  12.2  10.6   4.0   2.0   1.3   0.0   0.0   0.1   0.7   1.8   1.3   1.2  1.97  0.95  0.61  0.00  0.00   26.28   29.71    2.63    0.00    0.00
 1987 237    53    50     1     2.3  167.1   16619  122.1   45.1  47.6   5.2  13.2  12.3  10.6   4.0   2.1   1.4   0.0   0.0  45.0   0.6   1.8   1.2   1.2  1.98  0.95  0.60  0.00  0.00   26.75   30.29    2.64    0.00    0.05
 1987 238    54    50     1     2.3  167.1   16619  139.6   27.6  78.5   5.3  13.2  12.3  10.6   4.0   2.1   1.4   0.0   0.0  13.7   0.6   1.7   1.2   1.2  2.00  0.95  0.60  0.00  0.00   27.27   48.08    2.66    0.00    0.09
 1987 239    55    50     1     2.3  166.8   16618  145.3   21.5  88.4   5.3  13.1  12.4  10.6   4.0   2.1   1.4   0.0   0.0   3.1   0.6   1.7   1.1   1.3  2.01  0.96  0.60  0.00  0.00   27.84   54.55    2.67    0.00    0.13
 1987 240    56    50     1     2.4  166.8   16618  146.7   20.1  39.9  25.4  13.6  13.4  11.6   4.4   2.2   1.4   0.0   0.0   0.6   0.6   1.6   1.1   1.3  2.02  0.96  0.60  0.00  0.00   28.42   56.54    2.69    0.00    0.16
 1987 241    57    50     1     3.7  165.3   16617  144.9   20.4  17.4  22.4  16.2  12.9  11.8   5.9   3.3   2.0   0.0   0.0   0.5   0.7   1.7   1.1   1.3  2.04  0.96  0.59  0.00  0.00   28.98   56.74    2.81    0.00    0.20
 1987 242    58    50     1     4.7  164.0   16617  143.3   20.7  17.1  21.8  15.9  12.5  11.5   5.9   3.5   2.1   0.0   0.0   0.5   0.7   1.7   1.2   1.3  2.05  0.97  0.59  0.00  0.00   29.52   56.90    3.02    0.00    0.23
 1987 243    59    50     1     5.3  162.8   16616  142.1   20.7  17.2  21.3  15.6  12.3  11.3   6.0   3.6   2.2   0.0   0.0   0.1   0.8   1.8   1.2   1.3  2.07  0.97  0.59  0.00  0.00   30.02   57.25    3.15    0.00    0.33
 1987 244    60    50     1     5.7  162.6   16616  141.8   20.8  17.7  21.0  15.5  12.2  11.2   6.0   3.6   2.2   0.0   0.0   0.0   0.7   1.8   1.2   1.3  2.08  0.97  0.59  0.00  0.00   30.50   57.57    3.22    0.00    0.37
 1987 245    61    50     1     5.9  162.8   16615  142.0   20.8  18.3  20.9  15.6  12.1  11.2   6.0   3.6   2.3   0.0   0.0   0.1   0.7   1.8   1.2   1.3  2.09  0.97  0.59  0.00  0.00   30.95   58.02    3.29    0.00    0.38
 1987 246    62    50     1     6.0  162.9   16615  142.1   20.8  18.8  20.7  15.7  12.1  11.1   6.0   3.6   2.3   0.0   0.0   0.1   0.7   1.7   1.2   1.3  2.11  0.98  0.59  0.00  0.00   31.38   58.47    3.32    0.00    0.39
 1987 247    63    50     1     6.0  162.4   16614  141.6   20.7  19.0  20.3  15.5  12.1  11.2   6.0   3.7   2.3   0.0   0.0   0.1   0.6   1.7   1.2   1.4  2.12  0.98  0.58  0.00  0.00   31.83   58.93    3.34    0.00    0.39
 1987 248    64    50     1     6.0  162.1   16614  141.5   20.6  19.3  20.0  15.4  12.2  11.2   6.0   3.7   2.3   0.0   0.0   0.1   0.6   1.6   1.2   1.4  2.13  0.98  0.58  0.00  0.00   32.29   59.47    3.36    0.00    0.39
 1987 249    65    50     1     6.0  162.5   16613  141.9   20.5  19.7  20.0  15.4  12.2  11.2   6.0   3.7   2.3   0.0   0.0   0.1   0.6   1.6   1.1   1.4  2.14  0.98  0.58  0.00  0.00   32.74   60.01    3.37    0.00    0.40
 1987 250    66    50     1     6.0  162.4   16613  141.9   20.4  20.0  19.8  15.4  12.3  11.2   6.0   3.7   2.3   0.0   0.0   0.1   0.6   1.5   1.1   1.4  2.15  0.98  0.57  0.00  0.00   33.19   60.53    3.39    0.00    0.40
 1987 251    67    50     1     6.0  162.7   16612  142.3   20.4  20.4  19.7  15.4  12.3  11.2   6.0   3.7   2.3   0.0   0.0   0.1   0.6   1.5   1.1   1.4  2.16  0.98  0.57  0.00  0.00   33.65   61.06    3.40    0.00    0.40
 1987 252    68    50     1     6.0  162.9   16612  142.6   20.3  20.7  19.6  15.4  12.4  11.2   6.0   3.7   2.3   0.0   0.0   0.1   0.6   1.5   1.1   1.4  2.18  0.98  0.57  0.00  0.00   34.13   61.58    3.42    0.00    0.40
 1987 253    69    50     1     6.0  162.7   16611  142.5   20.2  20.9  19.4  15.4  12.4  11.3   6.0   3.7   2.3   0.0   0.0   0.1   0.5   1.4   1.0   1.4  2.19  0.99  0.57  0.00  0.00   34.62   62.13    3.43    0.00    0.41
 1987 254    70    50     1     6.0  161.8   16611  141.6   20.2  20.8  19.0  15.1  12.4  11.3   6.0   3.7   2.3   0.0   0.0   0.1   0.5   1.4   1.0   1.4  2.20  0.99  0.56  0.00  0.00   35.13   62.67    3.44    0.00    0.41
 1987 255    71    50     1     6.0  161.3   16610  141.2   20.1  20.8  18.7  15.0  12.4  11.3   6.0   3.7   2.3   0.0   0.0   0.1   0.5   1.4   1.0   1.4  2.21  0.99  0.56  0.00  0.00   35.65   63.22    3.46    0.00    0.41
 1987 256    72    50     1     6.0  160.9   16610  140.9   20.0  20.9  18.5  14.8  12.4  11.3   6.0   3.7   2.3   0.0   0.0   0.1   0.5   1.3   0.9   1.4  2.22  0.99  0.56  0.00  0.00   36.17   63.77    3.46    0.00    0.41
 1987 257    73    50     1     6.0  160.9   16609  141.0   19.9  21.1  18.4  14.8  12.4  11.4   6.0   3.7   2.3   0.0   0.0   0.1   0.5   1.3   0.9   1.4  2.24  0.99  0.56  0.00  0.00   36.70   64.43    3.47    0.00    0.42
 1987 258    74    50     1     6.1  160.4   16609  140.6   19.8   6.8  14.4  16.6  13.5  12.6   6.9   4.1   2.4   0.0   0.0   0.1   0.5   1.3   0.9   1.3  2.25  0.99  0.55  0.00  0.00   37.23   65.07    3.48    0.00    0.42
 1987 259    75    50     1     7.1  159.0   16608  138.9   20.1   6.7  14.0  16.1  13.0  12.3   6.9   4.3   2.6   0.0   0.0   0.1   0.6   1.4   0.9   1.3  2.26  1.00  0.55  0.00  0.00   37.77   65.23    3.60    0.00    0.42
 1987 260    76    50     1     7.6  157.6   16608  137.2   20.4   6.7  13.5  15.7  12.7  12.1   6.9   4.4   2.7   0.0   0.0   0.1   0.6   1.4   0.9   1.4  2.28  1.00  0.55  0.00  0.00   38.29   65.44    3.66    0.00    0.43
 1987 261    77    50     1     7.9  157.2   16607  136.7   20.6   7.1  13.3  15.5  12.5  12.0   6.9   4.4   2.8   0.0   0.0   0.1   0.6   1.5   1.0   1.4  2.29  1.00  0.55  0.00  0.00   38.79   65.76    3.70    0.00    0.43
 1987 262    78    50     1     8.1  157.1   16607  136.6   20.6   7.5  13.2  15.5  12.5  12.0   6.9   4.5   2.8   0.0   0.0   0.1   0.6   1.4   1.0   1.4  2.30  1.00  0.55  0.00  0.00   39.26   66.20    3.73    0.00    0.43
 1987 263    79    50     1     8.2  156.5   16606  135.9   20.6   7.7  12.9  15.3  12.4  12.0   6.9   4.5   2.9   0.0   0.0   0.1   0.6   1.4   1.0   1.4  2.31  1.00  0.54  0.00  0.00   39.71   66.62    3.76    0.00    0.43
 1987 264    80    50     1     8.2  156.3   16606  135.8   20.6   8.0  12.8  15.2  12.4  12.0   6.9   4.5   2.9   0.0   0.0   0.1   0.6   1.4   1.0   1.4  2.32  1.00  0.54  0.00  0.00   40.16   67.03    3.78    0.00    0.44
 1987 265    81    50     1     8.2  156.8   16605  136.2   20.5   8.3  12.8  15.2  12.4  12.0   6.9   4.5   2.9   0.0   0.0   0.1   0.6   1.3   1.0   1.4  2.34  1.00  0.54  0.00  0.00   40.60   67.51    3.79    0.00    0.44
 1987 266    82    50     1     8.2  156.5   16605  136.1   20.5   8.5  12.7  15.1  12.4  12.0   6.9   4.5   2.9   0.0   0.0   0.1   0.5   1.3   0.9   1.4  2.35  1.01  0.54  0.00  0.00   41.04   67.97    3.81    0.00    0.44
 1987 267    83    50     1     8.2  156.6   16605  136.1   20.5   8.7  12.6  15.1  12.4  12.0   6.9   4.5   2.9   0.0   0.0   0.1   0.5   1.3   0.9   1.4  2.36  1.01  0.53  0.00  0.00   41.48   68.42    3.83    0.00    0.44
 1987 268    84    50     1     8.2  155.8   16604  135.4   20.4   8.8  12.4  14.8  12.3  12.0   6.9   4.5   2.9   0.0   0.0   0.1   0.5   1.3   0.9   1.4  2.37  1.01  0.53  0.00  0.00   41.94   68.90    3.84    0.00    0.45
 1987 269    85    50     1     8.2  154.7   16604  134.4   20.4   8.8  12.1  14.4  12.2  12.1   6.9   4.5   2.9   0.0   0.0   0.1   0.5   1.2   0.9   1.4  2.38  1.01  0.53  0.00  0.00   42.44   69.39    3.85    0.00    0.45
 1987 270    86    50     1     8.2  153.3   16603  133.0   20.3   8.8  11.7  14.0  12.1  12.1   6.9   4.5   2.9   0.0   0.0   0.1   0.5   1.2   0.8   1.4  2.39  1.01  0.53  0.00  0.00   42.98   69.94    3.87    0.00    0.45
 1987 271    87    50     1     8.2  151.9   16603  131.7   20.3   8.7  11.4  13.5  12.0  12.1   6.9   4.6   2.9   0.0   0.0   0.1   0.5   1.2   0.8   1.4  2.40  1.01  0.53  0.00  0.00   43.56   70.50    3.88    0.00    0.45
 1987 272    88    50     1     8.2  150.5   16602  130.4   20.1   8.6  11.0  13.1  11.9  12.1   6.9   4.6   2.9   0.0   0.0   0.1   0.5   1.1   0.8   1.4  2.42  1.01  0.52  0.00  0.00   44.15   71.19    3.89    0.00    0.46
 1987 273    89    50     1     8.2  149.2   16601  129.3   19.9   6.5  11.8  12.7  11.7  12.1   6.9   4.6   2.9   0.0   0.0   0.1   0.5   1.1   0.8   1.3  2.43  1.01  0.52  0.00  0.00   44.75   71.88    3.90    0.00    0.46
 1987 274    90    50     1     8.2  148.7   16601  128.8   19.9   6.2  11.7  12.7  11.7  12.1   6.9   4.6   2.9   0.0   0.0   0.2   0.5   1.1   0.8   1.3  2.44  1.01  0.52  0.00  0.00   45.35   72.49    3.91    0.00    0.46
 1987 275    91    50     1     8.2  146.2   16600  126.4   19.7   6.0  11.0  12.0  11.4  12.0   6.9   4.6   2.9   0.0   0.0   0.1   0.5   1.1   0.7   1.2  2.45  1.01  0.52  0.00  0.00   45.93   73.15    3.92    0.00    0.46
 1987 276    92    50     1     8.2  144.6   16600  125.0   19.6   5.8  10.7  11.7  11.3  11.9   6.9   4.6   2.9   0.0   0.0   0.1   0.5   1.1   0.7   1.2  2.46  1.02  0.52  0.00  0.00   46.49   73.75    3.93    0.00    0.49
 1987 277    93    50     1     8.2  144.0   16599  124.5   19.5   5.8  10.6  11.5  11.2  11.9   6.9   4.6   2.9   0.0   0.0   0.1   0.5   1.0   0.7   1.1  2.47  1.02  0.51  0.00  0.00   47.04   74.31    3.94    0.00    0.51
 1987 278    94    50     1     8.2  141.1   16599  121.7   19.4   5.5  10.0  10.8  11.0  11.7   7.0   4.6   2.9   0.0   0.0   0.1   0.5   1.0   0.7   1.1  2.49  1.02  0.51  0.00  0.00   47.58   74.86    3.95    0.00    0.53
 1987 279    95    50     1     8.2  138.2   16598  118.9   19.3   5.2   9.4  10.1  10.7  11.5   7.0   4.6   2.9   0.0   0.0   0.1   0.5   1.0   0.7   1.1  2.50  1.02  0.51  0.00  0.00   48.12   75.43    3.96    0.00    0.55
 1987 280    96    50     1     8.2  136.2   16597  117.0   19.2   5.0   9.0   9.7  10.5  11.4   7.0   4.6   3.0   0.0   0.0   0.1   0.5   1.0   0.7   1.0  2.51  1.02  0.51  0.00  0.00   48.68   76.00    3.97    0.00    0.56
 1987 281    97    50     1     8.2  134.7   16597  115.6   19.1   4.9   8.7   9.3  10.4  11.2   7.0   4.6   3.0   0.0   0.0   0.1   0.5   0.9   0.7   1.0  2.52  1.02  0.51  0.00  0.00   49.24   76.57    3.98    0.00    0.56
 1987 282    98    50     1     8.2  131.9   16596  112.9   19.0   4.7   8.2   8.7  10.1  11.0   7.0   4.6   3.0   0.0   0.0   0.1   0.4   0.9   0.7   0.9  2.53  1.02  0.50  0.00  0.00   49.81   77.16    3.99    0.00    0.57
 1987 283    99    50     1     8.2  128.5   16596  109.7   18.9   4.4   7.5   8.0   9.8  10.7   7.0   4.7   3.0   0.0   0.0   0.1   0.4   0.9   0.6   0.9  2.54  1.02  0.50  0.00  0.00   50.36   77.73    4.00    0.00    0.57
 1987 284   100    50     1     8.2  125.0   16595  106.2   18.7   1.0   4.5   8.0  10.5  10.8   7.0   4.7   3.0   0.0   0.0   0.1   0.4   0.8   0.6   0.9  2.55  1.02  0.50  0.00  0.00   50.91   78.31    4.00    0.00    0.57
 1987 285   101    50     1     8.2  121.7   16595  102.7   19.0   0.6   3.6   7.0   9.6  10.8   7.2   4.8   3.0   0.0   0.0   0.2   0.5   0.9   0.7   0.8  2.56  1.02  0.50  0.00  0.00   51.56   78.55    4.01    0.00    0.59
 1987 286   102    50     1     9.0  116.7   16594   97.5   19.2   0.6   3.1   6.0   8.6   9.9   7.2   4.9   3.2   0.0   0.0   0.1   0.6   1.0   0.7   0.8  2.56  1.03  0.50  0.00  0.00   52.22   78.79    4.05    0.00    0.63
 1987 287   103    50     1     9.3  114.0   16593   94.7   19.3   0.7   2.9   5.5   8.2   9.4   7.1   5.0   3.2   0.0   0.0   0.1   0.6   1.0   0.7   0.8  2.55  1.03  0.49  0.00  0.00   52.88   79.14    4.07    0.00    0.64
 1987 288   104    50     1     9.3  113.3   16593   94.0   19.3   0.6   2.7   5.4   8.1   9.3   7.1   5.0   3.2   0.0   0.0   0.1   0.6   1.0   0.7   0.9  2.55  1.03  0.49  0.00  0.00   53.51   79.62    4.09    0.00    0.66
 1987 289   105    50     1     9.8  112.0   16592   92.4   19.6   0.6   2.6   5.2   7.7   9.0   7.1   5.1   3.3   0.0   0.0   0.2   0.6   1.1   0.7   0.9  2.54  1.03  0.49  0.00  0.00   54.08   79.78    4.13    0.00    0.66
 1987 290   106    50     1     9.9  108.5   16592   88.9   19.5   0.6   2.3   4.6   7.2   8.6   6.9   5.1   3.4   0.0   0.0   0.1   0.7   1.1   0.8   0.9  2.51  1.03  0.49  0.00  0.00   54.62   80.03    4.14    0.00    0.67
 1987 291   107    50     1     9.9  104.2   16591   85.2   19.1   0.7   2.0   4.0   6.8   8.1   6.7   5.1   3.4   0.0   0.0   0.1   0.6   1.1   0.7   0.8  2.45  1.03  0.49  0.00  0.00   55.16   80.50    4.15    0.00    0.67
 1987 292   108    50     1     9.9  100.5   16591   81.9   18.6   0.7   1.8   3.5   6.5   7.8   6.5   5.1   3.4   0.0   0.0   0.1   0.6   1.0   0.7   0.8  2.39  1.03  0.49  0.00  0.00   55.72   81.07    4.16    0.00    0.67
 1987 293   109    50     1     9.9   97.7   16590   79.5   18.2   0.7   1.7   3.1   6.2   7.5   6.3   5.1   3.4   0.0   0.0   0.1   0.6   1.0   0.7   0.8  2.35  1.03  0.48  0.00  0.00   56.29   81.63    4.16    0.00    0.68
 1987 294   110    50     1     9.9   93.1   16590   75.6   17.5   0.7   1.5   2.6   5.8   7.0   6.0   5.2   3.4   0.0   0.0   0.1   0.5   0.9   0.7   0.7  2.25  1.03  0.48  0.00  0.00   56.91   82.29    4.17    0.00    0.68
 1987 295   111    50     1     9.9   88.9   16589   72.0   17.0   0.7   1.3   2.2   5.4   6.6   5.7   5.2   3.4   0.0   0.0   0.1   0.5   0.8   0.6   0.7  2.15  1.03  0.48  0.00  0.00   57.56   82.96    4.17    0.00    0.68
 1987 296   112    50     1     9.9   85.0   16588   68.6   16.4   0.7   1.2   1.8   5.0   6.2   5.4   5.2   3.4   0.0   0.0   0.1   0.5   0.8   0.6   0.7  2.06  1.03  0.48  0.00  0.00   58.22   83.61    4.17    0.00    0.69
 1987 297   113    50     1     9.9   79.4   16588   63.7   15.7   0.6   0.9   1.3   4.5   5.6   5.0   5.2   3.4   0.0   0.0   0.1   0.5   0.7   0.6   0.7  1.93  1.03  0.48  0.00  0.00   58.90   84.29    4.18    0.00    0.69
 1987 298   114    50     1     9.9   74.4   16587   59.4   15.0   0.6   0.8   1.0   4.0   5.0   4.6   5.2   3.4   0.0   0.0   0.1   0.5   0.7   0.6   0.6  1.81  1.04  0.48  0.00  0.00   59.58   84.97    4.18    0.00    0.69
 1987 299   115    50     1     9.9   71.5   16586   56.9   14.6   0.6   0.7   0.9   3.7   4.7   4.3   5.2   3.4   0.0   0.0   0.1   0.5   0.7   0.6   0.6  1.73  1.04  0.47  0.00  0.00   60.25   85.60    4.18    0.00    0.69
 1987 300   116    50     1     9.9   69.1   16586   54.8   14.3   0.6   0.7   0.8   3.5   4.4   4.1   5.2   3.4   0.0   0.0   0.1   0.4   0.7   0.6   0.6  1.66  1.04  0.47  0.00  0.00   60.89   86.21    4.19    0.00    0.70
 1987 301   117    50     1     9.9   66.6   16585   52.7   14.0   0.6   0.7   0.7   3.2   4.1   3.9   5.2   3.4   0.0   0.0   0.1   0.4   0.7   0.6   0.6  1.59  1.04  0.47  0.00  0.00   61.52   86.81    4.19    0.00    0.70
 1987 302   118    50     1     9.9   60.1   16585   47.0   13.1   0.4   0.4   0.4   2.6   3.4   3.3   5.2   3.4   0.0   0.0   0.1   0.4   0.6   0.5   0.6  1.44  1.04  0.47  0.00  0.00   62.11   87.36    4.19    0.00    0.70
 1987 303   119    50     1     9.9   54.2   16584   42.0   12.3   0.2   0.4   0.4   2.0   2.6   2.8   5.2   3.4   0.0   0.0   0.1   0.4   0.6   0.5   0.6  1.27  1.04  0.47  0.00  0.00   62.67   87.89    4.20    0.00    0.70
 1987 304   120    50     1     9.9   49.8   16583   37.9   11.9   0.2   0.3   0.3   1.5   2.1   2.3   5.2   3.4   0.0   0.0   0.2   0.5   0.6   0.5   0.5  1.14  1.04  0.47  0.00  0.00   63.37   88.27    4.20    0.00    0.70
 1987 305   121    50     1     9.9   46.6   16583   35.2   11.3   0.5   0.4   0.3   1.2   1.6   1.9   5.3   3.4   0.0   0.0   0.1   0.5   0.6   0.5   0.5  1.03  1.04  0.47  0.00  0.00   64.09   88.97    4.20    0.00    0.71
 1987 306   122    50     1     9.9   43.7   16582   32.8   11.0   0.4   0.4   0.3   0.9   1.3   1.6   5.3   3.4   0.0   0.0   0.1   0.5   0.6   0.5   0.5  0.95  1.04  0.46  0.00  0.00   64.84   89.57    4.20    0.00    0.71
 1987 307   123    50     1     9.9   41.6   16581   30.9   10.7   0.4   0.4   0.3   0.7   1.0   1.3   5.3   3.5   0.0   0.0   0.1   0.5   0.6   0.5   0.5  0.88  1.04  0.46  0.00  0.00   65.61   90.23    4.20    0.00    0.71
 1987 308   124    50     1     9.9   39.8   16581   29.4   10.4   0.4   0.4   0.3   0.6   0.8   1.1   5.3   3.5   0.0   0.0   0.1   0.5   0.6   0.5   0.5  0.82  1.02  0.46  0.00  0.00   66.36   90.91    4.20    0.00    0.71
 1987 309   125    50     1     9.9   38.3   16580   28.2   10.1   0.3   0.4   0.3   0.5   0.7   0.9   5.3   3.5   0.0   0.0   0.1   0.5   0.6   0.5   0.5  0.78  1.00  0.46  0.00  0.00   67.07   91.54    4.21    0.00    0.71
 1987 310   126    50     1     9.9   37.2   16579   27.1   10.1   0.2   0.2   0.4   0.4   0.6   0.7   5.4   3.5   0.0   0.0   0.2   0.6   0.6   0.5   0.5  0.74  0.98  0.46  0.00  0.00   67.74   91.93    4.21    0.00    0.72
 1987 311   127    50     1     9.9   36.3   16579   26.1   10.2   0.2   0.3   0.3   0.4   0.5   0.6   5.3   3.5   0.0   0.0   0.3   0.7   0.7   0.5   0.5  0.71  0.95  0.46  0.00  0.00   68.40   92.24    4.21    0.00    0.72
 1987 312   128    50     1     9.9   35.1   16578   25.4    9.7   0.5   0.4   0.3   0.3   0.4   0.5   5.1   3.5   0.0   0.0   0.1   0.5   0.7   0.5   0.5  0.68  0.92  0.46  0.00  0.00   69.06   92.88    4.21    0.00    0.72
 1987 313   129    50     1     9.9   32.7   16577   23.3    9.4   0.3   0.4   0.3   0.3   0.3   0.4   4.5   3.5   0.0   0.0   0.2   0.5   0.6   0.5   0.5  0.66  0.85  0.45  0.00  0.00   69.71   93.37    4.21    0.00    0.72
 1987 314   130    50     1     9.9   30.7   16577   21.6    9.1   0.5   0.4   0.3   0.3   0.3   0.4   4.0   3.5   0.0   0.0   0.1   0.5   0.6   0.5   0.5  0.64  0.79  0.45  0.00  0.00   70.36   93.96    4.21    0.00    0.73
 1987 315   131    50     1     9.9   29.1   16576   20.2    8.9   0.4   0.4   0.3   0.3   0.3   0.3   3.5   3.5   0.0   0.0   0.1   0.5   0.6   0.5   0.5  0.63  0.74  0.45  0.00  0.00   71.01   94.49    4.21    0.00    0.73
 1987 316   132    50     1     9.9   27.7   16576   19.0    8.7   0.4   0.4   0.3   0.3   0.3   0.3   3.1   3.5   0.0   0.0   0.1   0.5   0.6   0.5   0.5  0.62  0.70  0.45  0.00  0.00   71.68   95.04    4.21    0.00    0.73
 1987 317   133    50     1     9.9   26.7   16575   18.1    8.6   0.4   0.4   0.3   0.3   0.3   0.3   2.7   3.5   0.0   0.0   0.1   0.5   0.6   0.5   0.5  0.61  0.66  0.45  0.00  0.00   72.35   95.60    4.21    0.00    0.73
 1987 318   134    50     1     9.9   25.8   16574   17.3    8.5   0.1   0.2   0.3   0.3   0.3   0.3   2.4   3.5   0.0   0.0   0.1   0.5   0.6   0.5   0.5  0.60  0.63  0.45  0.00  0.00   73.04   96.17    4.21    0.00    0.74
 1987 319   135    50     1    10.3   24.8   16574   15.9    8.9   0.1   0.3   0.3   0.2   0.3   0.3   2.0   3.5   0.0   0.0   0.2   0.6   0.7   0.5   0.5  0.60  0.60  0.44  0.00  0.00   73.80   96.34    4.21    0.00    0.74
 1987 320   136    50     1    10.3   24.5   16573   15.4    9.1   0.2   0.3   0.3   0.3   0.3   0.3   1.8   3.5   0.0   0.0   0.3   0.7   0.7   0.6   0.5  0.61  0.58  0.43  0.00  0.00   74.60   96.59    4.21    0.00    0.74
 1987 321   137    50     1    10.7   23.9   16572   14.6    9.3   0.3   0.3   0.3   0.3   0.3   0.3   1.5   3.4   0.0   0.0   0.4   0.7   0.8   0.6   0.6  0.61  0.56  0.42  0.00  0.00   75.39   96.82    4.21    0.00    0.74
 1987 322   138    50     1    10.7   23.7   16571   14.7    9.0   0.8   0.3   0.3   0.3   0.3   0.3   1.3   3.4   0.0   0.0   0.0   0.7   0.8   0.6   0.5  0.60  0.55  0.41  0.00  0.00   76.19   97.43    4.21    0.00    0.75
 1987 323   139    50     1    12.9   20.8   16571   12.1    8.7   0.0   0.3   0.3   0.3   0.3   0.3   0.9   2.9   0.0   0.0   0.2   0.5   0.7   0.6   0.5  0.60  0.54  0.40  0.00  0.00   76.99   97.99    4.21    0.00    0.75
 1987 324   140    50     1    14.0   19.7   16570   10.5    9.1   0.0   0.3   0.3   0.2   0.2   0.2   0.7   2.6   0.0   0.0   0.3   0.6   0.8   0.6   0.6  0.61  0.54  0.40  0.00  0.00   77.74   98.10    4.22    0.00    0.75
 1987 325   141    50     1    14.2   19.5   16569   10.3    9.3   0.1   0.3   0.3   0.3   0.3   0.2   0.6   2.5   0.0   0.0   0.4   0.7   0.8   0.6   0.6  0.61  0.54  0.40  0.00  0.00   78.48   98.26    4.22    0.00    0.75
 1987 326   142    50     1    14.7   19.1   16569    9.7    9.4   0.2   0.3   0.3   0.3   0.3   0.2   0.5   2.4   0.0   0.0   0.4   0.7   0.8   0.6   0.6  0.61  0.54  0.40  0.00  0.00   79.20   98.43    4.22    0.00    0.75
 1987 327   143    50     1    14.8   18.7   16568    9.7    9.0   0.6   0.3   0.3   0.3   0.3   0.3   0.5   2.3   0.0   0.0   0.1   0.7   0.7   0.6   0.6  0.60  0.53  0.40  0.00  0.00   79.89   98.92    4.22    0.00    0.75
 1987 328   144    50     1    14.8   17.9   16568    9.1    8.8   0.4   0.3   0.3   0.3   0.3   0.3   0.4   2.1   0.0   0.0   0.1   0.7   0.7   0.6   0.6  0.60  0.52  0.40  0.00  0.00   80.55   99.27    4.22    0.00    0.75
 1987 329   145    50     1    14.8   17.4   16567    9.0    8.4   0.4   0.4   0.3   0.3   0.3   0.3   0.4   2.0   0.0   0.0   0.1   0.5   0.6   0.6   0.5  0.59  0.51  0.40  0.00  0.00   81.21   99.83    4.23    0.00    0.75
 1987 330   146    50     1    14.8   16.9   16566    8.5    8.3   0.3   0.4   0.3   0.3   0.3   0.3   0.4   1.9   0.0   0.0   0.2   0.5   0.6   0.6   0.5  0.59  0.51  0.40  0.00  0.00   81.88  100.30    4.23    0.00    0.76
 1987 331   147    50     1    14.8   16.5   16566    8.3    8.2   0.5   0.4   0.3   0.3   0.3   0.3   0.3   1.8   0.0   0.0   0.1   0.5   0.6   0.5   0.5  0.59  0.50  0.40  0.00  0.00   82.57  100.89    4.23    0.00    0.76
 1987 332   148    50     1    14.8   16.3   16565    8.0    8.2   0.4   0.4   0.3   0.3   0.3   0.3   0.3   1.7   0.0   0.0   0.1   0.5   0.6   0.5   0.5  0.59  0.50  0.40  0.00  0.00   83.28  101.42    4.23    0.00    0.76
 1987 333   149    50     1    14.8   16.5   16564    8.2    8.3   0.5   0.5   0.3   0.3   0.3   0.3   0.3   1.7   0.0   0.0   0.1   0.5   0.7   0.5   0.5  0.60  0.49  0.39  0.00  0.00   84.03  102.03    4.23    0.00    0.76
 1987 334   150    50     1    14.8   16.0   16564    7.8    8.2   0.4   0.4   0.3   0.3   0.3   0.3   0.3   1.6   0.0   0.0   0.1   0.5   0.6   0.5   0.5  0.60  0.49  0.38  0.00  0.00   84.83  102.68    4.23    0.00    0.77
 1987 335   151    50     1    14.8   15.7   16563    7.6    8.1   0.4   0.4   0.3   0.3   0.3   0.3   0.3   1.5   0.0   0.0   0.1   0.5   0.6   0.5   0.5  0.60  0.48  0.37  0.00  0.00   85.68  103.38    4.23    0.00    0.77
 1987 336   152    50     1    14.8   15.5   16562    7.4    8.0   0.5   0.5   0.3   0.3   0.3   0.3   0.3   1.4   0.0   0.0   0.1   0.5   0.6   0.5   0.5  0.60  0.48  0.36  0.00  0.00   86.58  104.14    4.23    0.00    0.77
 1987 337   153    50     1    14.8   15.2   16561    7.3    8.0   0.4   0.5   0.3   0.3   0.3   0.3   0.3   1.3   0.0   0.0   0.1   0.5   0.6   0.5   0.5  0.59  0.47  0.35  0.00  0.00   87.51  104.92    4.23    0.00    0.77
 1987 338   154    50     1    14.8   15.0   16560    7.1    7.9   0.1   0.3   0.3   0.3   0.3   0.3   0.3   1.3   0.0   0.0   0.1   0.4   0.6   0.5   0.5  0.59  0.47  0.35  0.00  0.00   88.40  105.65    4.23    0.00    0.78
 1987 339   155    50     1    14.8   14.9   16560    6.5    8.5   0.1   0.3   0.3   0.3   0.3   0.3   0.3   1.2   0.0   0.0   0.2   0.6   0.7   0.6   0.5  0.60  0.47  0.34  0.00  0.00   89.22  105.80    4.23    0.00    0.78
 1987 340   156    50     1    15.1   14.7   16559    5.8    8.9   0.2   0.3   0.3   0.3   0.2   0.2   0.2   1.0   0.0   0.0   0.3   0.7   0.8   0.6   0.6  0.61  0.48  0.33  0.00  0.00   90.04  105.96    4.23    0.00    0.78
 1987 341   157    50     1    15.2   14.7   16558    6.0    8.7   0.6   0.3   0.3   0.3   0.3   0.2   0.3   1.0   0.0   0.0   0.1   0.7   0.8   0.6   0.6  0.61  0.47  0.33  0.00  0.00   90.82  106.38    4.23    0.00    0.78
 1987 342   158    50     1    15.2   14.5   16558    5.9    8.6   0.3   0.5   0.3   0.3   0.3   0.3   0.3   0.9   0.0   0.0   0.1   0.5   0.7   0.6   0.6  0.61  0.47  0.32  0.00  0.00   91.57  106.77    4.23    0.00    0.78
 1987 343   159    50     1    15.2   14.3   16557    5.6    8.7   0.3   0.3   0.3   0.3   0.3   0.3   0.3   0.9   0.0   0.0   0.2   0.6   0.7   0.6   0.6  0.61  0.47  0.31  0.00  0.00   92.31  106.98    4.23    0.00    0.79
 1987 344   160    50     1    15.2   14.3   16556    5.9    8.4   0.6   0.3   0.3   0.3   0.3   0.3   0.3   0.8   0.0   0.0   0.1   0.7   0.6   0.6   0.6  0.61  0.47  0.31  0.00  0.00   93.09  107.58    4.23    0.00    0.79
 1987 345   161    50     1    15.2   14.0   16556    5.9    8.1   0.4   0.4   0.3   0.3   0.3   0.3   0.3   0.8   0.0   0.0   0.1   0.5   0.6   0.6   0.6  0.60  0.47  0.30  0.00  0.00   93.90  108.24    4.23    0.00    0.79
 1987 346   162    50     1    15.2   13.7   16555    5.7    8.0   0.4   0.4   0.3   0.3   0.3   0.3   0.3   0.7   0.0   0.0   0.1   0.5   0.6   0.6   0.6  0.60  0.47  0.30  0.00  0.00   94.70  108.87    4.23    0.00    0.79
 1987 347   163    50     1    15.2   13.6   16554    5.6    8.0   0.4   0.4   0.3   0.3   0.3   0.3   0.3   0.7   0.0   0.0   0.1   0.5   0.6   0.6   0.5  0.60  0.46  0.29  0.00  0.00   95.51  109.49    4.23    0.00    0.80
 1987 348   164    50     1    15.2   13.5   16554    5.6    7.9   0.4   0.4   0.3   0.3   0.3   0.3   0.3   0.7   0.0   0.0   0.1   0.5   0.6   0.5   0.5  0.60  0.46  0.29  0.00  0.00   96.34  110.11    4.23    0.00    0.80
 1987 349   165    50     1    15.2   13.4   16553    5.5    7.9   0.4   0.4   0.3   0.3   0.3   0.3   0.3   0.6   0.0   0.0   0.1   0.5   0.6   0.5   0.5  0.60  0.46  0.28  0.00  0.00   97.16  110.74    4.23    0.00    0.80
 1987 350   166    50     1    15.2   13.3   16552    5.4    7.9   0.1   0.3   0.3   0.3   0.3   0.3   0.3   0.6   0.0   0.0   0.1   0.5   0.6   0.5   0.5  0.60  0.46  0.28  0.00  0.00   97.99  111.37    4.23    0.00    0.81
 1987 351   167    50     1    15.2   13.3   16552    4.9    8.4   0.1   0.3   0.3   0.3   0.3   0.3   0.3   0.6   0.0   0.0   0.2   0.6   0.7   0.6   0.6  0.61  0.46  0.27  0.00  0.00   98.79  111.51    4.23    0.00    0.81
 1987 352   168    50     1    15.2   13.5   16551    4.7    8.7   0.2   0.3   0.3   0.3   0.3   0.2   0.3   0.5   0.0   0.0   0.3   0.7   0.7   0.6   0.6  0.61  0.47  0.27  0.00  0.00   99.62  111.68    4.23    0.00    0.81
 1987 353   169    50     1    15.3   13.6   16550    5.0    8.6   0.7   0.3   0.3   0.3   0.3   0.2   0.3   0.5   0.0   0.0   0.1   0.7   0.7   0.6   0.6  0.62  0.47  0.26  0.00  0.00  100.44  112.12    4.23    0.00    0.81
 1987 354   170    50     1    15.3   13.4   16550    5.1    8.3   0.3   0.5   0.3   0.3   0.3   0.3   0.3   0.5   0.0   0.0   0.1   0.5   0.7   0.6   0.6  0.61  0.47  0.26  0.00  0.00  101.27  112.67    4.23    0.00    0.82
 1987 355   171    50     1    15.3   13.2   16549    5.1    8.1   0.4   0.4   0.3   0.3   0.3   0.3   0.3   0.5   0.0   0.0   0.1   0.5   0.6   0.6   0.6  0.61  0.47  0.26  0.00  0.00  102.06  113.30    4.23    0.00    0.82
 1987 356   172    50     1    15.3   13.0   16548    5.0    8.0   0.4   0.4   0.3   0.3   0.3   0.3   0.3   0.4   0.0   0.0   0.1   0.5   0.6   0.6   0.6  0.61  0.47  0.25  0.00  0.00  102.85  113.90    4.23    0.00    0.82
 1987 357   173    50     1    15.3   12.9   16548    5.0    8.0   0.4   0.4   0.3   0.3   0.3   0.3   0.3   0.4   0.0   0.0   0.1   0.5   0.6   0.6   0.6  0.61  0.47  0.25  0.00  0.00  103.64  114.48    4.23    0.00    0.82
 1987 358   174    50     1    15.3   12.8   16547    4.9    7.9   0.4   0.4   0.3   0.3   0.3   0.3   0.3   0.4   0.0   0.0   0.1   0.5   0.6   0.6   0.6  0.61  0.47  0.25  0.00  0.00  104.44  115.07    4.23    0.00    0.83
 1987 359   175    50     1    15.3   12.8   16546    4.9    7.9   0.4   0.4   0.3   0.3   0.3   0.3   0.3   0.4   0.0   0.0   0.1   0.5   0.6   0.6   0.5  0.61  0.47  0.24  0.00  0.00  105.24  115.67    4.23    0.00    0.83
 1987 360   176    50     1    15.3   12.7   16546    4.8    7.8   0.4   0.4   0.3   0.3   0.3   0.3   0.3   0.4   0.0   0.0   0.1   0.5   0.6   0.5   0.5  0.60  0.47  0.24  0.00  0.00  106.04  116.26    4.23    0.00    0.83
 1987 361   177    50     1    15.3   12.6   16545    4.8    7.8   0.2   0.3   0.4   0.3   0.3   0.3   0.3   0.4   0.0   0.0   0.1   0.5   0.6   0.5   0.5  0.60  0.47  0.24  0.00  0.00  106.85  116.86    4.23    0.00    0.83
 1987 362   178    50     1    15.3   12.7   16544    4.4    8.3   0.2   0.3   0.3   0.3   0.3   0.3   0.3   0.3   0.0   0.0   0.3   0.6   0.7   0.6   0.6  0.60  0.47  0.23  0.00  0.00  107.69  117.04    4.23    0.00    0.84
 1987 363   179    50     1    15.3   12.9   16544    4.6    8.4   0.5   0.3   0.3   0.3   0.3   0.3   0.3   0.3   0.0   0.0   0.1   0.7   0.7   0.6   0.6  0.60  0.47  0.23  0.00  0.00  108.56  117.50    4.23    0.00    0.84
 1987 364   180    50     1    15.3   13.1   16543    4.4    8.7   0.3   0.3   0.3   0.3   0.3   0.3   0.3   0.3   0.0   0.0   0.2   0.8   0.8   0.6   0.6  0.60  0.47  0.23  0.00  0.00  109.40  117.69    4.23    0.00    0.84
 1987 365   181    50     1    15.3   13.2   16542    4.3    8.9   0.1   0.2   0.3   0.2   0.3   0.3   0.3   0.3   0.0   0.0   0.3   0.8   0.8   0.6   0.6  0.61  0.47  0.23  0.00  0.00  110.25  117.90    4.23    0.00    0.84
 1988 001   182    50     1    15.3   13.4   16542    4.2    9.2   0.2   0.3   0.3   0.2   0.3   0.2   0.3   0.3   0.0   0.0   0.4   0.8   0.9   0.7   0.6  0.62  0.47  0.22  0.00  0.00  111.11  118.11    4.24    0.00    0.85
 1988 002   183    50     1    15.3   13.5   16541    4.5    8.9   0.8   0.3   0.3   0.3   0.3   0.2   0.3   0.3   0.0   0.0   0.0   0.8   0.8   0.7   0.6  0.62  0.47  0.22  0.00  0.00  112.00  118.62    4.24    0.00    0.85
 1988 003   184    50     1    15.3   13.1   16540    4.5    8.6   0.3   0.5   0.3   0.3   0.3   0.3   0.3   0.3   0.0   0.0   0.2   0.5   0.8   0.7   0.6  0.62  0.47  0.22  0.00  0.00  112.89  119.10    4.24    0.00    0.85
 1988 004   185    50     1    15.3   13.1   16539    4.9    8.2   0.5   0.4   0.4   0.3   0.3   0.3   0.3   0.3   0.0   0.0   0.1   0.5   0.7   0.6   0.6  0.62  0.47  0.22  0.00  0.00  113.83  119.93    4.24    0.00    0.85
 1988 005   186    50     1    15.3   12.8   16539    4.8    8.1   0.2   0.5   0.4   0.3   0.3   0.3   0.3   0.3   0.0   0.0   0.1   0.5   0.6   0.6   0.6  0.62  0.47  0.22  0.00  0.00  114.82  120.68    4.24    0.00    0.86
 1988 006   187    50     1    15.3   12.8   16538    4.2    8.6   0.2   0.3   0.3   0.3   0.3   0.3   0.3   0.3   0.0   0.0   0.3   0.6   0.7   0.6   0.6  0.62  0.48  0.22  0.00  0.00  115.79  120.89    4.24    0.00    0.86
 1988 007   188    50     1    15.3   13.1   16537    4.4    8.7   0.6   0.3   0.3   0.3   0.3   0.3   0.3   0.3   0.0   0.0   0.0   0.7   0.8   0.6   0.6  0.62  0.48  0.22  0.00  0.00  116.73  121.35    4.24    0.00    0.86
 1988 008   189    50     1    15.3   13.0   16536    4.3    8.7   0.3   0.3   0.3   0.3   0.3   0.3   0.3   0.3   0.0   0.0   0.2   0.7   0.8   0.6   0.6  0.62  0.48  0.21  0.00  0.00  117.67  121.66    4.24    0.00    0.86
 1988 009   190    50     1    15.3   13.0   16536    4.9    8.1   0.5   0.5   0.4   0.3   0.3   0.3   0.3   0.3   0.0   0.0   0.1   0.5   0.7   0.6   0.6  0.62  0.48  0.21  0.00  0.00  118.60  122.55    4.24    0.00    0.86
 1988 010   191    50     1    15.3   13.9   16535    5.5    8.4   0.7   0.7   0.4   0.4   0.3   0.3   0.3   0.3   0.0   0.0   0.1   0.5   0.7   0.6   0.6  0.64  0.48  0.21  0.00  0.00  119.50  123.20    4.24    0.00    0.87
 1988 011   192    50     1    15.3   14.8   16534    6.3    8.6   0.9   0.8   0.5   0.4   0.4   0.3   0.3   0.3   0.0   0.0   0.1   0.5   0.8   0.6   0.6  0.66  0.48  0.21  0.00  0.00  120.43  123.95    4.24    0.00    0.87

*DSSAT Cropping System Model Ver. 4.0.2.000               Aug 03, 2016; 15:09:39

*RUN   2        : UYMZ                    
 MODEL          : MZCER040 - Maize           
 EXPERIMENT     : UYMZ0126 MZ    late to create DSS                             
 TREATMENT  1   : UYMZ                    

@YEAR DOY   DAS  NAPC  NI#M    NLCC   NIAD    NOAD   NITD   NHTD  NI1D  NI2D  NI3D  NI4D  NI5D  NI6D  NI7D  NI8D  NI9D  NI10  NH1D  NH2D  NH3D  NH4D  NH5D  NH6D  NH7D  NH8D  NH9D  NH10    NMNC    NITC    NDNC    NIMC    AMLC
 1988 184     0     0     0     0.0   99.5   16645   77.3   22.2  16.6  15.4  15.2   8.6   4.6   0.0   0.1   0.1   0.0   0.0   0.0   1.2   1.4   1.4   1.4  1.50  1.46  1.45  0.00  0.00    0.76    2.51    0.00    0.00    0.00
 1988 185     1     0     0     0.0  100.3   16645   78.7   21.5  16.6  15.8  15.4   8.8   4.7   0.1   0.1   0.1   0.0   0.0   0.1   1.0   1.4   1.3   1.4  1.51  1.42  1.40  0.00  0.00    1.51    3.93    0.00    0.00    0.00
 1988 186     2     0     0     0.0  101.0   16644   80.0   20.9   4.5  10.7  17.8  13.3   5.0   0.1   0.2   0.2   0.0   0.0   0.1   0.9   1.4   1.3   1.3  1.51  1.39  1.36  0.00  0.00    2.20    5.23    0.00    0.00    0.00
 1988 187     3     0     0     0.0  101.6   16643   80.6   20.9   2.8   8.8  16.1  13.3   7.7   0.4   0.2   0.2   0.0   0.0   0.1   1.0   1.5   1.3   1.3  1.51  1.35  1.31  0.00  0.00    2.82    5.82    0.00    0.00    0.00
 1988 188     4     0     0     0.1  102.1   16643   80.8   21.3   2.9   8.6  15.8  13.0   7.7   0.7   0.3   0.2   0.0   0.0   0.1   1.0   1.5   1.3   1.3  1.53  1.35  1.30  0.00  0.00    3.35    6.05    0.00    0.00    0.00
 1988 189     5     0     0     0.1  102.5   16642   81.0   21.5   2.9   8.6  15.6  12.7   7.8   0.8   0.3   0.3   0.0   0.0   0.1   1.1   1.6   1.3   1.3  1.54  1.35  1.29  0.00  0.00    3.80    6.29    0.00    0.00    0.00
 1988 190     6     0     0     0.1  102.8   16642   81.2   21.6   3.1   8.5  15.5  12.6   7.8   0.9   0.3   0.3   0.0   0.0   0.1   1.1   1.6   1.3   1.3  1.56  1.35  1.28  0.00  0.00    4.17    6.52    0.00    0.00    0.00
 1988 191     7     0     0     0.1  103.1   16642   81.5   21.6   3.3   8.6  15.5  12.6   7.8   1.0   0.3   0.3   0.0   0.0   0.1   1.0   1.7   1.4   1.3  1.57  1.34  1.27  0.00  0.00    4.54    6.86    0.04    0.00    0.00
 1988 192     8     0     0     0.1  103.5   16641   81.9   21.5   3.6   8.6  15.6  12.5   7.8   1.0   0.4   0.3   0.0   0.0   0.1   0.9   1.6   1.4   1.3  1.58  1.34  1.26  0.00  0.00    4.89    7.31    0.06    0.00    0.00
 1988 193     9     0     0     0.1  103.8   16641   82.3   21.5   3.9   8.6  15.7  12.5   7.8   1.0   0.4   0.3   0.0   0.0   0.1   0.9   1.6   1.4   1.3  1.60  1.34  1.25  0.00  0.00    5.23    7.73    0.07    0.00    0.00
 1988 194    10     0     0     0.1  104.1   16640   82.7   21.4   4.1   8.6  15.7  12.6   7.8   1.0   0.4   0.3   0.0   0.0   0.1   0.8   1.6   1.4   1.3  1.61  1.34  1.24  0.00  0.00    5.57    8.14    0.08    0.00    0.00
 1988 195    11     0     0     0.1  104.5   16640   83.1   21.3   4.3   8.7  15.8  12.6   7.8   1.0   0.4   0.3   0.0   0.0   0.1   0.8   1.5   1.4   1.3  1.62  1.34  1.23  0.00  0.00    5.90    8.53    0.09    0.00    0.00
 1988 196    12     0     0     0.1  104.8   16640   83.6   21.2   4.5   8.7  15.8  12.6   7.9   1.0   0.4   0.4   0.0   0.0   0.1   0.7   1.5   1.3   1.4  1.63  1.33  1.22  0.00  0.00    6.21    8.99    0.09    0.00    0.00
 1988 197    13     0     0     0.1  105.1   16639   84.0   21.1   4.7   8.7  15.9  12.7   7.9   1.0   0.4   0.4   0.0   0.0   0.1   0.7   1.5   1.3   1.4  1.65  1.33  1.20  0.00  0.00    6.55    9.45    0.10    0.00    0.00
 1988 198    14     0     0     0.1  105.5   16639   84.5   20.9   4.9   8.8  15.9  12.8   7.9   1.0   0.4   0.4   0.0   0.0   0.1   0.7   1.4   1.3   1.4  1.66  1.33  1.19  0.00  0.00    6.93    9.94    0.10    0.00    0.00
 1988 199    15     0     0     0.1  105.9   16639   85.1   20.9   5.1   8.9  16.0  12.8   7.9   1.0   0.4   0.4   0.0   0.0   0.1   0.6   1.4   1.2   1.4  1.67  1.33  1.18  0.00  0.00    7.37   10.47    0.11    0.00    0.00
 1988 200    16     0     0     0.1  106.4   16638   85.6   20.8   5.4   8.9  16.1  12.9   7.9   1.0   0.5   0.4   0.0   0.0   0.1   0.6   1.4   1.2   1.4  1.69  1.33  1.17  0.00  0.00    7.87   11.05    0.12    0.00    0.00
 1988 201    17     0     0     0.1  106.9   16638   86.3   20.7   5.6   9.0  16.1  12.9   8.0   1.1   0.5   0.4   0.0   0.0   0.1   0.6   1.4   1.1   1.4  1.70  1.32  1.16  0.00  0.00    8.42   11.69    0.12    0.00    0.00
 1988 202    18     0     0     0.1  107.5   16637   86.9   20.6   5.8   9.1  16.2  13.0   8.0   1.1   0.5   0.4   0.0   0.0   0.1   0.6   1.4   1.1   1.4  1.72  1.32  1.15  0.00  0.00    9.01   12.36    0.12    0.00    0.00
 1988 203    19     0     0     0.1  108.1   16636   87.6   20.5   6.0   9.2  16.3  13.1   8.0   1.1   0.5   0.5   0.0   0.0   0.1   0.6   1.3   1.1   1.4  1.73  1.32  1.14  0.00  0.00    9.59   13.01    0.13    0.00    0.00
 1988 204    20     0     0     0.1  108.7   16636   88.2   20.5   6.3   9.3  16.4  13.1   8.0   1.1   0.5   0.5   0.0   0.0   0.1   0.6   1.3   1.0   1.4  1.75  1.32  1.13  0.00  0.00   10.16   13.63    0.13    0.00    0.00
 1988 205    21     0     0     0.1  109.2   16635   88.9   20.3   6.2   9.5  16.5  13.2   8.1   1.1   0.5   0.5   0.0   0.0   0.1   0.5   1.3   1.0   1.4  1.76  1.31  1.12  0.00  0.00   10.68   14.30    0.13    0.00    0.00
 1988 206    22     0     0     0.1  109.6   16635   89.4   20.2   6.1   9.7  16.6  13.2   8.2   1.1   0.5   0.5   0.0   0.0   0.1   0.5   1.3   1.0   1.3  1.78  1.31  1.11  0.00  0.00   11.13   14.88    0.13    0.00    0.00
 1988 207    23     0     0     0.1  110.0   16635   90.0   20.1   6.2   9.8  16.6  13.3   8.2   1.1   0.6   0.5   0.0   0.0   0.1   0.5   1.3   1.0   1.3  1.79  1.31  1.10  0.00  0.00   11.52   15.40    0.14    0.00    0.00
 1988 208    24     0     0     0.1  110.4   16634   90.4   19.9   6.3   9.9  16.7  13.3   8.3   1.1   0.6   0.5   0.0   0.0   0.1   0.5   1.3   0.9   1.3  1.80  1.31  1.10  0.00  0.00   11.89   15.90    0.14    0.00    0.00
 1988 209    25     0     0     0.1  110.8   16634   91.0   19.8   6.4  10.0  16.8  13.3   8.3   1.1   0.6   0.5   0.0   0.0   0.1   0.5   1.3   0.9   1.2  1.81  1.31  1.09  0.00  0.00   12.30   16.42    0.14    0.00    0.00
 1988 210    26     0     0     0.1  111.2   16633   91.5   19.7   6.5  10.1  16.8  13.4   8.4   1.1   0.6   0.6   0.0   0.0   0.1   0.5   1.2   0.9   1.2  1.83  1.31  1.08  0.00  0.00   12.74   16.95    0.14    0.00    0.00
 1988 211    27     0     0     0.1  111.5   16633   91.9   19.7   6.5  10.0  16.9  13.4   8.5   1.1   0.6   0.6   0.0   0.0   0.1   0.5   1.2   0.9   1.2  1.84  1.30  1.07  0.00  0.00   13.22   17.51    0.14    0.00    0.00
 1988 212    28     0     0     0.1  112.1   16632   92.5   19.6   6.7  10.1  17.0  13.5   8.5   1.1   0.6   0.6   0.0   0.0   0.1   0.5   1.2   0.9   1.1  1.85  1.30  1.06  0.00  0.00   13.77   18.14    0.15    0.00    0.00
 1988 213    29     0     0     0.1  112.7   16632   93.2   19.5   6.9  10.2  17.1  13.5   8.6   1.1   0.6   0.6   0.0   0.0   0.1   0.5   1.2   0.8   1.1  1.87  1.30  1.05  0.00  0.00   14.39   18.85    0.15    0.00    0.00
 1988 214    30     0     0     0.1  113.3   16631   93.9   19.4   3.9   9.4  17.8  14.3   8.9   1.1   0.6   0.6   0.0   0.0   0.1   0.5   1.2   0.8   1.1  1.88  1.30  1.04  0.00  0.00   15.00   19.53    0.15    0.00    0.00
 1988 215    31     0     0     1.6  112.4   16630   92.6   19.8   1.2   4.9  12.1  11.8  10.7   4.3   1.9   0.7   0.0   0.0   0.2   0.6   1.3   0.8   1.1  1.90  1.30  1.03  0.00  0.00   15.59   19.73    0.15    0.00    0.00
 1988 216    32     0     0     2.1  112.4   16630   92.1   20.3   0.8   4.1  10.9  10.9  10.6   4.9   2.4   1.0   0.0   0.0   0.3   0.7   1.4   0.9   1.1  1.92  1.30  1.03  0.00  0.00   16.16   19.86    0.23    0.00    0.00
 1988 217    33     0     0     2.3  112.6   16629   92.0   20.6   0.8   3.9  10.7  10.8  10.6   4.9   2.5   1.1   0.0   0.0   0.3   0.7   1.4   0.9   1.1  1.93  1.30  1.03  0.00  0.00   16.66   19.99    0.32    0.00    0.00
 1988 218    34     0     0     2.8  112.5   16629   91.5   20.9   0.8   3.9  10.4  10.4  10.3   5.0   2.7   1.3   0.0   0.0   0.3   0.8   1.5   0.9   1.1  1.95  1.31  1.03  0.00  0.00   17.10   20.12    0.40    0.00    0.00
 1988 219    35     0     0     3.2  112.3   16629   91.2   21.1   1.0   3.8  10.3  10.2  10.1   5.1   2.8   1.4   0.0   0.0   0.2   0.8   1.6   0.9   1.1  1.96  1.31  1.02  0.00  0.00   17.51   20.36    0.63    0.00    0.00
 1988 220    36     0     0     3.4  112.4   16628   91.2   21.2   1.2   3.9  10.2  10.1  10.0   5.1   2.8   1.4   0.0   0.0   0.2   0.8   1.6   1.0   1.2  1.97  1.31  1.02  0.00  0.00   17.95   20.70    0.75    0.00    0.00
 1988 221    37     0     0     3.5  112.7   16628   91.4   21.3   1.4   4.0  10.2  10.0  10.0   5.1   2.9   1.5   0.0   0.0   0.1   0.7   1.7   1.0   1.2  1.99  1.31  1.01  0.00  0.00   18.41   21.06    0.81    0.00    0.00
 1988 222    38     0     0     3.6  113.1   16627   91.8   21.3   1.5   4.0  10.3  10.0  10.0   5.1   2.9   1.5   0.0   0.0   0.1   0.7   1.6   1.0   1.2  2.00  1.31  1.00  0.00  0.00   18.91   21.59    0.84    0.00    0.00
 1988 223    39     0     0     3.6  113.5   16627   92.3   21.3   1.7   4.1  10.4  10.0  10.0   5.1   2.9   1.5   0.0   0.0   0.1   0.7   1.6   1.0   1.2  2.01  1.31  0.99  0.00  0.00   19.39   22.09    0.86    0.00    0.00
 1988 224    40     0     0     3.6  113.9   16626   92.7   21.2   1.8   4.2  10.5  10.0  10.0   5.1   2.9   1.5   0.0   0.0   0.1   0.6   1.5   1.0   1.2  2.02  1.30  0.99  0.00  0.00   19.84   22.55    0.88    0.00    0.00
 1988 225    41     0     0     3.6  114.3   16626   93.2   21.2   2.0   4.3  10.6  10.1  10.0   5.1   2.9   1.5   0.0   0.0   0.1   0.6   1.5   1.0   1.2  2.04  1.30  0.98  0.00  0.00   20.28   23.07    0.89    0.00    0.00
 1988 226    42     0     0     3.6  114.8   16625   93.7   21.1   2.2   4.3  10.7  10.1  10.0   5.1   2.9   1.5   0.0   0.0   0.1   0.6   1.5   1.0   1.2  2.05  1.30  0.97  0.00  0.00   20.73   23.59    0.91    0.00    0.00
 1988 227    43     0     0     3.6  115.2   16625   94.2   21.0   2.3   4.4  10.7  10.2  10.0   5.1   2.9   1.5   0.0   0.0   0.1   0.6   1.5   0.9   1.2  2.06  1.30  0.96  0.00  0.00   21.18   24.09    0.92    0.00    0.00
 1988 228    44     0     0     3.6  115.7   16624   94.7   21.0   2.5   4.5  10.8  10.2  10.0   5.1   3.0   1.5   0.0   0.0   0.1   0.6   1.4   0.9   1.2  2.07  1.30  0.96  0.00  0.00   21.68   24.64    0.94    0.00    0.00
 1988 229    45     0     0     3.6  116.2   16624   95.3   20.9   2.6   4.6  10.9  10.3  10.1   5.2   3.0   1.6   0.0   0.0   0.1   0.6   1.4   0.9   1.2  2.09  1.30  0.95  0.00  0.00   22.22   25.22    0.95    0.00    0.00
 1988 230    46     0     0     3.6  116.6   16623   95.7   20.9   2.8   4.6  11.0  10.3  10.1   5.2   3.0   1.6   0.0   0.0   0.1   0.5   1.4   0.9   1.3  2.10  1.29  0.94  0.00  0.00   22.77   25.81    0.97    0.00    0.00
 1988 231    47     0     0     3.6  116.9   16623   96.1   20.9   2.9   4.7  11.0  10.4  10.1   5.2   3.0   1.6   0.0   0.0   0.1   0.5   1.4   0.9   1.3  2.11  1.29  0.93  0.00  0.00   23.32   26.39    0.98    0.00    0.00
 1988 232    48     0     0     3.6  117.4   16622   96.5   20.8   3.1   4.8  11.0  10.4  10.1   5.2   3.0   1.6   0.0   0.0   0.1   0.5   1.3   0.8   1.3  2.13  1.29  0.93  0.00  0.00   23.90   26.99    0.99    0.00    0.00
 1988 233    49     0     0     3.6  117.7   16622   96.9   20.8   2.1   4.8  11.4  10.6  10.1   5.2   3.0   1.6   0.0   0.0   0.1   0.5   1.3   0.8   1.3  2.14  1.29  0.92  0.00  0.00   24.49   27.60    1.00    0.00    0.00
 1988 234    50     0     0     3.6  117.8   16621   96.7   21.0   2.1   4.7  11.0  10.7  10.2   5.2   3.0   1.6   0.0   0.0   0.1   0.6   1.4   0.8   1.3  2.15  1.29  0.91  0.00  0.00   25.08   27.95    1.01    0.00    0.00
 1988 235    51     0     0     3.6  117.9   16620   96.7   21.2   2.2   4.6  10.8  10.7  10.2   5.2   3.1   1.6   0.0   0.0   0.1   0.7   1.4   0.8   1.3  2.17  1.29  0.91  0.00  0.00   25.68   28.36    1.03    0.00    0.00
 1988 236    52     0     0     3.6  118.1   16620   96.9   21.2   2.4   4.6  10.8  10.7  10.3   5.2   3.1   1.6   0.0   0.0   0.1   0.6   1.4   0.9   1.3  2.18  1.28  0.90  0.00  0.00   26.31   28.97    1.04    0.00    0.00
 1988 237    53    50     1     3.6  168.3   16619  122.3   46.0  47.8   4.7  10.8  10.7  10.3   5.2   3.1   1.7   0.0   0.0  44.9   0.6   1.4   0.9   1.3  2.20  1.28  0.89  0.00  0.00   26.95   29.61    1.05    0.00    0.09
 1988 238    54    50     1     3.6  168.1   16618  146.9   21.2  91.3   4.7  10.8  10.8  10.4   5.2   3.1   1.7   0.0   0.0   0.5   0.6   1.3   0.9   1.2  2.21  1.28  0.88  0.00  0.00   27.60   54.72    1.06    0.00    0.15
 1988 239    55    50     1     3.6  167.8   16618  147.0   20.8  90.8   4.8  10.8  10.8  10.4   5.2   3.1   1.7   0.0   0.0   0.1   0.6   1.3   0.8   1.2  2.22  1.28  0.88  0.00  0.00   28.23   55.67    1.07    0.00    0.19
 1988 240    56    50     1     3.6  167.8   16617  147.1   20.7  90.4   4.9  10.8  10.9  10.5   5.2   3.1   1.7   0.0   0.0   0.0   0.5   1.3   0.8   1.2  2.24  1.28  0.87  0.00  0.00   28.82   56.34    1.08    0.00    0.23
 1988 241    57    50     1     3.6  168.4   16617  147.7   20.6  90.5   5.0  10.9  10.9  10.6   5.2   3.1   1.7   0.0   0.0   0.1   0.5   1.3   0.8   1.1  2.25  1.28  0.86  0.00  0.00   29.37   56.95    1.09    0.00    0.24
 1988 242    58    50     1     3.6  168.8   16616  148.3   20.5  90.7   5.0  11.0  11.0  10.6   5.2   3.2   1.7   0.0   0.0   0.1   0.5   1.3   0.8   1.1  2.26  1.27  0.86  0.00  0.00   29.85   57.49    1.10    0.00    0.26
 1988 243    59    50     1     3.6  169.2   16616  148.8   20.5  90.8   5.1  11.0  11.0  10.7   5.3   3.2   1.7   0.0   0.0   0.1   0.5   1.2   0.8   1.1  2.27  1.27  0.85  0.00  0.00   30.31   58.01    1.11    0.00    0.27
 1988 244    60    50     1     3.6  169.3   16615  149.0   20.4  90.5   5.2  11.0  11.0  10.7   5.3   3.2   1.7   0.0   0.0   0.1   0.5   1.2   0.8   1.0  2.28  1.27  0.85  0.00  0.00   30.78   58.53    1.12    0.00    0.29
 1988 245    61    50     1     3.6  169.4   16615  149.0   20.3  90.1   5.2  11.0  11.1  10.8   5.3   3.2   1.7   0.0   0.0   0.1   0.5   1.2   0.7   1.0  2.30  1.27  0.84  0.00  0.00   31.29   59.08    1.13    0.00    0.31
 1988 246    62    50     1     3.6  169.3   16614  149.0   20.3  89.5   5.3  11.0  11.1  10.8   5.3   3.2   1.8   0.0   0.0   0.1   0.5   1.2   0.7   1.0  2.31  1.27  0.83  0.00  0.00   31.80   59.63    1.14    0.00    0.32
 1988 247    63    50     1     3.6  169.6   16614  149.3   20.2  89.4   5.3  11.1  11.2  10.9   5.3   3.2   1.8   0.0   0.0   0.1   0.5   1.2   0.7   1.0  2.32  1.27  0.83  0.00  0.00   32.31   60.17    1.15    0.00    0.32
 1988 248    64    50     1     3.6  170.0   16613  149.8   20.2  89.6   5.4  11.1  11.2  10.9   5.3   3.2   1.8   0.0   0.0   0.1   0.5   1.2   0.7   0.9  2.33  1.27  0.82  0.00  0.00   32.79   60.68    1.16    0.00    0.33
 1988 249    65    50     1     3.6  170.5   16613  150.3   20.1  89.7   5.5  11.2  11.2  11.0   5.3   3.2   1.8   0.0   0.0   0.1   0.5   1.2   0.7   0.9  2.34  1.26  0.82  0.00  0.00   33.25   61.18    1.17    0.00    0.33
 1988 250    66    50     1     3.6  170.7   16612  150.6   20.1  89.5   5.6  11.2  11.2  11.0   5.3   3.2   1.8   0.0   0.0   0.1   0.5   1.2   0.7   0.9  2.35  1.26  0.81  0.00  0.00   33.73   61.69    1.18    0.00    0.33
 1988 251    67    50     1     3.6  171.0   16612  151.0   20.1  70.8  15.0  11.3  11.3  11.1   5.3   3.3   1.8   0.0   0.0   0.1   0.5   1.2   0.7   0.9  2.37  1.26  0.81  0.00  0.00   34.22   62.21    1.19    0.00    0.33
 1988 252    68    50     1     3.6  171.4   16611  151.3   20.1  70.0  15.3  11.5  11.3  11.1   5.3   3.3   1.8   0.0   0.0   0.2   0.5   1.2   0.7   0.9  2.38  1.26  0.80  0.00  0.00   34.75   62.73    1.20    0.00    0.34
 1988 253    69    50     1     3.6  171.8   16611  151.8   20.0  55.7  21.3  12.4  11.3  11.2   5.3   3.3   1.8   0.0   0.0   0.1   0.5   1.2   0.7   0.9  2.39  1.26  0.80  0.00  0.00   35.34   63.35    1.21    0.00    0.34
 1988 254    70    50     1     3.6  171.9   16610  151.7   20.1  43.3  24.2  14.1  11.6  11.2   5.3   3.3   1.8   0.0   0.0   0.2   0.6   1.2   0.7   0.8  2.40  1.26  0.79  0.00  0.00   35.92   63.81    1.21    0.00    0.34
 1988 255    71    50     1     3.7  172.0   16610  151.7   20.4  43.0  23.8  14.0  11.7  11.4   5.4   3.3   1.9   0.0   0.0   0.3   0.7   1.2   0.7   0.8  2.41  1.26  0.78  0.00  0.00   36.46   64.12    1.22    0.00    0.35
 1988 256    72    50     1     3.7  172.3   16609  151.7   20.6  43.2  23.5  13.9  11.7  11.4   5.4   3.4   1.9   0.0   0.0   0.2   0.7   1.3   0.7   0.8  2.42  1.25  0.78  0.00  0.00   36.99   64.41    1.23    0.00    0.35
 1988 257    73    50     1     3.7  172.1   16609  151.4   20.7  43.5  23.1  13.8  11.7  11.4   5.4   3.4   1.9   0.0   0.0   0.1   0.7   1.4   0.7   0.9  2.44  1.25  0.77  0.00  0.00   37.53   64.79    1.24    0.00    0.36
 1988 258    74    50     1     3.7  171.0   16608  150.3   20.7  43.3  22.4  13.6  11.7  11.4   5.4   3.4   1.9   0.0   0.0   0.1   0.6   1.3   0.7   0.9  2.45  1.25  0.77  0.00  0.00   38.06   65.28    1.25    0.00    0.36
 1988 259    75    50     1     3.7  170.1   16607  149.4   20.7  43.1  21.8  13.4  11.7  11.4   5.4   3.4   1.9   0.0   0.0   0.1   0.6   1.3   0.7   0.9  2.46  1.25  0.76  0.00  0.00   38.58   65.81    1.26    0.00    0.36
 1988 260    76    50     1     3.7  170.0   16607  149.3   20.7  43.3  21.6  13.4  11.7  11.4   5.4   3.4   1.9   0.0   0.0   0.1   0.6   1.3   0.7   0.9  2.47  1.25  0.76  0.00  0.00   39.11   66.34    1.27    0.00    0.37
 1988 261    77    50     1     3.7  170.0   16606  149.3   20.6  43.6  21.3  13.4  11.7  11.5   5.4   3.4   1.9   0.0   0.0   0.1   0.6   1.3   0.7   0.9  2.48  1.25  0.75  0.00  0.00   39.60   66.89    1.28    0.00    0.37
 1988 262    78    50     1     3.7  170.4   16606  149.8   20.6  44.1  21.3  13.4  11.8  11.5   5.5   3.4   1.9   0.0   0.0   0.1   0.6   1.2   0.7   0.9  2.49  1.25  0.75  0.00  0.00   40.06   67.39    1.29    0.00    0.37
 1988 263    79    50     1     3.7  170.8   16606  150.3   20.5  44.6  21.2  13.5  11.8  11.6   5.5   3.4   2.0   0.0   0.0   0.1   0.6   1.2   0.7   0.8  2.50  1.25  0.74  0.00  0.00   40.50   67.88    1.30    0.00    0.37
 1988 264    80    50     1     3.7  170.4   16605  149.9   20.5  44.5  20.9  13.4  11.8  11.6   5.5   3.5   2.0   0.0   0.0   0.1   0.5   1.2   0.7   0.8  2.51  1.24  0.74  0.00  0.00   40.96   68.37    1.31    0.00    0.38
 1988 265    81    50     1     3.7  169.8   16605  149.4   20.4  39.7  22.9  13.3  11.8  11.6   5.5   3.5   2.0   0.0   0.0   0.1   0.5   1.2   0.7   0.8  2.52  1.24  0.74  0.00  0.00   41.46   68.91    1.32    0.00    0.38
 1988 266    82    50     1     4.3  169.1   16604  148.7   20.4  12.2  19.6  16.6  12.8  12.6   6.9   4.3   2.5   0.0   0.0   0.2   0.5   1.2   0.7   0.8  2.54  1.24  0.73  0.00  0.00   42.00   69.42    1.32    0.00    0.38
 1988 267    83    50     1     5.9  167.0   16604  146.3   20.8   7.2  16.8  16.4  12.6  12.5   7.4   4.8   2.9   0.0   0.0   0.1   0.6   1.3   0.7   0.8  2.55  1.25  0.73  0.00  0.00   42.54   69.61    1.47    0.00    0.38
 1988 268    84    50     1     7.2  164.5   16603  143.3   21.2   6.9  16.1  15.8  12.2  12.2   7.4   4.9   3.1   0.0   0.0   0.2   0.7   1.3   0.7   0.9  2.57  1.25  0.73  0.00  0.00   43.13   69.74    1.62    0.00    0.39
 1988 269    85    50     1     8.1  162.9   16602  141.4   21.5   7.0  15.6  15.4  11.9  12.0   7.3   5.0   3.1   0.0   0.0   0.1   0.8   1.4   0.7   0.9  2.58  1.25  0.73  0.00  0.00   43.71   70.00    1.72    0.00    0.39
 1988 270    86    50     1     8.4  162.5   16602  140.9   21.6   3.7  12.0  15.1  12.1  12.3   8.0   5.5   3.4   0.0   0.0   0.1   0.7   1.4   0.8   0.9  2.59  1.25  0.73  0.00  0.00   44.25   70.36    1.77    0.00    0.40
 1988 271    87    50     1     8.9  161.2   16601  139.3   22.0   3.0  10.9  14.6  11.9  12.2   8.2   5.7   3.6   0.0   0.0   0.2   0.8   1.5   0.8   0.9  2.61  1.26  0.72  0.00  0.00   44.75   70.48    2.30    0.00    0.40
 1988 272    88    50     1    10.6  158.8   16601  136.6   22.2   3.0  10.6  14.0  11.4  11.8   8.1   5.7   3.8   0.0   0.0   0.1   0.8   1.6   0.8   0.9  2.62  1.26  0.72  0.00  0.00   45.24   70.66    2.85    0.00    0.40
 1988 273    89    50     1    11.6  156.1   16600  133.7   22.4   3.1  10.1  13.4  11.1  11.5   8.0   5.8   3.8   0.0   0.0   0.1   0.9   1.6   0.8   0.9  2.63  1.26  0.72  0.00  0.00   45.70   70.87    3.15    0.00    0.41
 1988 274    90    50     1    12.1  153.8   16600  131.3   22.4   3.3   9.6  12.8  10.8  11.3   8.0   5.8   3.9   0.0   0.0   0.1   0.8   1.6   0.8   1.0  2.64  1.26  0.72  0.00  0.00   46.19   71.23    3.27    0.00    0.41
 1988 275    91    50     1    12.4  151.4   16599  129.1   22.3   3.5   9.2  12.3  10.5  11.1   7.9   5.8   3.9   0.0   0.0   0.1   0.7   1.5   0.9   1.0  2.66  1.26  0.71  0.00  0.00   46.71   71.76    3.34    0.00    0.41
 1988 276    92    50     1    12.6  148.9   16599  126.7   22.1   3.6   8.7  11.7  10.3  10.9   7.9   5.8   3.9   0.0   0.0   0.1   0.7   1.4   0.9   1.0  2.67  1.26  0.71  0.00  0.00   47.29   72.34    3.37    0.00    0.42
 1988 277    93    50     1    12.6  146.8   16598  124.8   21.9   2.3   8.1  11.6  10.2  10.8   7.9   5.8   3.9   0.0   0.0   0.1   0.6   1.3   0.8   1.0  2.68  1.26  0.71  0.00  0.00   47.90   73.01    3.39    0.00    0.42
 1988 278    94    50     1    12.7  144.4   16598  122.5   22.0   2.2   7.7  10.9  10.0  10.5   7.9   5.8   3.9   0.0   0.0   0.2   0.7   1.3   0.8   1.0  2.69  1.26  0.70  0.00  0.00   48.51   73.47    3.41    0.00    0.42
 1988 279    95    50     1    12.7  142.2   16597  120.3   21.9   2.3   7.3  10.3   9.8  10.3   7.9   5.8   3.9   0.0   0.0   0.1   0.8   1.2   0.8   1.0  2.70  1.26  0.70  0.00  0.00   49.12   74.02    3.43    0.00    0.42
 1988 280    96    50     1    12.7  139.8   16596  118.2   21.6   2.3   6.9   9.7   9.6  10.1   7.9   5.8   4.0   0.0   0.0   0.1   0.7   1.1   0.8   0.9  2.71  1.26  0.69  0.00  0.00   49.72   74.73    3.44    0.00    0.43
 1988 281    97    50     1    12.7  137.3   16596  115.9   21.4   2.4   6.5   9.1   9.3   9.9   7.9   5.8   4.0   0.0   0.0   0.1   0.6   1.1   0.7   0.9  2.72  1.26  0.69  0.00  0.00   50.30   75.39    3.45    0.00    0.43
 1988 282    98    50     1    12.7  134.5   16595  113.3   21.2   2.3   6.0   8.3   9.1   9.7   7.9   5.8   4.0   0.0   0.0   0.1   0.6   1.0   0.7   0.9  2.73  1.25  0.68  0.00  0.00   50.88   76.02    3.47    0.00    0.43
 1988 283    99    50     1    12.7  131.6   16595  110.5   21.0   2.3   5.6   7.6   8.8   9.4   8.0   5.9   4.0   0.0   0.0   0.1   0.6   1.0   0.7   0.9  2.74  1.25  0.68  0.00  0.00   51.49   76.67    3.48    0.00    0.44
 1988 284   100    50     1    12.7  130.2   16594  109.2   20.9   2.3   5.3   7.3   8.6   9.3   8.0   5.9   4.0   0.0   0.0   0.1   0.5   1.0   0.7   0.8  2.75  1.25  0.68  0.00  0.00   52.10   77.30    3.49    0.00    0.44
 1988 285   101    50     1    12.7  126.3   16593  105.6   20.7   2.2   4.8   6.4   8.2   8.9   7.9   5.9   4.0   0.0   0.0   0.1   0.5   0.9   0.7   0.8  2.75  1.25  0.67  0.00  0.00   52.71   77.92    3.50    0.00    0.44
 1988 286   102    50     1    12.7  123.2   16593  102.7   20.5   2.1   4.3   5.8   7.9   8.6   7.9   5.9   4.0   0.0   0.0   0.1   0.5   0.9   0.7   0.8  2.75  1.25  0.67  0.00  0.00   53.32   78.53    3.52    0.00    0.44
 1988 287   103    50     1    12.7  119.1   16592   98.9   20.2   1.9   3.8   5.0   7.6   8.2   7.8   5.9   4.0   0.0   0.0   0.1   0.5   0.9   0.6   0.7  2.72  1.25  0.66  0.00  0.00   53.91   79.13    3.53    0.00    0.45
 1988 288   104    50     1    12.7  116.8   16592   96.8   20.0   1.9   3.6   4.6   7.3   8.0   7.6   5.9   4.0   0.0   0.0   0.1   0.5   0.8   0.6   0.7  2.70  1.25  0.66  0.00  0.00   54.46   79.68    3.53    0.00    0.45
 1988 289   105    50     1    12.7  113.7   16591   94.0   19.7   1.8   3.3   4.2   7.1   7.7   7.5   5.9   4.0   0.0   0.0   0.1   0.4   0.8   0.6   0.7  2.66  1.25  0.66  0.00  0.00   55.02   80.23    3.54    0.00    0.45
 1988 290   106    50     1    12.7  110.9   16591   91.5   19.4   0.8   3.0   4.2   6.8   7.5   7.3   5.9   4.0   0.0   0.0   0.1   0.4   0.8   0.6   0.7  2.60  1.24  0.65  0.00  0.00   55.54   80.82    3.55    0.00    0.45
 1988 291   107    50     1    12.7  108.2   16590   89.1   19.2   0.8   2.7   3.8   6.6   7.2   7.2   5.9   4.0   0.0   0.0   0.1   0.5   0.8   0.6   0.7  2.54  1.24  0.65  0.00  0.00   56.12   81.31    3.55    0.00    0.46
 1988 292   108    50     1    12.7  106.6   16590   87.6   18.9   0.8   2.6   3.6   6.4   7.1   7.1   6.0   4.0   0.0   0.0   0.1   0.5   0.8   0.6   0.7  2.49  1.24  0.65  0.00  0.00   56.68   81.88    3.56    0.00    0.46
 1988 293   109    50     1    12.7  102.4   16589   84.0   18.5   0.8   2.3   3.1   6.1   6.7   6.8   6.0   4.0   0.0   0.0   0.1   0.5   0.8   0.6   0.6  2.40  1.24  0.64  0.00  0.00   57.26   82.48    3.56    0.00    0.46
 1988 294   110    50     1    12.7  100.6   16588   82.4   18.2   0.8   2.2   2.9   5.9   6.5   6.7   6.0   4.1   0.0   0.0   0.1   0.5   0.8   0.6   0.6  2.34  1.24  0.64  0.00  0.00   57.85   83.07    3.57    0.00    0.46
 1988 295   111    50     1    12.7   95.0   16588   77.4   17.6   0.7   1.8   2.2   5.5   6.0   6.3   6.0   4.1   0.0   0.0   0.1   0.5   0.7   0.6   0.6  2.22  1.24  0.64  0.00  0.00   58.45   83.69    3.57    0.00    0.47
 1988 296   112    50     1    12.7   91.1   16587   74.0   17.1   0.7   1.5   1.9   5.1   5.6   6.0   6.0   4.1   0.0   0.0   0.1   0.5   0.7   0.5   0.6  2.13  1.24  0.63  0.00  0.00   59.07   84.32    3.57    0.00    0.47
 1988 297   113    50     1    12.7   87.7   16587   71.1   16.7   0.7   1.4   1.6   4.8   5.3   5.7   6.0   4.1   0.0   0.0   0.1   0.5   0.7   0.5   0.6  2.04  1.24  0.63  0.00  0.00   59.70   84.97    3.58    0.00    0.47
 1988 298   114    50     1    12.7   81.0   16586   65.2   15.9   0.6   1.0   1.1   4.2   4.7   5.2   6.0   4.1   0.0   0.0   0.1   0.5   0.7   0.5   0.6  1.89  1.23  0.63  0.00  0.00   60.30   85.59    3.58    0.00    0.48
 1988 299   115    50     1    12.7   72.4   16585   57.6   14.8   0.4   0.6   0.5   3.3   3.8   4.4   6.0   4.1   0.0   0.0   0.1   0.4   0.6   0.5   0.6  1.68  1.23  0.62  0.00  0.00   60.89   86.21    3.59    0.00    0.48
 1988 300   116    50     1    12.7   68.1   16585   53.8   14.3   0.3   0.5   0.4   2.9   3.4   4.0   6.0   4.1   0.0   0.0   0.1   0.4   0.6   0.5   0.5  1.56  1.23  0.62  0.00  0.00   61.47   86.77    3.59    0.00    0.48
 1988 301   117    50     1    12.7   61.7   16584   48.3   13.4   0.2   0.3   0.4   2.2   2.7   3.3   6.1   4.1   0.0   0.0   0.1   0.4   0.6   0.5   0.5  1.38  1.23  0.62  0.00  0.00   62.00   87.30    3.59    0.00    0.48
 1988 302   118    50     1    12.7   56.8   16584   43.9   12.9   0.3   0.3   0.3   1.7   2.1   2.8   6.1   4.1   0.0   0.0   0.1   0.5   0.6   0.5   0.5  1.23  1.23  0.61  0.00  0.00   62.61   87.70    3.60    0.00    0.49
 1988 303   119    50     1    12.7   53.0   16583   40.6   12.4   0.4   0.4   0.3   1.3   1.7   2.3   6.1   4.1   0.0   0.0   0.1   0.5   0.6   0.5   0.5  1.11  1.23  0.61  0.00  0.00   63.23   88.23    3.60    0.00    0.49
 1988 304   120    50     1    12.7   49.8   16583   37.8   11.9   0.4   0.4   0.3   1.0   1.3   1.9   6.1   4.1   0.0   0.0   0.1   0.5   0.6   0.5   0.5  1.01  1.23  0.61  0.00  0.00   63.87   88.78    3.60    0.00    0.49
 1988 305   121    50     1    12.7   47.2   16582   35.7   11.5   0.2   0.3   0.4   0.8   1.1   1.6   6.1   4.1   0.0   0.0   0.1   0.5   0.6   0.5   0.5  0.93  1.20  0.60  0.00  0.00   64.53   89.40    3.60    0.00    0.49
 1988 306   122    50     1    12.7   45.3   16581   33.8   11.5   0.2   0.3   0.3   0.7   0.9   1.3   6.2   4.1   0.0   0.0   0.2   0.6   0.7   0.5   0.5  0.86  1.17  0.60  0.00  0.00   65.23   89.75    3.61    0.00    0.50
 1988 307   123    50     1    12.7   43.8   16581   32.8   11.0   0.5   0.4   0.3   0.5   0.7   1.1   6.2   4.1   0.0   0.0   0.1   0.5   0.6   0.5   0.5  0.81  1.15  0.60  0.00  0.00   65.92   90.48    3.61    0.00    0.50
 1988 308   124    50     1    12.7   42.3   16580   31.7   10.7   0.4   0.4   0.3   0.4   0.6   0.9   6.2   4.2   0.0   0.0   0.1   0.5   0.6   0.5   0.5  0.76  1.12  0.59  0.00  0.00   66.57   91.05    3.61    0.00    0.50
 1988 309   125    50     1    12.7   41.3   16579   30.8   10.5   0.4   0.4   0.3   0.4   0.5   0.7   6.3   4.2   0.0   0.0   0.1   0.5   0.6   0.5   0.5  0.72  1.10  0.59  0.00  0.00   67.18   91.59    3.61    0.00    0.50
 1988 310   126    50     1    12.7   40.4   16579   30.2   10.3   0.4   0.4   0.3   0.3   0.4   0.6   6.3   4.2   0.0   0.0   0.1   0.5   0.6   0.5   0.5  0.69  1.08  0.59  0.00  0.00   67.80   92.15    3.61    0.00    0.51
 1988 311   127    50     1    12.7   39.8   16578   29.7   10.1   0.4   0.4   0.3   0.3   0.3   0.5   6.3   4.2   0.0   0.0   0.1   0.5   0.6   0.5   0.5  0.67  1.05  0.58  0.00  0.00   68.47   92.75    3.61    0.00    0.51
 1988 312   128    50     1    12.7   39.4   16578   29.5    9.9   0.4   0.4   0.3   0.3   0.3   0.4   6.4   4.2   0.0   0.0   0.1   0.5   0.6   0.5   0.5  0.65  1.03  0.58  0.00  0.00   69.16   93.40    3.61    0.00    0.51
 1988 313   129    50     1    12.7   39.0   16577   29.3    9.7   0.4   0.4   0.3   0.3   0.3   0.4   6.4   4.2   0.0   0.0   0.1   0.5   0.6   0.5   0.5  0.63  1.01  0.58  0.00  0.00   69.84   94.08    3.62    0.00    0.52
 1988 314   130    50     1    12.7   36.6   16576   27.2    9.4   0.4   0.4   0.3   0.3   0.3   0.3   5.6   4.2   0.0   0.0   0.1   0.4   0.6   0.5   0.5  0.62  0.93  0.58  0.00  0.00   70.51   94.76    3.62    0.00    0.52
 1988 315   131    50     1    12.7   34.4   16576   25.4    9.0   0.2   0.4   0.4   0.3   0.3   0.3   5.0   4.2   0.0   0.0   0.1   0.4   0.6   0.5   0.4  0.61  0.85  0.57  0.00  0.00   71.14   95.40    3.62    0.00    0.52
 1988 316   132    50     1    12.7   32.8   16575   23.6    9.1   0.1   0.2   0.4   0.3   0.3   0.3   4.4   4.2   0.0   0.0   0.2   0.5   0.6   0.5   0.4  0.60  0.79  0.57  0.00  0.00   71.87   95.81    3.62    0.00    0.52
 1988 317   133    50     1    12.7   31.5   16574   22.2    9.3   0.1   0.2   0.2   0.3   0.3   0.3   3.8   4.2   0.0   0.0   0.3   0.6   0.7   0.5   0.4  0.59  0.74  0.57  0.00  0.00   72.58   96.14    3.62    0.00    0.53
 1988 318   134    50     1    12.7   30.4   16574   21.1    9.4   0.2   0.3   0.2   0.3   0.3   0.3   3.4   4.2   0.0   0.0   0.4   0.7   0.7   0.5   0.4  0.58  0.70  0.56  0.00  0.00   73.28   96.42    3.62    0.00    0.53
 1988 319   135    50     1    12.7   29.5   16573   20.5    9.0   0.8   0.3   0.3   0.3   0.3   0.3   3.0   4.2   0.0   0.0   0.0   0.7   0.6   0.5   0.4  0.57  0.66  0.56  0.00  0.00   74.01   97.08    3.62    0.00    0.53
 1988 320   136    50     1    12.7   28.3   16572   19.6    8.7   0.3   0.5   0.3   0.3   0.3   0.3   2.6   4.2   0.0   0.0   0.1   0.5   0.6   0.5   0.4  0.57  0.63  0.56  0.00  0.00   74.73   97.68    3.62    0.00    0.53
 1988 321   137    50     1    12.7   27.4   16572   18.9    8.5   0.5   0.4   0.3   0.3   0.3   0.3   2.3   4.3   0.0   0.0   0.1   0.5   0.6   0.5   0.4  0.56  0.60  0.54  0.00  0.00   75.46   98.35    3.62    0.00    0.54
 1988 322   138    50     1    12.7   26.7   16571   18.3    8.4   0.4   0.4   0.3   0.3   0.3   0.3   2.0   4.3   0.0   0.0   0.1   0.5   0.6   0.5   0.5  0.56  0.58  0.53  0.00  0.00   76.22   99.02    3.62    0.00    0.54
 1988 323   139    50     1    12.7   26.1   16570   17.8    8.3   0.4   0.4   0.3   0.3   0.3   0.3   1.8   4.3   0.0   0.0   0.1   0.5   0.6   0.5   0.5  0.56  0.56  0.52  0.00  0.00   77.03   99.75    3.62    0.00    0.54
 1988 324   140    50     1    12.7   25.5   16569   17.3    8.2   0.3   0.5   0.4   0.3   0.3   0.3   1.6   4.3   0.0   0.0   0.1   0.5   0.6   0.5   0.5  0.56  0.54  0.50  0.00  0.00   77.82  100.44    3.62    0.00    0.54
 1988 325   141    50     1    12.7   25.1   16569   16.7    8.3   0.3   0.3   0.3   0.3   0.3   0.3   1.4   4.3   0.0   0.0   0.3   0.6   0.6   0.5   0.5  0.55  0.53  0.49  0.00  0.00   78.61  100.90    3.62    0.00    0.55
 1988 326   142    50     1    12.7   24.8   16568   16.8    8.0   0.6   0.5   0.4   0.3   0.3   0.3   1.2   4.3   0.0   0.0   0.0   0.5   0.6   0.5   0.4  0.55  0.52  0.48  0.00  0.00   79.41  101.82    3.62    0.00    0.55
 1988 327   143    50     1    12.7   24.3   16567   16.0    8.3   0.3   0.3   0.3   0.3   0.3   0.3   1.1   4.4   0.0   0.0   0.2   0.6   0.7   0.5   0.4  0.55  0.51  0.47  0.00  0.00   80.15  102.13    3.62    0.00    0.55
 1988 328   144    50     1    12.7   24.1   16567   15.6    8.4   0.3   0.3   0.3   0.3   0.3   0.3   1.0   4.4   0.0   0.0   0.3   0.7   0.7   0.5   0.4  0.55  0.50  0.45  0.00  0.00   80.83  102.43    3.62    0.00    0.55
 1988 329   145    50     1    12.7   23.3   16566   15.2    8.2   0.6   0.3   0.3   0.3   0.3   0.3   0.8   4.2   0.0   0.0   0.1   0.7   0.6   0.5   0.4  0.55  0.49  0.44  0.00  0.00   81.51  103.03    3.62    0.00    0.55
 1988 330   146    50     1    12.7   22.2   16565   14.3    7.9   0.3   0.4   0.3   0.3   0.3   0.3   0.8   3.9   0.0   0.0   0.1   0.5   0.6   0.5   0.4  0.55  0.48  0.43  0.00  0.00   82.18  103.63    3.62    0.00    0.55
 1988 331   147    50     1    12.7   21.4   16565   13.6    7.8   0.4   0.4   0.3   0.3   0.3   0.3   0.7   3.7   0.0   0.0   0.1   0.5   0.6   0.5   0.4  0.54  0.48  0.42  0.00  0.00   82.84  104.20    3.62    0.00    0.56
 1988 332   148    50     1    12.7   20.6   16564   12.9    7.8   0.4   0.4   0.3   0.3   0.3   0.3   0.6   3.5   0.0   0.0   0.1   0.5   0.6   0.5   0.4  0.54  0.47  0.41  0.00  0.00   83.52  104.79    3.62    0.00    0.56
 1988 333   149    50     1    12.7   19.9   16563   12.2    7.7   0.4   0.4   0.3   0.3   0.3   0.3   0.5   3.2   0.0   0.0   0.1   0.5   0.6   0.5   0.4  0.54  0.46  0.40  0.00  0.00   84.20  105.37    3.62    0.00    0.56
 1988 334   150    50     1    12.7   19.3   16563   11.6    7.6   0.4   0.4   0.3   0.3   0.3   0.3   0.5   3.0   0.0   0.0   0.1   0.5   0.6   0.5   0.4  0.54  0.45  0.39  0.00  0.00   84.86  105.95    3.62    0.00    0.56
 1988 335   151    50     1    12.7   18.6   16562   11.1    7.6   0.4   0.4   0.3   0.3   0.3   0.3   0.4   2.9   0.0   0.0   0.1   0.5   0.6   0.5   0.4  0.54  0.45  0.38  0.00  0.00   85.50  106.52    3.62    0.00    0.57
 1988 336   152    50     1    12.7   18.0   16562   10.6    7.5   0.4   0.4   0.3   0.3   0.3   0.3   0.4   2.7   0.0   0.0   0.1   0.5   0.6   0.5   0.4  0.54  0.44  0.38  0.00  0.00   86.10  107.08    3.62    0.00    0.57
 1988 337   153    50     1    12.7   17.5   16561   10.1    7.4   0.4   0.4   0.3   0.3   0.3   0.3   0.4   2.5   0.0   0.0   0.1   0.4   0.6   0.5   0.4  0.54  0.43  0.37  0.00  0.00   86.67  107.63    3.62    0.00    0.57
 1988 338   154    50     1    12.7   16.9   16561    9.7    7.3   0.2   0.4   0.4   0.3   0.3   0.3   0.3   2.4   0.0   0.0   0.1   0.4   0.6   0.5   0.4  0.54  0.43  0.36  0.00  0.00   87.24  108.20    3.62    0.00    0.58
 1988 339   155    50     1    12.7   16.6   16560    9.1    7.5   0.2   0.3   0.3   0.3   0.3   0.3   0.3   2.2   0.0   0.0   0.2   0.6   0.6   0.5   0.4  0.54  0.42  0.35  0.00  0.00   87.95  108.60    3.62    0.00    0.58
 1988 340   156    50     1    12.7   16.4   16559    9.2    7.2   0.6   0.5   0.3   0.3   0.3   0.3   0.3   2.1   0.0   0.0   0.0   0.5   0.6   0.5   0.4  0.54  0.41  0.34  0.00  0.00   88.69  109.43    3.62    0.00    0.58
[...]
 1992 294   110    50     1     0.0  101.4   16591   89.0   12.4   1.9   9.4  13.9  12.1   7.1   1.9   2.3   1.8   0.0   0.0   0.1   0.6   1.0   0.5   0.5  1.64  0.40  0.16  0.00  0.00   55.87   90.15    0.05    0.00    0.79
 1992 295   111    50     1     0.0   96.3   16590   83.9   12.4   1.7   8.5  12.3  11.8   6.8   1.9   2.3   1.8   0.0   0.0   0.1   0.7   1.0   0.5   0.5  1.61  0.39  0.16  0.00  0.00   56.45   90.44    0.05    0.00    0.81
 1992 296   112    50     1     0.0   92.5   16589   80.2   12.3   1.7   7.9  11.2  11.4   6.6   1.9   2.3   1.8   0.0   0.0   0.1   0.7   1.0   0.5   0.5  1.59  0.39  0.16  0.00  0.00   57.04   90.93    0.05    0.00    0.84
 1992 297   113    50     1     0.0   88.6   16589   76.5   12.1   1.6   7.2  10.1  11.0   6.4   1.9   2.3   1.8   0.0   0.0   0.1   0.7   1.0   0.5   0.5  1.57  0.39  0.16  0.00  0.00   57.64   91.52    0.05    0.00    0.86
 1992 298   114    50     1     0.0   83.5   16588   71.6   11.8   1.5   6.4   8.7  10.5   6.1   1.8   2.3   1.8   0.0   0.0   0.1   0.6   0.9   0.5   0.5  1.54  0.39  0.16  0.00  0.00   58.26   92.13    0.05    0.00    0.88
 1992 299   115    50     1     0.0   77.2   16588   65.7   11.5   1.4   5.3   7.2   9.8   5.8   1.8   2.4   1.9   0.0   0.0   0.1   0.6   0.9   0.5   0.5  1.49  0.39  0.16  0.00  0.00   58.94   92.78    0.05    0.00    0.90
 1992 300   116    50     1     0.0   75.6   16587   64.3   11.4   1.4   5.1   6.8   9.7   5.7   1.8   2.4   1.9   0.0   0.0   0.1   0.5   0.9   0.5   0.5  1.48  0.39  0.16  0.00  0.00   59.65   93.44    0.05    0.00    0.92
 1992 301   117    50     1     0.0   67.4   16586   56.5   10.9   1.2   3.8   5.0   8.7   5.2   1.7   2.4   1.9   0.0   0.0   0.1   0.5   0.8   0.5   0.5  1.42  0.39  0.16  0.00  0.00   60.38   94.13    0.05    0.00    0.94
 1992 302   118    50     1     0.0   59.9   16586   49.4   10.5   0.9   2.8   3.5   7.7   4.6   1.5   2.4   1.9   0.0   0.0   0.1   0.5   0.7   0.5   0.5  1.35  0.39  0.16  0.00  0.00   61.09   94.82    0.05    0.00    0.96
 1992 303   119    50     1     0.0   57.0   16585   46.7   10.3   0.9   2.4   3.0   7.3   4.4   1.5   2.4   1.9   0.0   0.0   0.1   0.5   0.7   0.5   0.5  1.32  0.39  0.16  0.00  0.00   61.75   95.42    0.05    0.00    0.98
 1992 304   120    50     1     0.0   50.6   16584   40.7    9.9   0.7   1.7   2.0   6.3   3.9   1.4   2.4   1.9   0.0   0.0   0.1   0.4   0.7   0.5   0.5  1.24  0.38  0.15  0.00  0.00   62.35   95.97    0.05    0.00    0.98
 1992 305   121    50     1     0.0   44.8   16584   35.3    9.5   0.5   1.1   1.2   5.3   3.4   1.2   2.4   1.9   0.0   0.0   0.1   0.4   0.6   0.5   0.5  1.17  0.38  0.15  0.00  0.00   62.91   96.50    0.05    0.00    0.98
 1992 306   122    50     1     0.0   38.8   16583   29.8    9.0   0.1   0.5   0.7   4.2   2.8   1.1   2.4   1.9   0.0   0.0   0.1   0.4   0.6   0.5   0.5  1.08  0.38  0.15  0.00  0.00   63.42   96.98    0.05    0.00    0.99
 1992 307   123    50     1     0.0   33.9   16583   25.1    8.8   0.1   0.3   0.3   3.2   2.2   0.9   2.5   1.9   0.0   0.0   0.2   0.5   0.6   0.5   0.5  0.98  0.38  0.15  0.00  0.00   64.01   97.31    0.05    0.00    0.99
 1992 308   124    50     1     0.0   30.8   16582   22.5    8.4   0.3   0.4   0.3   2.4   1.7   0.7   2.5   1.9   0.0   0.0   0.1   0.5   0.6   0.5   0.5  0.91  0.38  0.15  0.00  0.00   64.68   97.91    0.05    0.00    0.99
 1992 309   125    50     1     0.0   28.4   16582   20.0    8.4   0.3   0.3   0.3   1.8   1.3   0.6   2.5   1.9   0.0   0.0   0.2   0.6   0.6   0.5   0.5  0.84  0.38  0.15  0.00  0.00   65.35   98.19    0.05    0.00    0.99
 1992 310   126    50     1     0.0   26.6   16581   18.6    7.9   0.5   0.4   0.3   1.4   1.1   0.5   2.5   1.9   0.0   0.0   0.1   0.5   0.6   0.5   0.5  0.79  0.38  0.15  0.00  0.00   66.00   98.80    0.05    0.00    1.00
 1992 311   127    50     1     0.0   24.9   16581   17.2    7.7   0.4   0.4   0.3   1.1   0.9   0.4   2.5   1.9   0.0   0.0   0.1   0.5   0.6   0.5   0.5  0.75  0.38  0.15  0.00  0.00   66.61   99.27    0.05    0.00    1.00
 1992 312   128    50     1     0.0   23.7   16580   16.1    7.6   0.4   0.4   0.3   0.8   0.7   0.4   2.5   1.9   0.0   0.0   0.1   0.5   0.6   0.5   0.5  0.72  0.38  0.15  0.00  0.00   67.17   99.71    0.05    0.00    1.00
 1992 313   129    50     1     0.0   22.7   16580   15.3    7.4   0.3   0.3   0.3   0.7   0.6   0.3   2.5   1.9   0.0   0.0   0.1   0.5   0.6   0.5   0.5  0.69  0.38  0.15  0.00  0.00   67.69  100.11    0.05    0.00    1.00
 1992 314   130    50     1     0.0   22.0   16579   14.7    7.3   0.4   0.3   0.3   0.5   0.5   0.3   2.5   1.9   0.0   0.0   0.1   0.5   0.6   0.5   0.5  0.67  0.38  0.15  0.00  0.00   68.21  100.52    0.05    0.00    1.01
 1992 315   131    50     1     0.0   21.1   16579   13.9    7.2   0.4   0.4   0.3   0.4   0.4   0.3   2.3   1.9   0.0   0.0   0.1   0.5   0.6   0.5   0.5  0.65  0.38  0.15  0.00  0.00   68.77  100.99    0.05    0.00    1.01
 1992 316   132    50     1     0.0   20.1   16578   13.0    7.1   0.4   0.4   0.3   0.3   0.3   0.3   2.0   1.9   0.0   0.0   0.1   0.5   0.6   0.5   0.4  0.63  0.38  0.15  0.00  0.00   69.36  101.48    0.05    0.00    1.01
 1992 317   133    50     1     0.0   19.3   16577   12.3    7.0   0.4   0.4   0.3   0.3   0.3   0.3   1.8   1.9   0.0   0.0   0.1   0.5   0.6   0.5   0.4  0.62  0.38  0.15  0.00  0.00   69.96  102.00    0.05    0.00    1.01
 1992 318   134    50     1     0.0   18.7   16577   11.8    6.9   0.4   0.4   0.3   0.3   0.3   0.3   1.6   2.0   0.0   0.0   0.1   0.4   0.6   0.5   0.4  0.61  0.37  0.15  0.00  0.00   70.57  102.56    0.05    0.00    1.02
 1992 319   135    50     1     0.0   18.1   16576   11.3    6.8   0.2   0.4   0.4   0.3   0.3   0.3   1.4   2.0   0.0   0.0   0.1   0.4   0.5   0.5   0.4  0.60  0.37  0.15  0.00  0.00   71.17  103.12    0.05    0.00    1.02
 1992 320   136    50     1     0.0   17.7   16576   10.7    7.1   0.1   0.2   0.3   0.4   0.3   0.3   1.2   2.0   0.0   0.0   0.2   0.5   0.6   0.5   0.4  0.59  0.37  0.14  0.00  0.00   71.89  103.47    0.05    0.00    1.02
 1992 321   137    50     1     0.0   17.6   16575   10.1    7.4   0.2   0.2   0.3   0.3   0.3   0.3   1.1   2.0   0.0   0.0   0.3   0.6   0.7   0.5   0.4  0.59  0.37  0.14  0.00  0.00   72.68  103.72    0.05    0.00    1.02
 1992 322   138    50     1     0.0   17.5   16574   10.4    7.1   0.7   0.4   0.3   0.3   0.3   0.3   1.0   2.0   0.0   0.0   0.0   0.5   0.7   0.5   0.4  0.58  0.37  0.14  0.00  0.00   73.45  104.44    0.05    0.00    1.03
 1992 323   139    50     1     0.0   17.0   16574   10.0    7.1   0.3   0.4   0.3   0.3   0.3   0.3   0.8   2.0   0.0   0.0   0.1   0.5   0.6   0.5   0.4  0.58  0.37  0.14  0.00  0.00   74.17  104.95    0.05    0.00    1.03
 1992 324   140    50     1     0.0   16.8   16573    9.8    7.0   0.4   0.4   0.3   0.3   0.3   0.3   0.7   2.0   0.0   0.0   0.1   0.5   0.6   0.5   0.4  0.57  0.37  0.14  0.00  0.00   74.87  105.50    0.05    0.00    1.03
 1992 325   141    50     1     0.0   16.5   16572    9.6    7.0   0.4   0.4   0.3   0.3   0.3   0.3   0.7   2.0   0.0   0.0   0.1   0.5   0.6   0.5   0.4  0.57  0.37  0.14  0.00  0.00   75.55  106.02    0.05    0.00    1.03
 1992 326   142    50     1     0.0   16.4   16572    9.4    6.9   0.4   0.4   0.3   0.3   0.3   0.3   0.6   2.0   0.0   0.0   0.1   0.5   0.6   0.5   0.4  0.57  0.37  0.14  0.00  0.00   76.24  106.55    0.05    0.00    1.04
 1992 327   143    50     1     0.0   16.2   16571    9.3    6.9   0.4   0.4   0.3   0.3   0.3   0.3   0.5   2.0   0.0   0.0   0.1   0.5   0.6   0.5   0.4  0.56  0.37  0.14  0.00  0.00   76.92  107.08    0.05    0.00    1.04
 1992 328   144    50     1     0.0   16.0   16571    9.1    6.9   0.4   0.4   0.3   0.3   0.3   0.3   0.5   2.0   0.0   0.0   0.1   0.5   0.6   0.5   0.4  0.56  0.36  0.14  0.00  0.00   77.58  107.61    0.05    0.00    1.04
 1992 329   145    50     1     0.0   15.8   16570    9.0    6.9   0.4   0.4   0.3   0.3   0.3   0.3   0.4   2.0   0.0   0.0   0.1   0.5   0.6   0.5   0.4  0.56  0.36  0.14  0.00  0.00   78.20  108.11    0.05    0.00    1.04
 1992 330   146    50     1     0.0   15.7   16570    8.9    6.8   0.4   0.4   0.3   0.3   0.3   0.3   0.4   2.0   0.0   0.0   0.1   0.5   0.6   0.5   0.4  0.56  0.36  0.14  0.00  0.00   78.78  108.59    0.05    0.00    1.04
 1992 331   147    50     1     0.0   15.5   16569    8.8    6.7   0.4   0.4   0.3   0.3   0.3   0.3   0.3   2.0   0.0   0.0   0.1   0.5   0.6   0.5   0.4  0.56  0.36  0.14  0.00  0.00   79.31  109.04    0.05    0.00    1.05
 1992 332   148    50     1     0.0   15.4   16569    8.7    6.7   0.4   0.4   0.3   0.3   0.3   0.3   0.3   2.0   0.0   0.0   0.1   0.5   0.6   0.5   0.4  0.55  0.36  0.14  0.00  0.00   79.84  109.51    0.05    0.00    1.05
 1992 333   149    50     1     0.0   15.2   16568    8.6    6.6   0.2   0.4   0.4   0.3   0.3   0.3   0.3   2.0   0.0   0.0   0.1   0.4   0.6   0.5   0.4  0.55  0.35  0.14  0.00  0.00   80.37  110.00    0.05    0.00    1.05
 1992 334   150    50     1     0.0   15.0   16567    8.1    6.9   0.2   0.3   0.3   0.3   0.3   0.3   0.3   1.9   0.0   0.0   0.2   0.6   0.6   0.5   0.4  0.55  0.35  0.14  0.00  0.00   81.04  110.33    0.05    0.00    1.05
 1992 335   151    50     1     0.0   15.0   16567    8.3    6.7   0.4   0.4   0.3   0.3   0.3   0.3   0.3   1.8   0.0   0.0   0.1   0.5   0.6   0.5   0.4  0.55  0.35  0.14  0.00  0.00   81.73  111.00    0.05    0.00    1.06
 1992 336   152    50     1     0.0   14.8   16566    7.6    7.2   0.3   0.3   0.3   0.3   0.3   0.3   0.3   1.7   0.0   0.0   0.2   0.6   0.7   0.5   0.4  0.55  0.34  0.14  0.00  0.00   82.48  111.20    0.05    0.00    1.06
 1992 337   153    50     1     0.0   14.7   16566    7.8    7.0   0.6   0.4   0.3   0.3   0.3   0.3   0.3   1.6   0.0   0.0   0.1   0.5   0.7   0.5   0.4  0.55  0.34  0.14  0.00  0.00   83.24  111.83    0.05    0.00    1.06
 1992 338   154    50     1     0.0   14.3   16565    7.5    6.8   0.4   0.4   0.3   0.3   0.3   0.3   0.3   1.5   0.0   0.0   0.1   0.5   0.6   0.5   0.4  0.55  0.34  0.14  0.00  0.00   83.99  112.41    0.05    0.00    1.06
 1992 339   155    50     1     0.0   14.1   16564    7.3    6.8   0.4   0.4   0.3   0.3   0.3   0.3   0.3   1.4   0.0   0.0   0.1   0.5   0.6   0.5   0.4  0.54  0.33  0.14  0.00  0.00   84.73  113.01    0.05    0.00    1.07
 1992 340   156    50     1     0.0   13.9   16564    7.1    6.8   0.4   0.4   0.3   0.3   0.3   0.3   0.3   1.3   0.0   0.0   0.1   0.5   0.6   0.5   0.4  0.54  0.33  0.14  0.00  0.00   85.47  113.59    0.05    0.00    1.07
 1992 341   157    50     1     0.0   13.7   16563    6.9    6.8   0.2   0.4   0.4   0.3   0.3   0.3   0.3   1.2   0.0   0.0   0.1   0.5   0.6   0.5   0.4  0.54  0.33  0.14  0.00  0.00   86.21  114.17    0.05    0.00    1.07
 1992 342   158    50     1     0.0   13.5   16562    6.3    7.2   0.2   0.3   0.3   0.3   0.3   0.3   0.3   1.2   0.0   0.0   0.3   0.6   0.7   0.6   0.4  0.54  0.32  0.14  0.00  0.00   86.97  114.39    0.05    0.00    1.07
 1992 343   159    50     1     0.0   13.6   16562    6.5    7.2   0.6   0.3   0.3   0.3   0.3   0.3   0.3   1.1   0.0   0.0   0.0   0.7   0.7   0.6   0.4  0.54  0.32  0.14  0.00  0.00   87.76  114.90    0.05    0.00    1.08
 1992 344   160    50     1     0.0   13.3   16561    6.5    6.9   0.3   0.5   0.3   0.3   0.3   0.3   0.3   1.0   0.0   0.0   0.1   0.5   0.6   0.5   0.5  0.54  0.32  0.14  0.00  0.00   88.54  115.55    0.05    0.00    1.08
 1992 345   161    50     1     0.0   13.1   16560    6.3    6.8   0.5   0.4   0.3   0.3   0.3   0.3   0.3   1.0   0.0   0.0   0.1   0.5   0.6   0.5   0.5  0.54  0.32  0.13  0.00  0.00   89.31  116.20    0.05    0.00    1.08
 1992 346   162    50     1     0.0   12.9   16560    6.1    6.8   0.4   0.4   0.3   0.3   0.3   0.3   0.3   0.9   0.0   0.0   0.1   0.5   0.6   0.5   0.5  0.54  0.31  0.13  0.00  0.00   90.07  116.79    0.05    0.00    1.08
 1992 347   163    50     1     0.0   12.8   16559    6.0    6.8   0.4   0.4   0.3   0.3   0.3   0.3   0.3   0.9   0.0   0.0   0.1   0.5   0.6   0.5   0.5  0.54  0.31  0.13  0.00  0.00   90.81  117.39    0.05    0.00    1.09
 1992 348   164    50     1     0.0   12.6   16558    5.9    6.7   0.4   0.4   0.3   0.3   0.3   0.3   0.3   0.8   0.0   0.0   0.1   0.5   0.6   0.5   0.5  0.54  0.31  0.13  0.00  0.00   91.55  117.98    0.05    0.00    1.09
 1992 349   165    50     1     0.0   12.5   16558    5.8    6.7   0.4   0.4   0.3   0.3   0.3   0.3   0.3   0.8   0.0   0.0   0.1   0.5   0.6   0.5   0.5  0.54  0.30  0.13  0.00  0.00   92.27  118.59    0.05    0.00    1.09
 1992 350   166    50     1     0.0   12.3   16557    5.7    6.6   0.4   0.4   0.3   0.3   0.3   0.3   0.3   0.7   0.0   0.0   0.1   0.5   0.6   0.5   0.5  0.54  0.30  0.13  0.00  0.00   92.96  119.20    0.05    0.00    1.09
 1992 351   167    50     1     0.0   12.1   16556    5.6    6.5   0.4   0.4   0.3   0.3   0.3   0.3   0.3   0.7   0.0   0.0   0.1   0.4   0.6   0.5   0.5  0.54  0.30  0.13  0.00  0.00   93.61  119.80    0.05    0.00    1.10
 1992 352   168    50     1     0.0   11.9   16556    5.5    6.5   0.2   0.4   0.4   0.3   0.3   0.3   0.3   0.6   0.0   0.0   0.1   0.4   0.6   0.5   0.5  0.54  0.29  0.13  0.00  0.00   94.24  120.39    0.05    0.00    1.10
 1992 353   169    50     1     0.0   11.9   16555    5.1    6.7   0.2   0.3   0.3   0.3   0.3   0.3   0.3   0.6   0.0   0.0   0.2   0.6   0.6   0.5   0.5  0.54  0.29  0.13  0.00  0.00   94.99  120.76    0.05    0.00    1.10
 1992 354   170    50     1     0.0   12.0   16555    5.5    6.5   0.6   0.4   0.3   0.3   0.3   0.3   0.3   0.6   0.0   0.0   0.0   0.5   0.6   0.5   0.5  0.54  0.29  0.13  0.00  0.00   95.74  121.54    0.05    0.00    1.10
 1992 355   171    50     1     0.0   11.8   16554    5.2    6.6   0.3   0.4   0.3   0.3   0.3   0.3   0.3   0.5   0.0   0.0   0.2   0.5   0.6   0.5   0.5  0.53  0.29  0.12  0.00  0.00   96.47  122.11    0.05    0.00    1.11
 1992 356   172    50     1     0.0   11.7   16553    5.3    6.4   0.5   0.4   0.3   0.3   0.3   0.3   0.3   0.5   0.0   0.0   0.1   0.5   0.6   0.5   0.4  0.53  0.28  0.12  0.00  0.00   97.21  122.82    0.05    0.00    1.11
 1992 357   173    50     1     0.0   11.5   16553    5.1    6.4   0.4   0.4   0.3   0.3   0.3   0.3   0.3   0.5   0.0   0.0   0.1   0.5   0.6   0.5   0.4  0.53  0.28  0.12  0.00  0.00   97.92  123.46    0.05    0.00    1.11
 1992 358   174    50     1     0.0   11.5   16552    5.0    6.4   0.3   0.4   0.3   0.3   0.3   0.3   0.3   0.4   0.0   0.0   0.3   0.4   0.6   0.5   0.4  0.53  0.28  0.12  0.00  0.00   98.63  124.04    0.05    0.00    1.11
 1992 359   175    50     1     0.0   11.4   16551    5.2    6.2   0.6   0.3   0.4   0.3   0.3   0.3   0.3   0.4   0.0   0.0   0.0   0.4   0.6   0.5   0.4  0.53  0.28  0.12  0.00  0.00   99.33  124.83    0.05    0.00    1.12
 1992 360   176    50     1     0.0   11.3   16551    4.6    6.7   0.2   0.3   0.3   0.3   0.3   0.3   0.3   0.4   0.0   0.0   0.2   0.6   0.7   0.5   0.4  0.53  0.27  0.12  0.00  0.00  100.12  125.10    0.05    0.00    1.12
 1992 361   177    50     1     0.0   11.4   16550    5.0    6.4   0.6   0.5   0.3   0.3   0.3   0.3   0.3   0.4   0.0   0.0   0.1   0.5   0.6   0.5   0.4  0.53  0.27  0.12  0.00  0.00  100.87  125.85    0.05    0.00    1.12
 1992 362   178    50     1     0.0   11.2   16550    4.8    6.4   0.4   0.4   0.3   0.3   0.3   0.3   0.3   0.4   0.0   0.0   0.1   0.5   0.6   0.5   0.4  0.53  0.27  0.12  0.00  0.00  101.60  126.42    0.05    0.00    1.12
 1992 363   179    50     1     0.0   11.2   16549    4.8    6.4   0.5   0.4   0.3   0.3   0.3   0.3   0.3   0.3   0.0   0.0   0.1   0.5   0.6   0.5   0.4  0.53  0.27  0.12  0.00  0.00  102.33  127.03    0.05    0.00    1.12
 1992 364   180    50     1     0.0   11.1   16548    4.8    6.3   0.4   0.4   0.3   0.3   0.3   0.3   0.3   0.3   0.0   0.0   0.1   0.5   0.6   0.5   0.4  0.53  0.26  0.12  0.00  0.00  103.03  127.65    0.05    0.00    1.13
 1992 365   181    50     1     0.0   10.9   16548    4.7    6.3   0.4   0.4   0.3   0.3   0.3   0.3   0.3   0.3   0.0   0.0   0.1   0.5   0.6   0.5   0.4  0.53  0.26  0.11  0.00  0.00  103.70  128.24    0.05    0.00    1.13
 1992 366   182    50     1     0.0   10.9   16547    4.6    6.2   0.1   0.3   0.4   0.3   0.4   0.3   0.3   0.3   0.0   0.0   0.1   0.4   0.6   0.5   0.4  0.53  0.26  0.11  0.00  0.00  104.35  128.81    0.05    0.00    1.13
 1993 001   183    50     1     0.0   10.9   16547    4.3    6.6   0.2   0.1   0.2   0.2   0.3   0.3   0.4   0.3   0.0   0.0   0.1   0.6   0.7   0.5   0.4  0.53  0.26  0.11  0.00  0.00  105.06  129.04    0.05    0.00    1.13
 1993 002   184    50     1     0.0   11.2   16546    4.1    7.2   0.2   0.1   0.2   0.2   0.2   0.3   0.3   0.3   0.0   0.0   0.2   0.7   0.8   0.5   0.5  0.55  0.27  0.11  0.00  0.00  105.69  129.10    0.05    0.00    1.13
 1993 003   185    50     1     0.0   11.4   16545    3.9    7.6   0.2   0.2   0.2   0.2   0.2   0.3   0.3   0.3   0.0   0.0   0.3   0.7   0.8   0.6   0.5  0.56  0.27  0.11  0.00  0.00  106.38  129.19    0.05    0.00    1.13
 1993 004   186    50     1     0.2   11.6   16545    3.7    7.9   0.2   0.2   0.2   0.2   0.2   0.2   0.3   0.3   0.0   0.0   0.4   0.8   0.8   0.6   0.5  0.57  0.28  0.12  0.00  0.00  107.04  129.29    0.05    0.00    1.14
 1993 005   187    50     1     0.3   11.8   16544    3.7    8.1   0.2   0.2   0.2   0.2   0.2   0.2   0.2   0.3   0.0   0.0   0.5   0.8   0.8   0.6   0.6  0.58  0.29  0.12  0.00  0.00  107.74  129.41    0.06    0.00    1.14
 1993 006   188    50     1     0.3   12.0   16544    4.0    7.9   0.8   0.2   0.2   0.2   0.2   0.2   0.2   0.2   0.0   0.0   0.1   0.8   0.8   0.6   0.6  0.59  0.30  0.12  0.00  0.00  108.53  129.85    0.07    0.00    1.14
 1993 007   189    50     1     0.4   11.9   16543    4.2    7.8   0.3   0.5   0.2   0.2   0.3   0.2   0.2   0.2   0.0   0.0   0.1   0.5   0.8   0.6   0.6  0.60  0.31  0.13  0.00  0.00  109.40  130.28    0.07    0.00    1.15
 1993 008   190    50     1     0.4   12.0   16542    4.4    7.6   0.3   0.4   0.4   0.3   0.3   0.3   0.3   0.2   0.0   0.0   0.1   0.5   0.7   0.7   0.6  0.60  0.32  0.13  0.00  0.00  110.31  130.83    0.07    0.00    1.15
 1993 009   191    50     1     0.4   12.2   16542    4.0    8.2   0.3   0.3   0.3   0.3   0.2   0.2   0.3   0.2   0.0   0.0   0.3   0.6   0.8   0.7   0.6  0.61  0.33  0.13  0.00  0.00  111.22  130.95    0.07    0.00    1.16
 1993 010   192    50     1     0.4   12.6   16541    4.4    8.2   0.7   0.3   0.3   0.3   0.3   0.3   0.3   0.3   0.0   0.0   0.0   0.7   0.8   0.7   0.6  0.61  0.34  0.13  0.00  0.00  112.15  131.36    0.08    0.00    1.16
 1993 011   193    50     1     0.4   12.5   16540    4.5    8.1   0.3   0.5   0.3   0.3   0.3   0.3   0.3   0.3   0.0   0.0   0.2   0.5   0.8   0.7   0.6  0.61  0.34  0.14  0.00  0.00  113.11  131.85    0.08    0.00    1.16
 1993 012   194    50     1     0.4   12.5   16540    4.8    7.7   0.5   0.4   0.4   0.3   0.3   0.3   0.3   0.3   0.0   0.0   0.1   0.5   0.7   0.6   0.6  0.61  0.35  0.14  0.00  0.00  114.07  132.64    0.08    0.00    1.16
 1993 013   195    50     1     0.4   13.5   16539    5.5    8.0   0.7   0.6   0.5   0.4   0.3   0.3   0.3   0.3   0.0   0.0   0.1   0.5   0.7   0.6   0.6  0.64  0.35  0.14  0.00  0.00  115.06  133.37    0.08    0.00    1.17
 1993 014   196    50     1     0.4   14.5   16538    6.4    8.2   0.9   0.8   0.6   0.4   0.4   0.3   0.3   0.3   0.0   0.0   0.1   0.5   0.8   0.6   0.6  0.66  0.36  0.14  0.00  0.00  116.09  134.21    0.08    0.00    1.17
 1993 015   197    50     1     0.4   15.6   16537    7.2    8.4   0.5   0.8   0.8   0.5   0.5   0.3   0.3   0.3   0.0   0.0   0.1   0.5   0.8   0.6   0.6  0.68  0.36  0.14  0.00  0.00  117.14  135.04    0.08    0.00    1.17
