*GROWTH ASPECTS OUTPUT FILE

*DSSAT Cropping System Model Ver. 4.0.2.000               Aug 11, 2016; 20:58:27

*RUN   1        : UYMZ                    
 MODEL          : MZCER040 - Maize           
 EXPERIMENT     : UYMZ0186 MZ    late to create DSS                             
 TREATMENT  1   : UYMZ                    

@YEAR DOY   DAS   DAP   L#SD   GSTD   LAID   LWAD   SWAD   GWAD   RWAD   CWAD   G#AD   GWGD   HIAD   PWAD   P#AD   WSPD   WSGD   NSTD   EWSD   LN%D   SH%D   HIPD   PWDD   PWTD     SLAD   CHTD   CWID   RDPD   RL1D   RL2D   RL3D   RL4D   RL5D   RL6D   RL7D   RL8D   RL9D   RL10   CDAD   LDAD   SDAD   SNW0C   SNW1C
 1992 227     3     0    0.0      0   0.00      0      0      0      0      0      0    0.0  0.000      0      0  0.000  0.000  0.000  0.000   0.00   0.00   0.00      0      0      0.0   0.00   0.00   0.03   0.00   0.00   0.00   0.00   0.00   0.00   0.00   0.00   0.00   0.00      0      0      0       0       0
 1992 228     4     1    0.0      0   0.00      0      0      0      0      0      0    0.0  0.000      0      0  0.000  0.000  0.000  0.000   0.00   0.00   0.00      0      0      0.0   0.00   0.00   0.03   0.00   0.00   0.00   0.00   0.00   0.00   0.00   0.00   0.00   0.00      0      0      0       0       0
 1992 229     5     2    0.0      0   0.00      0      0      0      0      0      0    0.0  0.000      0      0  0.000  0.000  0.000  0.000   0.00   0.00   0.00      0      0      0.0   0.00   0.00   0.04   0.00   0.00   0.00   0.00   0.00   0.00   0.00   0.00   0.00   0.00      0      0      0       0       0
 1992 230     6     3    0.0      0   0.00      0      0      0      0      0      0    0.0  0.000      0      0  0.000  0.000  0.000  0.000   0.00   0.00   0.00      0      0      0.0   0.00   0.00   0.06   0.00   0.00   0.00   0.00   0.00   0.00   0.00   0.00   0.00   0.00      0      0      0       0       0
 1992 231     7     4    0.0      0   0.00      0      0      0      0      0      0    0.0  0.000      0      0  0.000  0.000  0.000  0.000   0.00   0.00   0.00      0      0      0.0   0.00   0.00   0.07   0.00   0.00   0.00   0.00   0.00   0.00   0.00   0.00   0.00   0.00      0      0      0       0       0
 1992 232     8     5    0.0      0   0.00      0      0      0      0      0      0    0.0  0.000      0      0  0.000  0.000  0.000  0.000   0.00   0.00   0.00      0      0      0.0   0.00   0.00   0.08   0.00   0.00   0.00   0.00   0.00   0.00   0.00   0.00   0.00   0.00      0      0      0       0       0
 1992 233     9     6    0.0      0   0.00      0      0      0      0      0      0    0.0  0.000      0      0  0.000  0.000  0.000  0.000   0.00   0.00   0.00      0      0      0.0   0.00   0.00   0.09   0.00   0.00   0.00   0.00   0.00   0.00   0.00   0.00   0.00   0.00      0      0      0       0       0
 1992 234    10     7    0.0      0   0.00      0      0      0      0      0      0    0.0  0.000      0      0  0.000  0.000  0.000  0.000   0.00   0.00   0.00      0      0      0.0   0.00   0.00   0.10   0.00   0.00   0.00   0.00   0.00   0.00   0.00   0.00   0.00   0.00      0      0      0       0       0
 1992 235    11     8    0.0      0   0.00      0      0      0      0      0      0    0.0  0.000      0      0  0.000  0.000  0.000  0.000   0.00   0.00   0.00      0      0      0.0   0.00   0.00   0.11   0.00   0.00   0.00   0.00   0.00   0.00   0.00   0.00   0.00   0.00      0      0      0       0       0
 1992 236    12     9    1.0      1   0.00     14     14      0     14     28      0    0.0  0.000      0      0  0.000  0.000  0.012  0.000   4.40   0.00   0.00      0      0     14.3   0.00   0.00   0.12   0.28   0.09   0.00   0.00   0.00   0.00   0.00   0.00   0.00   0.00      0      0      0       0       0
 1992 237    13    10    2.0      1   0.00     14     14      0     14     28      0    0.0  0.000      0      0  0.000  0.000  0.018  0.000   4.55   0.00   0.00      0      0     24.6   0.00   0.00   0.13   0.28   0.09   0.00   0.00   0.00   0.00   0.00   0.00   0.00   0.00      0      0      0       0       0
 1992 238    14    11    2.0      1   0.00     14     14      0     15     28      0    0.0  0.000      0      0  0.000  0.000  0.000  0.000   4.53   0.00   0.00      0      0     35.1   0.00   0.00   0.14   0.29   0.10   0.00   0.00   0.00   0.00   0.00   0.00   0.00   0.00      0      0      0       0       0
 1992 239    15    12    2.0      1   0.01     14     14      0     15     28      0    0.0  0.000      0      0  0.000  0.000  0.000  0.000   4.52   0.00   0.00      0      0     45.8   0.00   0.00   0.14   0.29   0.11   0.00   0.00   0.00   0.00   0.00   0.00   0.00   0.00      0      0      0       0       0
 1992 240    16    13    2.0      1   0.01     14     14      0     16     28      0    0.0  0.000      0      0  0.000  0.000  0.000  0.000   4.49   0.00   0.00      0      0     63.1   0.00   0.00   0.15   0.30   0.12   0.00   0.00   0.00   0.00   0.00   0.00   0.00   0.00      0      0      0       0       0
 1992 241    17    14    3.0      1   0.01     14     14      0     17     28      0    0.0  0.000      0      0  0.000  0.000  0.000  0.000   4.47   0.00   0.00      0      0     77.9   0.00   0.00   0.16   0.31   0.14   0.00   0.00   0.00   0.00   0.00   0.00   0.00   0.00      0      0      0       0       0
 1992 242    18    15    3.0      1   0.01     14     14      0     19     28      0    0.0  0.000      0      0  0.000  0.000  0.000  0.000   4.45   0.00   0.00      0      0    100.4   0.00   0.00   0.17   0.32   0.15   0.00   0.00   0.00   0.00   0.00   0.00   0.00   0.00      0      0      0       0       0
 1992 243    19    16    3.0      1   0.02     14     14      0     19     28      0    0.0  0.000      0      0  0.000  0.000  0.000  0.000   4.45   0.00   0.00      0      0    123.7   0.00   0.00   0.18   0.33   0.16   0.00   0.00   0.00   0.00   0.00   0.00   0.00   0.00      0      0      0       0       0
 1992 244    20    17    3.0      1   0.02     14     14      0     20     28      0    0.0  0.000      0      0  0.000  0.000  0.000  0.000   4.41   0.00   0.00      0      0    132.4   0.00   0.00   0.18   0.33   0.17   0.00   0.00   0.00   0.00   0.00   0.00   0.00   0.00      0      0      0       0       0
 1992 245    21    18    3.0      1   0.02     14     14      0     20     28      0    0.0  0.000      0      0  0.000  0.000  0.000  0.000   4.40   0.00   0.00      0      0    138.8   0.00   0.00   0.19   0.34   0.17   0.00   0.00   0.00   0.00   0.00   0.00   0.00   0.00      0      0      0       0       1
 1992 246    22    19    3.0      1   0.02     14     14      0     21     28      0    0.0  0.000      0      0  0.000  0.000  0.000  0.000   4.40   0.00   0.00      0      0    147.7   0.00   0.00   0.19   0.34   0.18   0.01   0.00   0.00   0.00   0.00   0.00   0.00   0.00      0      0      0       0       1
 1992 247    23    20    4.0      1   0.03     14     14      0     23     28      0    0.0  0.000      0      0  0.000  0.000  0.000  0.000   4.38   0.00   0.00      0      0    185.3   0.00   0.00   0.19   0.36   0.20   0.01   0.00   0.00   0.00   0.00   0.00   0.00   0.00      0      0      0       0       1
 1992 248    24    21    4.0      1   0.03     14     14      0     27     28      0    0.0  0.000      0      0  0.000  0.000  0.000  0.000   4.37   0.00   0.00      0      0    232.2   0.00   0.00   0.20   0.39   0.24   0.03   0.00   0.00   0.00   0.00   0.00   0.00   0.00      0      0      0       0       1
 1992 249    25    22    4.0      1   0.04     14     14      0     32     28      0    0.0  0.000      0      0  0.000  0.000  0.000  0.000   4.35   0.00   0.00      0      0    292.0   0.00   0.00   0.21   0.43   0.29   0.05   0.00   0.00   0.00   0.00   0.00   0.00   0.00      0      0      0       0       1
 1992 250    26    23    4.0      1   0.05     14     14      0     38     28      0    0.0  0.000      0      0  0.000  0.000  0.000  0.000   4.28   0.00   0.00      0      0    341.5   0.00   0.00   0.21   0.48   0.35   0.07   0.00   0.00   0.00   0.00   0.00   0.00   0.00      0      0      0       0       1
 1992 251    27    24    4.0      1   0.06     19     14      0     44     33      0    0.0  0.000      0      0  0.000  0.000  0.000  0.000   3.76   0.00   0.00      0      0    324.1   0.00   0.00   0.22   0.51   0.40   0.10   0.00   0.00   0.00   0.00   0.00   0.00   0.00      0      0      0       0       1
 1992 252    28    25    5.0      1   0.07     24     14      0     44     38      0    0.0  0.000      0      0  0.000  0.000  0.000  0.000   3.68   0.00   0.00      0      0    307.7   0.00   0.00   0.23   0.52   0.40   0.10   0.00   0.00   0.00   0.00   0.00   0.00   0.00      0      0      0       0       2
 1992 253    29    26    5.0      1   0.09     30     14      0     48     44      0    0.0  0.000      0      0  0.000  0.000  0.000  0.000   3.68   0.00   0.00      0      0    293.8   0.00   0.00   0.24   0.54   0.43   0.12   0.00   0.00   0.00   0.00   0.00   0.00   0.00      0      0      0       0       2
 1992 254    30    27    5.0      1   0.11     38     14      0     54     52      0    0.0  0.000      0      0  0.000  0.000  0.000  0.000   3.63   0.00   0.00      0      0    280.7   0.00   0.00   0.25   0.58   0.48   0.15   0.00   0.00   0.00   0.00   0.00   0.00   0.00      0      0      0       0       2
 1992 255    31    28    5.0      1   0.13     47     14      0     57     61      0    0.0  0.000      0      0  0.000  0.000  0.000  0.000   3.60   0.00   0.00      0      0    268.8   0.00   0.00   0.26   0.60   0.50   0.17   0.00   0.00   0.00   0.00   0.00   0.00   0.00      0      0      0       0       2
 1992 256    32    29    6.0      1   0.14     54     14      0     71     68      0    0.0  0.000      0      0  0.000  0.000  0.000  0.000   3.72   0.00   0.00      0      0    260.3   0.00   0.00   0.27   0.68   0.60   0.25   0.00   0.00   0.00   0.00   0.00   0.00   0.00      0      0      0       0       3
 1992 257    33    30    6.0      1   0.15     60     14      0     78     74      0    0.0  0.000      0      0  0.000  0.000  0.000  0.000   3.90   0.00   0.00      0      0    255.7   0.00   0.00   0.27   0.72   0.65   0.29   0.00   0.00   0.00   0.00   0.00   0.00   0.00      0      0      0       0       3
 1992 258    34    31    6.0      1   0.17     66     14      0     96     80      0    0.0  0.000      0      0  0.000  0.000  0.000  0.000   3.83   0.00   0.00      0      0    250.2   0.00   0.00   0.28   0.83   0.78   0.41   0.00   0.00   0.00   0.00   0.00   0.00   0.00      0      0      0       0       3
 1992 259    35    32    6.0      1   0.18     76     14      0    118     90      0    0.0  0.000      0      0  0.000  0.000  0.000  0.000   3.71   0.00   0.00      0      0    243.3   0.00   0.00   0.29   0.96   0.93   0.55   0.00   0.00   0.00   0.00   0.00   0.00   0.00      0      0      0       0       4
 1992 260    36    33    6.0      1   0.21     89     14      0    130    103      0    0.0  0.000      0      0  0.000  0.000  0.000  0.000   3.60   0.00   0.00      0      0    235.4   0.00   0.00   0.30   1.02   1.01   0.63   0.00   0.00   0.00   0.00   0.00   0.00   0.00      0      0      0       0       4
 1992 261    37    34    7.0      1   0.25    110     14      0    144    124      0    0.0  0.000      0      0  0.000  0.000  0.000  0.000   3.42   0.00   0.00      0      0    225.5   0.00   0.00   0.31   1.10   1.10   0.74   0.00   0.00   0.00   0.00   0.00   0.00   0.00      0      0      0       0       5
 1992 262    38    35    7.0      1   0.26    119     14      0    172    133      0    0.0  0.000      0      0  0.000  0.000  0.000  0.000   3.81   0.00   0.00      0      0    221.9   0.00   0.00   0.31   1.19   1.28   0.94   0.01   0.00   0.00   0.00   0.00   0.00   0.00      0      0      0       0       6
 1992 263    39    36    7.0      1   0.28    128     14      0    208    142      0    0.0  0.000      0      0  0.000  0.000  0.000  0.000   3.80   0.00   0.00      0      0    217.4   0.00   0.00   0.32   1.31   1.52   1.20   0.02   0.00   0.00   0.00   0.00   0.00   0.00      0      0      0       0       7
 1992 264    40    37    7.0      1   0.31    146     14      0    246    160      0    0.0  0.000      0      0  0.000  0.000  0.000  0.000   3.60   0.00   0.00      0      0    212.4   0.00   0.00   0.32   1.44   1.77   1.47   0.03   0.00   0.00   0.00   0.00   0.00   0.00      0      0      0       0       8
 1992 265    41    38    8.0      1   0.36    175     14      0    282    189      0    0.0  0.000      0      0  0.000  0.000  0.000  0.000   3.40   0.00   0.00      0      0    204.8   0.00   0.00   0.34   1.56   1.99   1.72   0.06   0.00   0.00   0.00   0.00   0.00   0.00      0      0      0       0       9
 1992 266    42    39    8.0      1   0.37    181     14      0    286    195      0    0.0  0.000      0      0  0.000  0.000  0.000  0.000   3.89   0.00   0.00      0      0    203.4   0.00   0.00   0.34   1.57   2.02   1.75   0.06   0.00   0.00   0.00   0.00   0.00   0.00      0      0      0       0      10
 1992 267    43    40    8.0      1   0.39    193     14      0    319    207      0    0.0  0.000      0      0  0.000  0.000  0.000  0.000   3.77   0.00   0.00      0      0    200.7   0.00   0.00   0.35   1.64   2.23   1.99   0.09   0.00   0.00   0.00   0.00   0.00   0.00      0      0      0       0      12
 1992 268    44    41    8.0      1   0.40    202     14      0    325    216      0    0.0  0.000      0      0  0.000  0.000  0.000  0.033   3.83   0.00   0.00      0      0    198.8   0.00   0.00   0.36   1.65   2.26   2.03   0.10   0.00   0.00   0.00   0.00   0.00   0.00      0      0      0       0      13
 1992 269    45    42    8.0      1   0.40    204     14      0    348    218      0    0.0  0.000      0      0  0.000  0.000  0.000  0.416   3.95   0.00   0.00      0      0    194.0   0.00   0.00   0.36   1.63   2.34   2.15   0.12   0.00   0.00   0.00   0.00   0.00   0.00      0      0      0       0      15
 1992 270    46    43    8.0      1   0.29    207     14      0    372    221      0    0.0  0.000      0      0  0.000  0.000  0.000  0.196   3.92   0.00   0.00      0      0    141.1   0.00   0.00   0.36   1.64   2.46   2.30   0.15   0.00   0.00   0.00   0.00   0.00   0.00      0      0      0       0      17
 1992 271    47    44    8.0      1   0.31    221     14      0    412    235      0    0.0  0.000      0      0  0.000  0.000  0.000  0.061   3.75   0.00   0.00      0      0    139.2   0.00   0.00   0.37   1.70   2.69   2.58   0.20   0.00   0.00   0.00   0.00   0.00   0.00      0      0      0       0      19
 1992 272    48    45    8.0      1   0.33    239     14      0    455    253      0    0.0  0.000      0      0  0.000  0.000  0.000  0.000   3.67   0.00   0.00      0      0    140.0   0.00   0.00   0.38   1.78   2.94   2.90   0.27   0.00   0.00   0.00   0.00   0.00   0.00      0      0      0       0      21
 1992 273    49    46    9.0      1   0.37    263     14      0    501    277      0    0.0  0.000      0      0  0.000  0.000  0.000  0.000   3.60   0.00   0.00      0      0    141.5   0.00   0.00   0.39   1.87   3.20   3.22   0.34   0.00   0.00   0.00   0.00   0.00   0.00      0      0      0       0      23
 1992 274    50    47    9.0      1   0.43    300     14      0    544    314      0    0.0  0.000      0      0  0.000  0.000  0.000  0.000   3.46   0.00   0.00      0      0    142.8   0.00   0.00   0.40   1.96   3.43   3.51   0.43   0.00   0.00   0.00   0.00   0.00   0.00      0      0      0       0      25
 1992 275    51    48    9.0      2   0.49    317     14      0    572    331      0    0.0  0.000      0      0  0.000  0.000  0.000  0.000   3.68   0.00   0.00      0      0    156.0   0.00   0.00   0.42   2.02   3.58   3.69   0.49   0.00   0.00   0.00   0.00   0.00   0.00      0      0      0       0      28
 1992 276    52    49    9.0      2   0.55    355     14      0    591    369      0    0.0  0.000      0      0  0.000  0.000  0.001  0.000   3.49   0.00   0.00      0      0    156.1   0.00   0.00   0.43   2.07   3.68   3.81   0.53   0.00   0.00   0.00   0.00   0.00   0.00      0      0      0       0      31
 1992 277    53    50   10.0      2   0.61    391     14      0    640    405      0    0.0  0.000      0      0  0.000  0.000  0.000  0.000   3.48   0.00   0.00      0      0    155.9   0.00   0.00   0.44   2.19   3.92   4.00   0.65   0.00   0.00   0.00   0.00   0.00   0.00      0      0      0       0      34
 1992 278    54    51   10.0      2   0.69    444     14      0    685    458      0    0.0  0.000      0      0  0.000  0.000  0.000  0.000   3.78   0.00   0.00      0      0    155.3   0.00   0.00   0.46   2.31   4.00   4.00   0.78   0.00   0.00   0.00   0.00   0.00   0.00      0      0      0       0      37
 1992 279    55    52   10.0      3   0.73    476     14      0    698    490      0    0.0  0.000      0      0  0.000  0.000  0.022  0.000   3.68   0.00   0.00      0      0    153.0   0.00   0.00   0.47   2.34   4.00   4.00   0.82   0.00   0.00   0.00   0.00   0.00   0.00      0      0      0       0      41
 1992 280    56    53   10.0      3   0.76    497     14      0    772    511      0    0.0  0.000      0      0  0.000  0.000  0.022  0.000   3.64   0.00   0.00      0      0    152.3   0.00   0.00   0.47   2.49   4.00   4.00   1.00   0.02   0.00   0.00   0.00   0.00   0.00      0      0      0       0      44
 1992 281    57    54   10.0      3   0.75    511     14      0    829    525      0    0.0  0.000      0      0  0.000  0.000  0.022  0.000   3.63   0.00   0.00      0      0    147.1   0.00   0.00   0.48   2.61   4.00   4.00   1.15   0.04   0.00   0.00   0.00   0.00   0.00      0      0      0       0      48
 1992 282    58    55   10.0      3   0.73    535     14      0    918    550      0    0.0  0.000      0      0  0.000  0.000  0.022  0.000   3.58   0.00   0.00      0      0    137.0   0.00   0.00   0.48   2.79   4.00   4.00   1.38   0.08   0.00   0.00   0.00   0.00   0.00      0      0      0       0      52
 1992 283    59    56   11.0      3   0.78    573     15      0   1011    588      0    0.0  0.000      0      0  0.000  0.000  0.022  0.000   3.54   0.00   0.00      0      0    136.9   0.00   0.00   0.49   2.98   4.00   4.00   1.61   0.12   0.00   0.00   0.00   0.00   0.00      0      0      0       0      57
 1992 284    60    57   11.0      3   0.85    619     15      0   1110    634      0    0.0  0.000      0      0  0.000  0.000  0.022  0.000   3.51   0.00   0.00      0      0    136.7   0.00   0.00   0.50   3.18   4.00   4.00   1.86   0.19   0.00   0.00   0.00   0.00   0.00      0      0      0       0      62
 1992 285    61    58   11.0      3   0.92    678     17      0   1162    694      0    0.0  0.000      0      0  0.000  0.000  0.022  0.000   3.48   0.00   0.00      0      0    136.3   0.00   0.00   0.51   3.28   4.00   4.00   1.99   0.23   0.00   0.00   0.00   0.00   0.00      0      0      0       0      67
 1992 286    62    59   11.0      3   1.01    741     19      0   1252    760      0    0.0  0.000      0      0  0.000  0.000  0.022  0.000   3.45   0.00   0.00      0      0    135.8   0.00   0.00   0.53   3.46   4.00   4.00   2.21   0.31   0.00   0.00   0.00   0.00   0.00      0      0      0       0      73
 1992 287    63    60   12.0      3   1.09    810     22      0   1359    832      0    0.0  0.000      0      0  0.000  0.000  0.022  0.000   3.42   0.00   0.00      0      0    135.1   0.00   0.00   0.54   3.66   4.00   4.00   2.47   0.43   0.00   0.00   0.00   0.00   0.00      0      0      0       0      79
 1992 288    64    61   12.0      3   1.22    906     29      0   1455    935      0    0.0  0.000      0      0  0.000  0.000  0.022  0.000   3.39   0.00   0.00      0      0    134.2   0.00   0.00   0.55   3.85   4.00   4.00   2.71   0.56   0.00   0.00   0.00   0.00   0.00      0      0      0       0      86
 1992 289    65    62   12.0      3   1.32    988     38      0   1453   1026      0    0.0  0.000      0      0  0.000  0.000  0.022  0.000   3.34   0.00   0.00      0      0    133.2   0.00   0.00   0.57   3.83   4.00   4.00   2.71   0.56   0.00   0.00   0.00   0.00   0.00      0      0      0       0      93
 1992 290    66    63   13.0      3   1.41   1069     48      0   1465   1118      0    0.0  0.000      0      0  0.000  0.000  0.022  0.000   3.31   0.00   0.00      0      0    132.2   0.00   0.00   0.59   3.66   3.88   3.93   2.64   0.57   0.00   0.00   0.00   0.00   0.00      0      0      0       0     101
 1992 291    67    64   13.0      3   1.50   1140     59      0   1586   1198      0    0.0  0.000      0      0  0.000  0.000  0.022  0.041   3.28   0.00   0.00      0      0    131.3   0.00   0.00   0.60   3.57   4.00   4.00   2.91   0.81   0.00   0.00   0.00   0.00   0.00      0      0      0       0     108
 1992 292    68    65   13.0      3   1.56   1192     68      0   1740   1260      0    0.0  0.000      0      0  0.000  0.000  0.022  0.023   3.26   0.00   0.00      0      0    130.5   0.00   0.00   0.61   3.52   4.00   4.00   3.31   1.15   0.00   0.00   0.00   0.00   0.00      0      0      0       0     116
 1992 293    69    66   13.0      3   1.63   1255     79      0   1763   1334      0    0.0  0.000      0      0  0.000  0.000  0.022  0.006   3.24   0.00   0.00      0      0    129.6   0.00   0.00   0.61   3.48   4.00   4.00   3.37   1.21   0.00   0.00   0.00   0.00   0.00      0      0      0       0     125
 1992 294    70    67   13.0      3   1.69   1309     91      0   1908   1400      0    0.0  0.000      0      0  0.000  0.000  0.022  0.006   3.22   0.00   0.00      0      0    128.9   0.00   0.00   0.62   3.45   4.00   4.00   3.76   1.53   0.01   0.00   0.00   0.00   0.00      0      0      0       0     133
 1992 295    71    68   13.0      3   1.74   1358    102      0   2073   1460      0    0.0  0.000      0      0  0.000  0.000  0.022  0.001   3.20   0.00   0.00      0      0    128.1   0.00   0.00   0.63   3.42   4.00   4.00   4.00   1.90   0.02   0.00   0.00   0.00   0.00      0      0      0       0     143
 1992 296    72    69   14.0      3   1.82   1427    120      0   2218   1547      0    0.0  0.000      0      0  0.000  0.000  0.022  0.000   3.18   0.00   0.00      0      0    127.3   0.00   0.00   0.64   3.39   4.00   4.00   4.00   2.24   0.04   0.00   0.00   0.00   0.00      0      0      0       0     153
 1992 297    73    70   14.0      3   1.93   1528    150      0   2344   1678      0    0.0  0.000      0      0  0.000  0.000  0.022  0.000   3.15   0.00   0.00      0      0    126.2   0.00   0.00   0.65   3.36   4.00   4.00   4.00   2.54   0.06   0.00   0.00   0.00   0.00      0      0      0       0     164
 1992 298    74    71   14.0      3   2.07   1657    196      0   2449   1853      0    0.0  0.000      0      0  0.000  0.000  0.022  0.001   3.11   0.00   0.00      0      0    124.9   0.00   0.00   0.67   3.33   4.00   4.00   4.00   2.81   0.09   0.00   0.00   0.00   0.00      0      0      0       0     176
 1992 299    75    72   15.0      3   2.18   1760    239      0   2445   1999      0    0.0  0.000      0      0  0.000  0.000  0.022  0.001   3.07   0.00   0.00      0      0    123.9   0.00   0.00   0.68   3.29   3.96   3.99   3.98   2.80   0.09   0.00   0.00   0.00   0.00      0      0      0       0     188
 1992 300    76    73   15.0      3   2.32   1890    301      0   2569   2191      0    0.0  0.000      0      0  0.000  0.000  0.022  0.001   3.03   0.00   0.00      0      0    122.7   0.00   0.00   0.70   3.27   4.00   4.00   4.00   3.16   0.16   0.00   0.00   0.00   0.00      0      0      0       0     201
 1992 301    77    74   15.0      3   2.46   2026    377      0   2693   2403      0    0.0  0.000      0      0  0.000  0.000  0.022  0.001   2.99   0.00   0.00      0      0    121.5   0.00   0.00   0.72   3.26   4.00   4.00   4.00   3.60   0.25   0.00   0.00   0.00   0.00      0      0      0       0     213
 1992 302    78    75   16.0      3   2.49   2055    394      0   2721   2449      0    0.0  0.000      0      0  0.000  0.000  0.022  0.001   3.00   0.00   0.00      0      0    121.0   0.00   0.00   0.72   3.24   3.97   4.00   4.00   3.73   0.28   0.00   0.00   0.00   0.00      0      0      0       0     227
 1992 303    79    76   16.0      3   2.43   2108    427      0   2916   2535      0    0.0  0.000      0      0  0.000  0.000  0.022  0.001   2.96   0.00   0.00      0      0    115.3   0.00   0.00   0.73   3.28   4.00   4.00   4.00   4.00   0.48   0.00   0.00   0.00   0.00      0      0      0       0     240
 1992 304    80    77   16.0      3   2.49   2167    465      0   3094   2631      0    0.0  0.000      0      0  0.000  0.000  0.022  0.000   2.94   0.00   0.00      0      0    114.8   0.00   0.00   0.73   3.33   4.00   4.00   4.00   4.00   0.70   0.00   0.00   0.00   0.00      0      0      0       0     255
 1992 305    81    78   16.0      3   2.56   2236    512      0   3264   2749      0    0.0  0.000      0      0  0.000  0.000  0.022  0.000   2.91   0.00   0.00      0      0    114.3   0.00   0.00   0.74   3.40   4.00   4.00   4.00   4.00   0.92   0.00   0.00   0.00   0.00      0      0      0       0     271
 1992 306    82    79   16.0      3   2.65   2331    583      0   3412   2914      0    0.0  0.000      0      0  0.000  0.000  0.022  0.000   2.83   0.00   0.00      0      0    113.6   0.00   0.00   0.75   3.48   4.00   4.00   4.00   4.00   1.13   0.00   0.00   0.00   0.00      0      0      0       0     287
 1992 307    83    80   17.0      3   2.78   2461    690      0   3528   3151      0    0.0  0.000      0      0  0.000  0.000  0.022  0.000   2.69   0.00   0.00      0      0    112.9   0.00   0.00   0.77   3.56   4.00   4.00   4.00   4.00   1.32   0.00   0.00   0.00   0.00      0      0      0       0     304
 1992 308    84    81   17.0      3   2.84   2524    745      0   3655   3269      0    0.0  0.000      0      0  0.000  0.000  0.022  0.000   2.64   0.00   0.00      0      0    112.4   0.00   0.00   0.77   3.69   4.00   4.00   4.00   4.00   1.53   0.00   0.00   0.00   0.00      0      0      0       0     322
 1992 309    85    82   17.0      3   2.85   2549    767      0   3766   3316      0    0.0  0.000      0      0  0.000  0.000  0.026  0.015   2.64   0.00   0.00      0      0    111.9   0.00   0.00   0.78   3.86   4.00   4.00   4.00   4.00   1.71   0.00   0.00   0.00   0.00      0      0      0       0     340
 1992 310    86    83   17.0      3   2.57   2577    793      0   3874   3370      0    0.0  0.000      0      0  0.000  0.000  0.028  0.000   2.63   0.00   0.00      0      0     99.7   0.00   0.00   0.78   4.00   4.00   4.00   4.00   4.00   1.88   0.00   0.00   0.00   0.00      0      0      0       0     359
 1992 311    87    84   17.0      3   2.58   2621    835      0   4042   3456      0    0.0  0.000      0      0  0.000  0.000  0.028  0.000   2.59   0.00   0.00      0      0     98.3   0.00   0.00   0.79   4.00   4.00   4.00   4.00   4.00   2.10   0.00   0.00   0.00   0.00      0      0      0       0     378
 1992 312    88    85   17.0      3   2.63   2683    895      0   4209   3578      0    0.0  0.000      0      0  0.000  0.000  0.028  0.000   2.52   0.00   0.00      0      0     98.1   0.00   0.00   0.79   4.00   4.00   4.00   4.00   4.00   2.25   0.00   0.00   0.00   0.00      0      0      0       0     398
 1992 313    89    86   17.0      3   2.71   2767    983      0   4358   3750      0    0.0  0.000      0      0  0.000  0.000  0.029  0.000   2.42   0.00   0.00      0      0     97.9   0.00   0.00   0.80   4.00   4.00   4.00   4.00   4.00   2.38   0.00   0.00   0.00   0.00      0      0      0       0     419
 1992 314    90    87   18.0      3   2.81   2881   1112      0   4474   3993      0    0.0  0.000      0      0  0.000  0.000  0.031  0.000   2.29   0.00   0.00      0      0     97.7   0.00   0.00   0.82   4.00   4.00   4.00   4.00   4.00   2.50   0.00   0.00   0.00   0.00      0      0      0       0     441
 1992 315    91    88   18.0      3   2.90   2981   1154      0   4459   4136      0    0.0  0.000      0      0  0.000  0.000  0.035  0.000   2.22   0.00   0.00      0      0     97.3   0.00   0.00   0.83   4.00   4.00   4.00   3.99   3.99   2.49   0.00   0.00   0.00   0.00      0      0      0       0     463
 1992 316    92    89   18.0      3   3.08   3173   1354      0   4459   4527      0    0.0  0.000      0      0  0.000  0.000  0.042  0.000   2.04   0.00   0.00      0      0     97.0   0.00   0.00   0.85   4.00   4.00   4.00   4.00   4.00   2.50   0.00   0.00   0.00   0.00      0      0      0       0     486
 1992 317    93    90   19.0      3   3.21   3326   1569      0   4514   4894      0    0.0  0.000      0      0  0.000  0.000  0.044  0.000   1.90   0.00   0.00      0      0     96.6   0.00   0.00   0.86   4.00   4.00   4.00   4.00   4.00   2.57   0.00   0.00   0.00   0.00      0      0      0       0     508
 1992 318    94    91   19.0      3   3.29   3434   1746      0   4612   5180      0    0.0  0.000      0      0  0.000  0.000  0.057  0.000   1.80   0.00   0.00      0      0     95.9   0.00   0.00   0.88   4.00   4.00   4.00   4.00   4.00   2.69   0.00   0.00   0.00   0.00      0      0      0       0     531
 1992 319    95    92   20.0      3   3.37   3543   1952      0   4610   5495      0    0.0  0.000      0      0  0.000  0.000  0.070  0.000   1.71   0.00   0.00      0      0     95.2   0.00   0.00   0.89   4.00   4.00   4.00   4.00   4.00   2.70   0.00   0.00   0.00   0.00      0      0      0       0     554
 1992 320    96    93   20.0      3   3.42   3629   2133      0   4663   5762      0    0.0  0.000      0      0  0.000  0.000  0.078  0.000   1.64   0.00   0.00      0      0     94.3   0.00   0.00   0.91   4.00   4.00   4.00   4.00   4.00   2.78   0.00   0.00   0.00   0.00      0      0      0       0     577
 1992 321    97    94   20.0      3   3.43   3676   2236      0   4826   5912      0    0.0  0.000      0      0  0.000  0.000  0.090  0.000   1.61   0.00   0.00      0      0     93.2   0.00   0.00   0.92   4.00   4.00   4.00   4.00   4.00   2.96   0.24   0.00   0.00   0.00      0      0      0       0     600
 1992 322    98    95   20.0      3   3.42   3712   2319      0   4994   6031      0    0.0  0.000      0      0  0.000  0.000  0.100  0.000   1.59   0.00   0.00      0      0     92.1   0.00   0.00   0.92   4.00   4.00   4.00   4.00   4.00   3.14   0.58   0.00   0.00   0.00      0      0      0       0     624
 1992 323    99    96   20.0      3   3.41   3752   2414      0   5159   6166      0    0.0  0.000      0      0  0.000  0.000  0.101  0.000   1.57   0.00   0.00      0      0     91.0   0.00   0.00   0.93   4.00   4.00   4.00   4.00   4.00   3.31   0.97   0.00   0.00   0.00      0      0      0       0     649
 1992 324   100    97   21.0      3   3.43   3810   2560      0   5294   6370      0    0.0  0.000      0      0  0.000  0.000  0.101  0.000   1.54   0.00   0.00      0      0     89.9   0.00   0.00   0.94   4.00   4.00   4.00   4.00   4.00   3.45   1.33   0.00   0.00   0.00      0      0      0       0     675
 1992 325   101    98   21.0      3   3.45   3875   2734      0   5346   6610      0    0.0  0.000      0      0  0.000  0.000  0.100  0.000   1.49   0.00   0.00      0      0     88.9   0.00   0.00   0.95   4.00   4.00   4.00   4.00   4.00   3.50   1.52   0.00   0.00   0.00      0      0      0       0     701
 1992 326   102    99   21.0      3   3.44   3912   2837      0   5327   6749      0    0.0  0.000      0      0  0.000  0.000  0.104  0.000   1.48   0.00   0.00      0      0     87.8   0.00   0.00   0.96   4.00   4.00   4.00   3.99   3.99   3.49   1.53   0.00   0.00   0.00      0      0      0       0     728
 1992 327   103   100   21.0      3   3.41   3940   2917      0   5474   6858      0    0.0  0.000      0      0  0.000  0.000  0.110  0.000   1.46   0.00   0.00      0      0     86.7   0.00   0.00   0.97   4.00   4.00   4.00   4.00   4.00   3.64   1.90   0.00   0.00   0.00      0      0      0       0     755
 1992 328   104   101   22.0      3   3.39   3964   2986      0   5595   6950      0    0.0  0.000      0      0  0.000  0.000  0.113  0.000   1.45   0.00   0.00      0      0     85.5   0.00   0.00   0.97   4.00   4.00   4.00   4.00   4.00   3.77   2.16   0.00   0.00   0.00      0      0      0       0     782
 1992 329   105   102   22.0      3   3.38   4008   3113      0   5693   7120      0    0.0  0.000      0      0  0.000  0.000  0.113  0.000   1.43   0.00   0.00      0      0     84.4   0.00   0.00   0.98   4.00   4.00   4.00   4.00   4.00   3.88   2.35   0.00   0.00   0.00      0      0      0       0     810
 1992 330   106   103   22.0      3   3.38   4056   3252      0   5762   7309      0    0.0  0.000      0      0  0.000  0.000  0.113  0.000   1.40   0.00   0.00      0      0     83.3   0.00   0.00   1.00   4.00   4.00   4.00   4.00   4.00   3.96   2.46   0.00   0.00   0.00      0      0      0       0     839
 1992 331   107   104   22.0      3   3.38   4106   3397      0   5802   7503      0    0.0  0.000      0      0  0.000  0.000  0.116  0.000   1.37   0.00   0.00      0      0     82.2   0.00   0.00   1.01   4.00   4.00   4.00   4.00   4.00   4.00   2.50   0.00   0.00   0.00      0      0      0       0     867
 1992 332   108   105   22.0      3   3.37   4156   3538      0   5941   7694      0    0.0  0.000      0      0  0.000  0.000  0.119  0.000   1.34   0.00   0.00      0      0     81.2   0.00   0.00   1.02   4.00   4.00   4.00   4.00   4.00   4.00   2.58   0.00   0.00   0.00      0      0      0       0     896
 1992 333   109   106   22.0      3   3.37   4207   3685      0   5995   7892      0    0.0  0.000      0      0  0.000  0.000  0.123  0.000   1.32   0.00   0.00      0      0     80.1   0.00   0.00   1.03   4.00   4.00   4.00   4.00   4.00   4.00   2.61   0.00   0.00   0.00      0      0      0       0     926
 1992 334   110   107   22.0      3   3.37   4269   3861      0   6017   8130      0    0.0  0.000      0      0  0.000  0.000  0.125  0.000   1.29   0.00   0.00      0      0     79.0   0.00   0.00   1.05   4.00   4.00   4.00   4.00   4.00   4.00   2.63   0.00   0.00   0.00      0      0      0       0     956
 1992 335   111   108   22.0      4   3.32   4227   3280      0   6064   8313      0    0.0  0.000    805      0  0.000  0.000  0.128  0.000   1.40   0.00   0.10      0    805     78.5   0.00   0.00   1.06   4.00   4.00   4.00   4.00   4.00   4.00   2.68   0.00   0.00   0.00      0      0      0       0     986
 1992 336   112   109   22.0      4   3.26   4182   3326      0   6208   8426      0    0.0  0.000    918      0  0.000  0.000  0.132  0.000   1.41   0.00   0.11      0    918     78.0   0.00   0.00   1.07   4.00   4.00   4.00   4.00   4.00   4.00   2.80   0.00   0.00   0.00      0      0      0       0    1016
 1992 337   113   110   22.0      4   3.22   4136   3366      0   6374   8521      0    0.0  0.000   1020      0  0.000  0.000  0.102  0.000   1.42   0.00   0.12      0   1020     77.9   0.00   0.00   1.08   4.00   4.00   4.00   4.00   4.00   4.00   2.94   0.00   0.00   0.00      0      0      0       0    1048
 1992 338   114   111   22.0      4   3.18   4087   3415      0   6489   8645      0    0.0  0.000   1143      0  0.000  0.000  0.098  0.000   1.42   0.00   0.13      0   1143     77.9   0.00   0.00   1.09   4.00   4.00   4.00   4.00   4.00   4.00   3.05   0.00   0.00   0.00      0      0      0       0    1079
 1992 339   115   112   22.0      4   3.15   4035   3478      0   6616   8814      0    0.0  0.000   1300      0  0.000  0.000  0.092  0.000   1.43   0.00   0.15      0   1300     78.0   0.00   0.00   1.10   4.00   4.00   4.00   4.00   4.00   4.00   3.15   0.09   0.00   0.00      0      0      0       0    1112
 1992 340   116   113   22.0      4   3.11   3981   3541      0   6641   8979      0    0.0  0.000   1457      0  0.000  0.000  0.087  0.000   1.43   0.00   0.16      0   1457     78.2   0.00   0.00   1.11   4.00   4.00   4.00   4.00   4.00   4.00   3.18   0.14   0.00   0.00      0      0      0       0    1145
 1992 341   117   114   22.0      4   3.08   3923   3621      0   6694   9201      0    0.0  0.000   1656      0  0.000  0.000  0.081  0.000   1.44   0.00   0.18      0   1656     78.5   0.00   0.00   1.12   4.00   4.00   4.00   4.00   4.00   4.00   3.23   0.24   0.00   0.00      0      0      0       0    1178
 1992 342   118   115   22.0      4   3.05   3863   3685      0   6758   9365      0    0.0  0.000   1817      0  0.000  0.000  0.077  0.000   1.44   0.00   0.19      0   1817     79.0   0.00   0.00   1.13   4.00   4.00   4.00   4.00   4.00   4.00   3.28   0.36   0.00   0.00      0      0      0       0    1212
 1992 343   119   116   22.0      4   3.02   3800   3752      0   6836   9537      0    0.0  0.000   1985      0  0.000  0.000  0.073  0.000   1.45   0.00   0.21      0   1985     79.6   0.00   0.00   1.14   4.00   4.00   4.00   4.00   4.00   4.00   3.35   0.51   0.00   0.00      0      0      0       0    1245
 1992 344   120   117   22.0      4   3.00   3734   3822      0   6871   9715      0    0.0  0.000   2159      0  0.000  0.000  0.068  0.000   1.45   0.00   0.22      0   2159     80.3   0.00   0.00   1.15   4.00   4.00   4.00   4.00   4.00   4.00   3.38   0.60   0.00   0.00      0      0      0       0    1280
 1992 345   121   118   22.0      4   2.97   3665   3898      0   6909   9913      0    0.0  0.000   2350      0  0.000  0.000  0.063  0.000   1.46   0.00   0.24      0   2350     81.1   0.00   0.00   1.16   4.00   4.00   4.00   4.00   4.00   4.00   3.41   0.70   0.00   0.00      0      0      0       0    1314
 1992 346   122   119   22.0      4   2.95   3593   3967      0   6966  10082      0    0.0  0.000   2522      0  0.000  0.000  0.059  0.000   1.47   0.00   0.25      0   2522     82.2   0.00   0.00   1.17   4.00   4.00   4.00   4.00   4.00   4.00   3.46   0.81   0.00   0.00      0      0      0       0    1348
 1992 347   123   120   22.0      4   2.93   3519   4032      0   7086  10237      0    0.0  0.000   2686      0  0.000  0.000  0.055  0.000   1.47   0.00   0.26      0   2686     83.3   0.00   0.00   1.17   4.00   4.00   4.00   4.00   4.00   4.00   3.55   1.00   0.00   0.00      0      0      0       0    1383
 1992 348   124   121   22.0      5   2.90   3519   4032    281   7115  10518   3583    7.8  0.027   2967      7  0.000  0.000  0.098  0.000   1.43   9.48   0.28      0   2967     82.3   0.00   0.00   1.18   4.00   4.00   4.00   4.00   4.00   4.00   3.58   1.06   0.00   0.00      0      0      0       0    1419
 1992 349   125   122   22.0      5   2.86   3519   4032    540   7139  10777   3583   15.1  0.050   3226      7  0.000  0.000  0.108  0.000   1.39  16.74   0.30      0   3226     81.2   0.00   0.00   1.19   4.00   4.00   4.00   4.00   4.00   4.00   3.61   1.12   0.00   0.00      0      0      0       0    1454
 1992 350   126   123   22.0      5   2.82   3519   4032    732   7184  10969   3583   20.4  0.067   3418      7  0.000  0.000  0.116  0.000   1.36  21.43   0.31      0   3418     80.0   0.00   0.00   1.20   4.00   4.00   4.00   4.00   4.00   4.00   3.65   1.17   0.00   0.00      0      0      0       0    1490
 1992 351   127   124   22.0      5   2.77   3519   4032    972   7193  11209   3583   27.1  0.087   3657      7  0.000  0.000  0.118  0.000   1.32  26.57   0.33      0   3657     78.8   0.00   0.00   1.21   4.00   4.00   4.00   4.00   4.00   4.00   3.66   1.19   0.00   0.00      0      0      0       0    1526
 1992 352   128   125   22.0      5   2.73   3519   4032   1240   7171  11477   3583   34.6  0.108   3926      7  0.000  0.000  0.124  0.000   1.28  31.59   0.34      0   3926     77.6   0.00   0.00   1.22   4.00   4.00   4.00   4.00   4.00   3.99   3.66   1.19   0.00   0.00      0      0      0       0    1562
 1992 353   129   126   22.0      5   2.69   3519   4032   1508   7191  11745   3583   42.1  0.128   4193      7  0.000  0.000  0.130  0.000   1.25  35.96   0.36      0   4193     76.3   0.00   0.00   1.23   4.00   4.00   4.00   4.00   4.00   4.00   3.68   1.20   0.00   0.00      0      0      0       0    1598
 1992 354   130   127   22.0      5   2.64   3519   4032   1777   7161  12013   3583   49.6  0.148   4462      7  0.000  0.000  0.136  0.000   1.21  39.81   0.37      0   4462     75.0   0.00   0.00   1.24   4.00   4.00   4.00   3.99   3.99   3.99   3.67   1.20   0.00   0.00      0      0      0       0    1634
 1992 355   131   128   22.0      5   2.59   3519   4032   2045   7187  12282   3583   57.1  0.167   4731      7  0.000  0.000  0.142  0.000   1.17  43.23   0.39      0   4731     73.7   0.00   0.00   1.25   4.00   4.00   4.00   4.00   4.00   4.00   3.70   1.21   0.00   0.00      0      0      0       0    1669
 1992 356   132   129   22.0      5   2.55   3519   4032   2314   7185  12551   3583   64.6  0.184   4999      7  0.000  0.000  0.149  0.000   1.13  46.28   0.40      0   4999     72.3   0.00   0.00   1.25   4.00   4.00   4.00   4.00   4.00   4.00   3.70   1.22   0.00   0.00      0      0      0       0    1705
 1992 357   133   130   22.0      5   2.50   3519   3940   2583   7149  12727   3583   72.1  0.203   5268      7  0.000  0.000  0.155  0.000   1.11  49.02   0.41      0   5268     70.9   0.00   0.00   1.25   4.00   4.00   4.00   4.00   4.00   4.00   3.70   1.22   0.00   0.00      0      0      0       0    1741
 1992 358   134   131   22.0      5   2.45   3519   3846   2851   7114  12901   3583   79.6  0.221   5537      7  0.000  0.000  0.163  0.000   1.08  51.50   0.43      0   5537     69.5   0.00   0.00   1.25   4.00   4.00   4.00   4.00   4.00   4.00   3.70   1.22   0.00   0.00      0      0      0       0    1777
 1992 359   135   132   22.0      5   2.40   3519   3925   3120   7118  13250   3583   87.1  0.235   5805      7  0.000  0.000  0.165  0.021   1.04  53.74   0.44      0   5805     68.1   0.00   0.00   1.25   4.00   4.00   4.00   4.00   4.00   4.00   3.72   1.23   0.00   0.00      0      0      0       0    1813
 1992 360   136   133   22.0      5   2.34   3519   3979   3361   7109  13545   3583   93.8  0.248   6047      7  0.000  0.000  0.168  0.000   1.00  55.59   0.45      0   6047     66.6   0.00   0.00   1.25   4.00   4.00   4.00   4.00   4.00   4.00   3.72   1.23   0.00   0.00      0      0      0       0    1848
 1992 361   137   134   22.0      5   2.29   3519   4032   3582   7136  13819   3583  100.0  0.259   6267      7  0.000  0.000  0.180  0.000   0.97  57.15   0.45      0   6267     65.1   0.00   0.00   1.25   4.00   4.00   4.00   4.00   4.00   4.00   3.75   1.25   0.00   0.00      0      0      0       0    1884
 1992 362   138   135   22.0      5   2.24   3519   4032   3803   7159  14040   3583  106.1  0.271   6488      7  0.000  0.000  0.189  0.000   0.94  58.61   0.46      0   6488     63.6   0.00   0.00   1.25   4.00   4.00   4.00   4.00   4.00   4.00   3.77   1.27   0.00   0.00      0      0      0       0    1919
 1992 363   139   136   22.0      5   2.18   3519   4032   4071   7164  14308   3583  113.6  0.285   6757      7  0.000  0.000  0.197  0.000   0.91  60.25   0.47      0   6757     62.0   0.00   0.00   1.25   4.00   4.00   4.00   4.00   4.00   4.00   3.79   1.28   0.00   0.00      0      0      0       0    1955
 1992 364   140   137   22.0      5   2.13   3519   3891   4340   7128  14436   3583  121.1  0.301   7026      7  0.000  0.000  0.214  0.000   0.90  61.77   0.49      0   7026     60.4   0.00   0.00   1.25   4.00   4.00   4.00   4.00   4.00   4.00   3.79   1.28   0.00   0.00      0      0      0       0    1991
 1992 365   141   138   22.0      5   2.07   3519   3767   4586   7092  14557   3583  128.0  0.315   7271      7  0.000  0.000  0.240  0.000   0.88  63.07   0.50      0   7271     58.8   0.00   0.00   1.25   4.00   4.00   4.00   4.00   4.00   4.00   3.79   1.28   0.00   0.00      0      0      0       0    2027
 1992 366   142   139   22.0      5   2.01   3519   3680   4793   7057  14678   3583  133.8  0.327   7479      7  0.000  0.000  0.242  0.000   0.87  64.09   0.51      0   7479     57.3   0.00   0.00   1.25   4.00   4.00   4.00   4.00   4.00   4.00   3.79   1.28   0.00   0.00      0      0      0       0    2062
 1993 001   143   140   22.0      5   1.96   3519   3577   5016   7022  14797   3583  140.0  0.339   7702      7  0.000  0.000  0.242  0.000   0.86  65.13   0.52      0   7702     55.7   0.00   0.00   1.25   4.00   4.00   4.00   4.00   4.00   4.00   3.79   1.28   0.00   0.00      0      0      0       0    2097
 1993 002   144   141   22.0      5   1.91   3519   3466   5243   6987  14913   3583  146.4  0.352   7929      7  0.000  0.000  0.255  0.291   0.84  66.13   0.53      0   7929     54.2   0.00   0.00   1.25   4.00   4.00   4.00   4.00   4.00   4.00   3.79   1.28   0.00   0.00      0      0      0       0    2133
 1993 003   145   142   22.0      5   1.85   3519   3347   5475   6952  15027   3583  152.8  0.364   8160      7  0.000  0.000  0.266  0.578   0.82  67.09   0.54      0   8160     52.7   0.00   0.00   1.25   4.00   4.00   4.00   4.00   4.00   4.00   3.79   1.28   0.00   0.00      0      0      0       0    2167
 1993 004   146   143   22.0      5   1.80   3519   3260   5744   6917  15208   3583  160.3  0.378   8429      7  0.000  0.000  0.274  0.551   0.80  68.14   0.55      0   8429     51.2   0.00   0.00   1.25   4.00   4.00   4.00   4.00   4.00   4.00   3.79   1.28   0.00   0.00      0      0      0       0    2202
 1993 005   147   144   22.0      5   1.75   3519   3265   6012   6885  15481   3583  167.8  0.388   8698      7  0.000  0.000  0.288  0.271   0.77  69.12   0.56      0   8698     49.8   0.00   0.00   1.25   3.91   3.91   3.91   3.91   3.91   3.91   3.70   1.25   0.00   0.00      0      0      0       0    2237
 1993 006   148   145   22.0      5   1.70   3519   3300   6281   6868  15785   3583  175.3  0.398   8966      7  0.000  0.000  0.307  0.071   0.73  70.05   0.57      0   8966     48.3   0.00   0.00   1.25   3.95   3.95   3.95   3.91   3.91   3.91   3.69   1.25   0.00   0.00      0      0      0       0    2271
 1993 007   149   146   22.0      5   1.65   3519   3164   6550   6833  15918   3583  182.8  0.411   9235      7  0.000  0.000  0.340  0.033   0.72  70.92   0.58      0   9235     46.8   0.00   0.00   1.25   3.95   3.95   3.95   3.91   3.91   3.91   3.69   1.25   0.00   0.00      0      0      0       0    2306
 1993 008   150   147   22.0      5   1.59   3519   3094   6818   6799  16117   3583  190.3  0.423   9504      7  0.000  0.000  0.381  0.190   0.70  71.74   0.59      0   9504     45.3   0.00   0.00   1.25   3.95   3.95   3.95   3.91   3.91   3.91   3.69   1.25   0.00   0.00      0      0      0       0    2340
 1993 009   151   148   22.0      5   1.54   3519   3117   7064   6777  16386   3583  197.2  0.431   9750      7  0.000  0.000  0.394  0.094   0.67  72.45   0.59      0   9750     43.8   0.00   0.00   1.25   3.97   3.97   3.97   3.91   3.91   3.90   3.68   1.25   0.00   0.00      0      0      0       0    2374
 1993 010   152   149   22.0      5   1.49   3519   3122   7333   6745  16660   3583  204.7  0.440  10018      7  0.000  0.000  0.416  0.035   0.64  73.19   0.60      0  10018     42.3   0.00   0.00   1.25   3.96   3.96   3.96   3.90   3.89   3.88   3.67   1.24   0.00   0.00      0      0      0       0    2408
 1993 011   153   150   22.0      5   1.44   3519   3115   7601   6712  16921   3583  212.2  0.449  10287      7  0.000  0.000  0.450  0.000   0.62  73.89   0.61      0  10287     40.8   0.00   0.00   1.25   3.96   3.96   3.96   3.90   3.89   3.88   3.67   1.24   0.00   0.00      0      0      0       0    2441
 1993 012   154   151   22.0      5   1.38   3519   3086   7870   6678  17160   3583  219.7  0.459  10556      7  0.000  0.000  0.480  0.000   0.61  74.56   0.62      0  10556     39.3   0.00   0.00   1.25   3.96   3.96   3.96   3.90   3.89   3.88   3.67   1.24   0.00   0.00      0      0      0       0    2475
 1993 013   155   152   22.0      5   1.33   3519   2981   8139   6645  17325   3583  227.2  0.470  10824      7  0.000  0.000  0.505  0.000   0.60  75.19   0.62      0  10824     37.8   0.00   0.00   1.25   3.96   3.96   3.96   3.90   3.89   3.88   3.67   1.24   0.00   0.00      0      0      0       0    2508
 1993 014   156   153   22.0      5   1.28   3519   2847   8407   6611  17459   3583  234.7  0.482  11093      7  0.000  0.000  0.529  0.000   0.59  75.79   0.64      0  11093     36.4   0.00   0.00   1.25   3.96   3.96   3.96   3.90   3.89   3.88   3.67   1.24   0.00   0.00      0      0      0       0    2542
 1993 015   157   154   22.0      5   1.23   3519   2771   8676   6578  17651   3583  242.2  0.492  11362      7  0.000  0.000  0.538  0.000   0.58  76.36   0.64      0  11362     34.9   0.00   0.00   1.25   3.96   3.96   3.96   3.90   3.89   3.88   3.67   1.24   0.00   0.00      0      0      0       0    2575
 1993 016   158   155   22.0      5   1.18   3519   2734   8786   6545  17725   3583  245.3  0.496  11472      7  0.000  0.000  0.541  0.000   0.58  76.59   0.65      0  11472     33.6   0.00   0.00   1.25   3.96   3.96   3.96   3.90   3.89   3.88   3.67   1.24   0.00   0.00      0      0      0       0    2607
 1993 017   159   156   22.0      5   1.14   3519   2734   8946   6513  17884   3583  249.7  0.500  11632      7  0.000  0.000  0.532  0.071   0.57  76.91   0.65      0  11632     32.3   0.00   0.00   1.25   3.96   3.96   3.96   3.90   3.89   3.88   3.67   1.24   0.00   0.00      0      0      0       0    2640
 1993 018   160   157   22.0      5   1.09   3519   2734   9098   6480  18037   3583  254.0  0.504  11784      7  0.000  0.000  0.538  0.021   0.56  77.21   0.65      0  11784     31.0   0.00   0.00   1.25   3.96   3.96   3.96   3.90   3.89   3.88   3.67   1.24   0.00   0.00      0      0      0       0    2673
 1993 019   161   158   22.0      5   1.09   3519   2734   9098   6480  18037   3583  254.0  0.504  11784      7  0.000  0.000  0.538  0.021   0.56  77.21   0.65      0  11784     31.0   0.00   0.00   1.25   3.96   3.96   3.96   3.90   3.89   3.88   3.67   1.24   0.00   0.00      0      0      0       0    2673
 1993 020   162   159   22.0      5   1.09   3519   2734   9098   6480  18037   3583  254.0  0.504  11784      7  0.000  0.000  0.538  0.021   0.56  77.21   0.65      0  11784     31.0   0.00   0.00   1.25   3.96   3.96   3.96   3.90   3.89   3.88   3.67   1.24   0.00   0.00      0      0      0       0    2673
 1993 021   163   160   22.0      5   1.09   3519   2734   9098   6480  18037   3583  254.0  0.504  11784      7  0.000  0.000  0.538  0.021   0.56  77.21   0.65      0  11784     31.0   0.00   0.00   1.25   3.96   3.96   3.96   3.90   3.89   3.88   3.67   1.24   0.00   0.00      0      0      0       0    2673

*DSSAT Cropping System Model Ver. 4.0.2.000               Aug 11, 2016; 20:58:27

*RUN   2        : UYMZ                    
 MODEL          : MZCER040 - Maize           
 EXPERIMENT     : UYMZ0186 MZ    late to create DSS                             
 TREATMENT  1   : UYMZ                    

@YEAR DOY   DAS   DAP   L#SD   GSTD   LAID   LWAD   SWAD   GWAD   RWAD   CWAD   G#AD   GWGD   HIAD   PWAD   P#AD   WSPD   WSGD   NSTD   EWSD   LN%D   SH%D   HIPD   PWDD   PWTD     SLAD   CHTD   CWID   RDPD   RL1D   RL2D   RL3D   RL4D   RL5D   RL6D   RL7D   RL8D   RL9D   RL10   CDAD   LDAD   SDAD   SNW0C   SNW1C
 1993 227     3     0    0.0      0   0.00      0      0      0      0      0      0    0.0  0.000      0      0  0.000  0.000  0.000  0.000   0.00   0.00   0.00      0      0      0.0   0.00   0.00   0.03   0.00   0.00   0.00   0.00   0.00   0.00   0.00   0.00   0.00   0.00      0      0      0       0       0
 1993 228     4     1    0.0      0   0.00      0      0      0      0      0      0    0.0  0.000      0      0  0.000  0.000  0.000  0.000   0.00   0.00   0.00      0      0      0.0   0.00   0.00   0.03   0.00   0.00   0.00   0.00   0.00   0.00   0.00   0.00   0.00   0.00      0      0      0       0       0
 1993 229     5     2    0.0      0   0.00      0      0      0      0      0      0    0.0  0.000      0      0  0.000  0.000  0.000  0.000   0.00   0.00   0.00      0      0      0.0   0.00   0.00   0.04   0.00   0.00   0.00   0.00   0.00   0.00   0.00   0.00   0.00   0.00      0      0      0       0       0
 1993 230     6     3    0.0      0   0.00      0      0      0      0      0      0    0.0  0.000      0      0  0.000  0.000  0.000  0.000   0.00   0.00   0.00      0      0      0.0   0.00   0.00   0.04   0.00   0.00   0.00   0.00   0.00   0.00   0.00   0.00   0.00   0.00      0      0      0       0       0
 1993 231     7     4    0.0      0   0.00      0      0      0      0      0      0    0.0  0.000      0      0  0.000  0.000  0.000  0.000   0.00   0.00   0.00      0      0      0.0   0.00   0.00   0.04   0.00   0.00   0.00   0.00   0.00   0.00   0.00   0.00   0.00   0.00      0      0      0       0       0
 1993 232     8     5    0.0      0   0.00      0      0      0      0      0      0    0.0  0.000      0      0  0.000  0.000  0.000  0.000   0.00   0.00   0.00      0      0      0.0   0.00   0.00   0.05   0.00   0.00   0.00   0.00   0.00   0.00   0.00   0.00   0.00   0.00      0      0      0       0       0
 1993 233     9     6    0.0      0   0.00      0      0      0      0      0      0    0.0  0.000      0      0  0.000  0.000  0.000  0.000   0.00   0.00   0.00      0      0      0.0   0.00   0.00   0.05   0.00   0.00   0.00   0.00   0.00   0.00   0.00   0.00   0.00   0.00      0      0      0       0       0
 1993 234    10     7    0.0      0   0.00      0      0      0      0      0      0    0.0  0.000      0      0  0.000  0.000  0.000  0.000   0.00   0.00   0.00      0      0      0.0   0.00   0.00   0.06   0.00   0.00   0.00   0.00   0.00   0.00   0.00   0.00   0.00   0.00      0      0      0       0       0
 1993 235    11     8    0.0      0   0.00      0      0      0      0      0      0    0.0  0.000      0      0  0.000  0.000  0.000  0.000   0.00   0.00   0.00      0      0      0.0   0.00   0.00   0.07   0.00   0.00   0.00   0.00   0.00   0.00   0.00   0.00   0.00   0.00      0      0      0       0       0
 1993 236    12     9    0.0      0   0.00      0      0      0      0      0      0    0.0  0.000      0      0  0.000  0.000  0.000  0.000   0.00   0.00   0.00      0      0      0.0   0.00   0.00   0.08   0.00   0.00   0.00   0.00   0.00   0.00   0.00   0.00   0.00   0.00      0      0      0       0       0
 1993 237    13    10    0.0      0   0.00      0      0      0      0      0      0    0.0  0.000      0      0  0.000  0.000  0.000  0.000   0.00   0.00   0.00      0      0      0.0   0.00   0.00   0.10   0.00   0.00   0.00   0.00   0.00   0.00   0.00   0.00   0.00   0.00      0      0      0       0       0
 1993 238    14    11    0.0      0   0.00      0      0      0      0      0      0    0.0  0.000      0      0  0.000  0.000  0.000  0.000   0.00   0.00   0.00      0      0      0.0   0.00   0.00   0.11   0.00   0.00   0.00   0.00   0.00   0.00   0.00   0.00   0.00   0.00      0      0      0       0       0
 1993 239    15    12    2.0      1   0.00     14     14      0     14     28      0    0.0  0.000      0      0  0.000  0.000  0.012  0.000   4.40   0.00   0.00      0      0     25.6   0.00   0.00   0.13   0.28   0.09   0.00   0.00   0.00   0.00   0.00   0.00   0.00   0.00      0      0      0       0       0
 1993 240    16    13    2.0      1   0.01     14     14      0     14     28      0    0.0  0.000      0      0  0.000  0.000  0.014  0.000   4.51   0.00   0.00      0      0     58.3   0.00   0.00   0.14   0.28   0.09   0.00   0.00   0.00   0.00   0.00   0.00   0.00   0.00      0      0      0       0       0
 1993 241    17    14    2.0      1   0.01     14     14      0     15     28      0    0.0  0.000      0      0  0.000  0.000  0.000  0.000   4.51   0.00   0.00      0      0     76.4   0.00   0.00   0.15   0.28   0.10   0.00   0.00   0.00   0.00   0.00   0.00   0.00   0.00      0      0      0       0       0
 1993 242    18    15    3.0      1   0.01     14     14      0     15     28      0    0.0  0.000      0      0  0.000  0.000  0.000  0.000   4.51   0.00   0.00      0      0     90.2   0.00   0.00   0.16   0.29   0.10   0.00   0.00   0.00   0.00   0.00   0.00   0.00   0.00      0      0      0       0       0
 1993 243    19    16    3.0      1   0.01     14     14      0     15     28      0    0.0  0.000      0      0  0.000  0.000  0.000  0.000   4.46   0.00   0.00      0      0     95.8   0.00   0.00   0.16   0.27   0.10   0.00   0.00   0.00   0.00   0.00   0.00   0.00   0.00      0      0      0       0       0
 1993 244    20    17    3.0      1   0.01     14     14      0     16     28      0    0.0  0.000      0      0  0.000  0.000  0.000  0.365   4.45   0.00   0.00      0      0    101.2   0.00   0.00   0.17   0.26   0.10   0.00   0.00   0.00   0.00   0.00   0.00   0.00   0.00      0      0      0       0       0
 1993 245    21    18    3.0      1   0.01     14     14      0     17     28      0    0.0  0.000      0      0  0.000  0.000  0.000  0.290   4.45   0.00   0.00      0      0    105.7   0.00   0.00   0.17   0.25   0.11   0.00   0.00   0.00   0.00   0.00   0.00   0.00   0.00      0      0      0       0       0
 1993 246    22    19    3.0      1   0.02     14     14      0     19     28      0    0.0  0.000      0      0  0.000  0.000  0.000  0.090   4.44   0.00   0.00      0      0    110.8   0.00   0.00   0.17   0.26   0.13   0.00   0.00   0.00   0.00   0.00   0.00   0.00   0.00      0      0      0       0       0
 1993 247    23    20    3.0      1   0.02     14     14      0     21     28      0    0.0  0.000      0      0  0.000  0.000  0.000  0.002   4.41   0.00   0.00      0      0    130.6   0.00   0.00   0.18   0.27   0.16   0.01   0.00   0.00   0.00   0.00   0.00   0.00   0.00      0      0      0       0       0
 1993 248    24    21    4.0      1   0.03     14     14      0     24     28      0    0.0  0.000      0      0  0.000  0.000  0.000  0.000   4.40   0.00   0.00      0      0    188.5   0.00   0.00   0.19   0.29   0.20   0.02   0.00   0.00   0.00   0.00   0.00   0.00   0.00      0      0      0       0       1
 1993 249    25    22    4.0      1   0.04     14     14      0     28     28      0    0.0  0.000      0      0  0.000  0.000  0.000  0.000   4.37   0.00   0.00      0      0    255.8   0.00   0.00   0.20   0.31   0.24   0.04   0.00   0.00   0.00   0.00   0.00   0.00   0.00      0      0      0       0       1
 1993 250    26    23    4.0      1   0.04     14     14      0     33     28      0    0.0  0.000      0      0  0.000  0.000  0.000  0.000   4.36   0.00   0.00      0      0    294.1   0.00   0.00   0.20   0.33   0.29   0.05   0.00   0.00   0.00   0.00   0.00   0.00   0.00      0      0      0       0       1
 1993 251    27    24    4.0      1   0.04     14     14      0     38     28      0    0.0  0.000      0      0  0.000  0.000  0.000  0.000   4.35   0.00   0.00      0      0    321.2   0.00   0.00   0.21   0.36   0.34   0.08   0.00   0.00   0.00   0.00   0.00   0.00   0.00      0      0      0       0       1
 1993 252    28    25    4.0      1   0.05     16     14      0     44     30      0    0.0  0.000      0      0  0.000  0.000  0.000  0.000   4.09   0.00   0.00      0      0    315.7   0.00   0.00   0.21   0.40   0.40   0.11   0.00   0.00   0.00   0.00   0.00   0.00   0.00      0      0      0       0       1
 1993 253    29    26    4.0      1   0.06     19     14      0     51     33      0    0.0  0.000      0      0  0.000  0.000  0.000  0.000   3.87   0.00   0.00      0      0    302.8   0.00   0.00   0.22   0.44   0.47   0.14   0.00   0.00   0.00   0.00   0.00   0.00   0.00      0      0      0       0       1
 1993 254    30    27    4.0      1   0.06     21     14      0     55     35      0    0.0  0.000      0      0  0.000  0.000  0.000  0.000   4.13   0.00   0.00      0      0    297.6   0.00   0.00   0.22   0.47   0.50   0.16   0.00   0.00   0.00   0.00   0.00   0.00   0.00      0      0      0       0       2
 1993 255    31    28    5.0      1   0.07     24     14      0     63     38      0    0.0  0.000      0      0  0.000  0.000  0.000  0.000   3.98   0.00   0.00      0      0    280.5   0.00   0.00   0.23   0.52   0.57   0.20   0.00   0.00   0.00   0.00   0.00   0.00   0.00      0      0      0       0       2
 1993 256    32    29    5.0      1   0.07     26     14      0     65     40      0    0.0  0.000      0      0  0.000  0.000  0.000  0.000   4.03   0.00   0.00      0      0    276.9   0.00   0.00   0.23   0.53   0.59   0.21   0.00   0.00   0.00   0.00   0.00   0.00   0.00      0      0      0       0       2
 1993 257    33    30    5.0      1   0.08     31     14      0     70     45      0    0.0  0.000      0      0  0.000  0.000  0.000  0.000   3.86   0.00   0.00      0      0    271.7   0.00   0.00   0.24   0.56   0.63   0.24   0.00   0.00   0.00   0.00   0.00   0.00   0.00      0      0      0       0       3
 1993 258    34    31    5.0      1   0.10     37     14      0     78     51      0    0.0  0.000      0      0  0.000  0.000  0.000  0.000   3.71   0.00   0.00      0      0    264.8   0.00   0.00   0.24   0.61   0.70   0.28   0.00   0.00   0.00   0.00   0.00   0.00   0.00      0      0      0       0       3
 1993 259    35    32    5.0      1   0.12     46     14      0     91     60      0    0.0  0.000      0      0  0.000  0.000  0.000  0.000   3.61   0.00   0.00      0      0    256.9   0.00   0.00   0.26   0.68   0.79   0.36   0.00   0.00   0.00   0.00   0.00   0.00   0.00      0      0      0       0       3
 1993 260    36    33    6.0      1   0.14     56     14      0    107     70      0    0.0  0.000      0      0  0.000  0.000  0.000  0.000   3.63   0.00   0.00      0      0    249.6   0.00   0.00   0.27   0.77   0.91   0.46   0.00   0.00   0.00   0.00   0.00   0.00   0.00      0      0      0       0       4
 1993 261    37    34    6.0      1   0.16     67     14      0    114     81      0    0.0  0.000      0      0  0.000  0.000  0.000  0.000   3.60   0.00   0.00      0      0    242.3   0.00   0.00   0.28   0.81   0.96   0.51   0.00   0.00   0.00   0.00   0.00   0.00   0.00      0      0      0       0       4
 1993 262    38    35    6.0      1   0.19     78     14      0    129     92      0    0.0  0.000      0      0  0.000  0.000  0.000  0.000   3.64   0.00   0.00      0      0    236.0   0.00   0.00   0.29   0.89   1.06   0.61   0.00   0.00   0.00   0.00   0.00   0.00   0.00      0      0      0       0       5
 1993 263    39    36    6.0      1   0.20     87     14      0    149    101      0    0.0  0.000      0      0  0.000  0.000  0.000  0.000   3.80   0.00   0.00      0      0    232.0   0.00   0.00   0.29   0.99   1.19   0.75   0.00   0.00   0.00   0.00   0.00   0.00   0.00      0      0      0       0       5
 1993 264    40    37    6.0      1   0.20     88     14      0    153    102      0    0.0  0.000      0      0  0.000  0.000  0.000  0.000   4.12   0.00   0.00      0      0    223.3   0.00   0.00   0.29   1.01   1.21   0.78   0.00   0.00   0.00   0.00   0.00   0.00   0.00      0      0      0       0       6
 1993 265    41    38    6.0      1   0.19     89     14      0    155    103      0    0.0  0.000      0      0  0.000  0.000  0.000  0.000   4.07   0.00   0.00      0      0    217.9   0.00   0.00   0.29   1.02   1.22   0.80   0.00   0.00   0.00   0.00   0.00   0.00   0.00      0      0      0       0       6
 1993 266    42    39    6.0      1   0.21     95     14      0    159    109      0    0.0  0.000      0      0  0.000  0.000  0.002  0.000   3.84   0.00   0.00      0      0    216.1   0.00   0.00   0.30   1.04   1.24   0.82   0.00   0.00   0.00   0.00   0.00   0.00   0.00      0      0      0       0       6
 1993 267    43    40    7.0      1   0.22    105     14      0    164    119      0    0.0  0.000      0      0  0.000  0.000  0.006  0.000   3.78   0.00   0.00      0      0    213.3   0.00   0.00   0.30   1.06   1.27   0.86   0.00   0.00   0.00   0.00   0.00   0.00   0.00      0      0      0       0       7
 1993 268    44    41    7.0      1   0.25    117     14      0    171    131      0    0.0  0.000      0      0  0.000  0.000  0.000  0.000   3.72   0.00   0.00      0      0    210.2   0.00   0.00   0.31   1.10   1.32   0.91   0.00   0.00   0.00   0.00   0.00   0.00   0.00      0      0      0       0       8
 1993 269    45    42    7.0      1   0.26    125     14      0    179    139      0    0.0  0.000      0      0  0.000  0.000  0.000  0.000   3.85   0.00   0.00      0      0    208.3   0.00   0.00   0.31   1.12   1.37   0.97   0.00   0.00   0.00   0.00   0.00   0.00   0.00      0      0      0       0       9
 1993 270    46    43    7.0      1   0.29    141     14      0    208    155      0    0.0  0.000      0      0  0.000  0.000  0.000  0.000   3.65   0.00   0.00      0      0    204.8   0.00   0.00   0.32   1.22   1.55   1.18   0.01   0.00   0.00   0.00   0.00   0.00   0.00      0      0      0       0      10
 1993 271    47    44    7.0      1   0.32    157     14      0    248    171      0    0.0  0.000      0      0  0.000  0.000  0.000  0.000   3.65   0.00   0.00      0      0    201.4   0.00   0.00   0.32   1.35   1.80   1.48   0.03   0.00   0.00   0.00   0.00   0.00   0.00      0      0      0       0      11
 1993 272    48    45    8.0      1   0.34    171     14      0    278    185      0    0.0  0.000      0      0  0.000  0.000  0.000  0.000   3.74   0.00   0.00      0      0    198.9   0.00   0.00   0.33   1.45   1.99   1.69   0.05   0.00   0.00   0.00   0.00   0.00   0.00      0      0      0       0      12
 1993 273    49    46    8.0      1   0.38    193     14      0    286    207      0    0.0  0.000      0      0  0.000  0.000  0.000  0.000   3.59   0.00   0.00      0      0    195.3   0.00   0.00   0.35   1.47   2.04   1.75   0.06   0.00   0.00   0.00   0.00   0.00   0.00      0      0      0       0      13
 1993 274    50    47    8.0      1   0.42    221     14      0    296    235      0    0.0  0.000      0      0  0.000  0.000  0.000  0.000   3.50   0.00   0.00      0      0    191.0   0.00   0.00   0.36   1.51   2.09   1.82   0.07   0.00   0.00   0.00   0.00   0.00   0.00      0      0      0       0      15
 1993 275    51    48    8.0      1   0.46    246     14      0    303    260      0    0.0  0.000      0      0  0.000  0.000  0.000  0.000   3.58   0.00   0.00      0      0    187.7   0.00   0.00   0.37   1.53   2.13   1.87   0.08   0.00   0.00   0.00   0.00   0.00   0.00      0      0      0       0      16
 1993 276    52    49    9.0      1   0.50    272     14      0    327    286      0    0.0  0.000      0      0  0.000  0.000  0.000  0.000   3.59   0.00   0.00      0      0    184.6   0.00   0.00   0.38   1.59   2.27   2.03   0.12   0.00   0.00   0.00   0.00   0.00   0.00      0      0      0       0      18
 1993 277    53    50    9.0      1   0.54    297     14      0    338    311      0    0.0  0.000      0      0  0.000  0.000  0.000  0.000   3.61   0.00   0.00      0      0    181.9   0.00   0.00   0.39   1.62   2.33   2.11   0.14   0.00   0.00   0.00   0.00   0.00   0.00      0      0      0       0      19
 1993 278    54    51    9.0      1   0.57    317     14      0    405    331      0    0.0  0.000      0      0  0.000  0.000  0.000  0.000   3.67   0.00   0.00      0      0    179.9   0.00   0.00   0.40   1.80   2.70   2.55   0.26   0.00   0.00   0.00   0.00   0.00   0.00      0      0      0       0      21
 1993 279    55    52    9.0      1   0.60    338     14      0    489    352      0    0.0  0.000      0      0  0.000  0.000  0.000  0.000   3.66   0.00   0.00      0      0    177.0   0.00   0.00   0.41   2.04   3.16   3.09   0.42   0.00   0.00   0.00   0.00   0.00   0.00      0      0      0       0      23
 1993 280    56    53    9.0      2   0.66    347     14      0    585    361      0    0.0  0.000      0      0  0.000  0.000  0.000  0.000   3.78   0.00   0.00      0      0    188.8   0.00   0.00   0.42   2.31   3.68   3.71   0.62   0.00   0.00   0.00   0.00   0.00   0.00      0      0      0       0      25
 1993 281    57    54   10.0      2   0.74    403     14      0    641    417      0    0.0  0.000      0      0  0.000  0.000  0.003  0.000   3.38   0.00   0.00      0      0    183.9   0.00   0.00   0.44   2.46   3.96   4.00   0.76   0.00   0.00   0.00   0.00   0.00   0.00      0      0      0       0      28
 1993 282    58    55   10.0      2   0.84    470     14      0    691    484      0    0.0  0.000      0      0  0.000  0.000  0.000  0.000   3.29   0.00   0.00      0      0    178.0   0.00   0.00   0.46   2.60   4.00   4.00   0.89   0.00   0.00   0.00   0.00   0.00   0.00      0      0      0       0      32
 1993 283    59    56   11.0      2   0.97    567     14      0    770    581      0    0.0  0.000      0      0  0.000  0.000  0.000  0.000   3.78   0.00   0.00      0      0    171.2   0.00   0.00   0.48   2.82   4.00   4.00   1.09   0.03   0.00   0.00   0.00   0.00   0.00      0      0      0       0      35
 1993 284    60    57   11.0      3   1.09    664     14      0    855    679      0    0.0  0.000      0      0  0.000  0.000  0.022  0.000   3.68   0.00   0.00      0      0    164.8   0.00   0.00   0.50   3.04   4.00   4.00   1.29   0.08   0.00   0.00   0.00   0.00   0.00      0      0      0       0      39
 1993 285    61    58   11.0      3   1.19    740     15      0    859    755      0    0.0  0.000      0      0  0.000  0.000  0.022  0.000   3.57   0.00   0.00      0      0    161.3   0.00   0.00   0.52   3.05   4.00   4.00   1.31   0.08   0.00   0.00   0.00   0.00   0.00      0      0      0       0      43
 1993 286    62    59   12.0      3   1.29    812     17      0    866    829      0    0.0  0.000      0      0  0.000  0.000  0.022  0.000   3.54   0.00   0.00      0      0    158.2   0.00   0.00   0.53   3.05   4.00   4.00   1.33   0.09   0.00   0.00   0.00   0.00   0.00      0      0      0       0      47
 1993 287    63    60   12.0      3   1.39    899     19      0    879    918      0    0.0  0.000      0      0  0.000  0.000  0.022  0.000   3.51   0.00   0.00      0      0    155.0   0.00   0.00   0.55   3.06   4.00   4.00   1.36   0.11   0.00   0.00   0.00   0.00   0.00      0      0      0       0      52
 1993 288    64    61   12.0      3   1.50    989     23      0    961   1013      0    0.0  0.000      0      0  0.000  0.000  0.022  0.000   3.47   0.00   0.00      0      0    152.1   0.00   0.00   0.56   3.17   4.00   4.00   1.57   0.21   0.00   0.00   0.00   0.00   0.00      0      0      0       0      56
 1993 289    65    62   13.0      3   1.65   1112     32      0   1079   1144      0    0.0  0.000      0      0  0.000  0.000  0.022  0.000   3.43   0.00   0.00      0      0    148.6   0.00   0.00   0.58   3.33   4.00   4.00   1.86   0.39   0.00   0.00   0.00   0.00   0.00      0      0      0       0      61
 1993 290    66    63   13.0      3   1.76   1206     41      0   1093   1248      0    0.0  0.000      0      0  0.000  0.000  0.022  0.000   3.39   0.00   0.00      0      0    146.1   0.00   0.00   0.59   3.31   4.00   4.00   1.90   0.42   0.00   0.00   0.00   0.00   0.00      0      0      0       0      66
 1993 291    67    64   13.0      3   1.83   1264     48      0   1206   1312      0    0.0  0.000      0      0  0.000  0.000  0.022  0.000   3.37   0.00   0.00      0      0    144.5   0.00   0.00   0.60   3.29   4.00   4.00   2.21   0.65   0.00   0.00   0.00   0.00   0.00      0      0      0       0      72
 1993 292    68    65   13.0      3   1.92   1344     58      0   1303   1402      0    0.0  0.000      0      0  0.000  0.000  0.022  0.034   3.34   0.00   0.00      0      0    142.6   0.00   0.00   0.61   3.29   4.00   4.00   2.49   0.85   0.00   0.00   0.00   0.00   0.00      0      0      0       0      78
 1993 293    69    66   14.0      3   2.03   1447     75      0   1376   1522      0    0.0  0.000      0      0  0.000  0.000  0.022  0.093   3.31   0.00   0.00      0      0    140.5   0.00   0.00   0.63   3.28   4.00   4.00   2.70   1.00   0.01   0.00   0.00   0.00   0.00      0      0      0       0      84
 1993 294    70    67   14.0      3   2.17   1568    101      0   1450   1669      0    0.0  0.000      0      0  0.000  0.000  0.022  0.030   3.27   0.00   0.00      0      0    138.2   0.00   0.00   0.64   3.27   4.00   4.00   2.92   1.16   0.01   0.00   0.00   0.00   0.00      0      0      0       0      91
 1993 295    71    68   14.0      3   2.24   1635    117      0   1469   1751      0    0.0  0.000      0      0  0.000  0.000  0.022  0.002   3.25   0.00   0.00      0      0    136.8   0.00   0.00   0.65   3.25   4.00   4.00   2.98   1.21   0.02   0.00   0.00   0.00   0.00      0      0      0       0      99
 1993 296    72    69   14.0      3   2.28   1682    129      0   1494   1811      0    0.0  0.000      0      0  0.000  0.000  0.022  0.195   3.24   0.00   0.00      0      0    135.8   0.00   0.00   0.66   3.23   4.00   4.00   3.06   1.27   0.02   0.00   0.00   0.00   0.00      0      0      0       0     106
 1993 297    73    70   14.0      3   2.34   1735    144      0   1522   1879      0    0.0  0.000      0      0  0.000  0.000  0.022  0.125   3.22   0.00   0.00      0      0    134.7   0.00   0.00   0.66   3.20   4.00   4.00   3.13   1.34   0.03   0.00   0.00   0.00   0.00      0      0      0       0     113
 1993 298    74    71   15.0      3   2.39   1788    160      0   1592   1948      0    0.0  0.000      0      0  0.000  0.000  0.022  0.113   3.20   0.00   0.00      0      0    133.7   0.00   0.00   0.67   3.17   4.00   4.00   3.34   1.51   0.04   0.00   0.00   0.00   0.00      0      0      0       0     121
 1993 299    75    72   15.0      3   2.44   1837    176      0   1798   2013      0    0.0  0.000      0      0  0.000  0.000  0.022  0.007   3.18   0.00   0.00      0      0    132.7   0.00   0.00   0.68   3.16   4.00   4.00   3.98   1.99   0.10   0.00   0.00   0.00   0.00      0      0      0       0     129
 1993 300    76    73   15.0      3   2.51   1905    200      0   1967   2105      0    0.0  0.000      0      0  0.000  0.000  0.022  0.001   3.16   0.00   0.00      0      0    131.6   0.00   0.00   0.69   3.15   4.00   4.00   4.00   2.43   0.16   0.00   0.00   0.00   0.00      0      0      0       0     138
 1993 301    77    74   15.0      3   2.62   2013    243      0   2137   2256      0    0.0  0.000      0      0  0.000  0.000  0.022  0.001   3.13   0.00   0.00      0      0    130.1   0.00   0.00   0.70   3.14   4.00   4.00   4.00   2.90   0.23   0.00   0.00   0.00   0.00      0      0      0       0     148
 1993 302    78    75   16.0      3   2.76   2151    308      0   2165   2459      0    0.0  0.000      0      0  0.000  0.000  0.022  0.001   3.09   0.00   0.00      0      0    128.3   0.00   0.00   0.72   3.12   4.00   4.00   4.00   2.99   0.25   0.00   0.00   0.00   0.00      0      0      0       0     158
 1993 303    79    76   16.0      3   2.85   2239    355      0   2162   2594      0    0.0  0.000      0      0  0.000  0.000  0.022  0.001   3.06   0.00   0.00      0      0    127.1   0.00   0.00   0.73   3.10   3.97   3.99   4.00   2.99   0.26   0.00   0.00   0.00   0.00      0      0      0       0     169
 1993 304    80    77   16.0      3   2.93   2325    406      0   2159   2731      0    0.0  0.000      0      0  0.000  0.000  0.022  0.001   3.03   0.00   0.00      0      0    126.0   0.00   0.00   0.74   3.08   3.95   3.98   4.00   3.00   0.26   0.00   0.00   0.00   0.00      0      0      0       0     180
 1993 305    81    78   16.0      3   2.98   2382    441      0   2341   2824      0    0.0  0.000      0      0  0.000  0.000  0.022  0.113   2.99   0.00   0.00      0      0    125.2   0.00   0.00   0.75   3.01   3.85   4.00   4.00   3.70   0.46   0.00   0.00   0.00   0.00      0      0      0       0     191
 1993 306    82    79   17.0      3   3.06   2466    498      0   2531   2964      0    0.0  0.000      0      0  0.000  0.000  0.022  0.090   2.94   0.00   0.00      0      0    124.2   0.00   0.00   0.76   3.00   3.81   4.00   4.00   4.00   0.70   0.00   0.00   0.00   0.00      0      0      0       0     203
 1993 307    83    80   17.0      3   3.18   2590    589      0   2679   3179      0    0.0  0.000      0      0  0.000  0.000  0.022  0.011   2.83   0.00   0.00      0      0    122.9   0.00   0.00   0.77   3.02   3.82   4.00   4.00   4.00   0.93   0.00   0.00   0.00   0.00      0      0      0       0     215
 1993 308    84    81   17.0      3   3.31   2726    702      0   2817   3428      0    0.0  0.000      0      0  0.000  0.000  0.022  0.007   2.70   0.00   0.00      0      0    121.6   0.00   0.00   0.79   3.08   3.87   4.00   4.00   4.00   1.16   0.00   0.00   0.00   0.00      0      0      0       0     229
 1993 309    85    82   18.0      3   3.39   2807    775      0   2812   3582      0    0.0  0.000      0      0  0.000  0.000  0.022  0.006   2.65   0.00   0.00      0      0    120.7   0.00   0.00   0.80   3.06   3.84   3.97   3.99   4.00   1.17   0.00   0.00   0.00   0.00      0      0      0       0     243
 1993 310    86    83   18.0      3   3.43   2862    826      0   2855   3688      0    0.0  0.000      0      0  0.000  0.000  0.026  0.004   2.63   0.00   0.00      0      0    119.9   0.00   0.00   0.81   3.10   3.88   4.00   4.00   4.00   1.26   0.00   0.00   0.00   0.00      0      0      0       0     257
 1993 311    87    84   18.0      3   3.50   2936    899      0   3043   3835      0    0.0  0.000      0      0  0.000  0.000  0.028  0.000   2.56   0.00   0.00      0      0    119.1   0.00   0.00   0.81   3.42   4.00   4.00   4.00   4.00   1.61   0.00   0.00   0.00   0.00      0      0      0       0     271
 1993 312    88    85   18.0      3   3.58   3035   1003      0   3208   4039      0    0.0  0.000      0      0  0.000  0.000  0.029  0.000   2.46   0.00   0.00      0      0    118.0   0.00   0.00   0.83   3.87   4.00   4.00   4.00   4.00   1.90   0.00   0.00   0.00   0.00      0      0      0       0     286
 1993 313    89    86   18.0      3   3.70   3167   1155      0   3328   4322      0    0.0  0.000      0      0  0.000  0.000  0.031  0.000   2.33   0.00   0.00      0      0    116.8   0.00   0.00   0.84   4.00   4.00   4.00   4.00   4.00   2.03   0.00   0.00   0.00   0.00      0      0      0       0     302
 1993 314    90    87   19.0      3   3.84   3326   1358      0   3350   4684      0    0.0  0.000      0      0  0.000  0.000  0.034  0.000   2.17   0.00   0.00      0      0    115.5   0.00   0.00   0.86   4.00   4.00   4.00   4.00   4.00   2.06   0.00   0.00   0.00   0.00      0      0      0       0     319
 1993 315    91    88   19.0      3   3.89   3397   1457      0   3343   4854      0    0.0  0.000      0      0  0.000  0.000  0.041  0.000   2.11   0.00   0.00      0      0    114.6   0.00   0.00   0.88   4.00   4.00   4.00   3.99   3.99   2.06   0.00   0.00   0.00   0.00      0      0      0       0     336
 1993 316    92    89   20.0      3   4.09   3630   1547      0   3344   5177      0    0.0  0.000      0      0  0.000  0.000  0.051  0.000   1.99   0.00   0.00      0      0    112.7   0.00   0.00   0.89   4.00   4.00   4.00   4.00   4.00   2.07   0.00   0.00   0.00   0.00      0      0      0       0     352
[...]
 1995 321    97    94   21.0      3   3.71   3630   2470      0   4456   6101      0    0.0  0.000      0      0  0.000  0.000  0.102  0.087   1.52   0.00   0.00      0      0    102.2   0.00   0.00   0.94   4.00   4.00   4.00   4.00   4.00   3.90   0.63   0.00   0.00   0.00      0      0      0       0     604
 1995 322    98    95   21.0      3   3.70   3674   2590      0   4602   6264      0    0.0  0.000      0      0  0.000  0.000  0.105  0.120   1.49   0.00   0.00      0      0    100.8   0.00   0.00   0.95   4.00   4.00   4.00   4.00   4.00   4.00   1.25   0.00   0.00   0.00      0      0      0       0     627
 1995 323    99    96   22.0      3   3.69   3715   2711      0   4760   6426      0    0.0  0.000      0      0  0.000  0.000  0.107  0.034   1.47   0.00   0.00      0      0     99.4   0.00   0.00   0.96   4.00   4.00   4.00   4.00   4.00   4.00   1.92   0.00   0.00   0.00      0      0      0       0     650
 1995 324   100    97   22.0      3   3.69   3760   2845      0   4913   6605      0    0.0  0.000      0      0  0.000  0.000  0.108  0.000   1.45   0.00   0.00      0      0     98.0   0.00   0.00   0.97   4.00   4.00   4.00   4.00   4.00   4.00   2.57   0.00   0.00   0.00      0      0      0       0     673
 1995 325   101    98   22.0      3   3.69   3814   3003      0   4966   6817      0    0.0  0.000      0      0  0.000  0.000  0.110  0.000   1.42   0.00   0.00      0      0     96.7   0.00   0.00   0.98   4.00   4.00   4.00   4.00   4.00   4.00   2.84   0.00   0.00   0.00      0      0      0       0     698
 1995 326   102    99   22.0      3   3.68   3866   3158      0   4953   7024      0    0.0  0.000      0      0  0.000  0.000  0.111  0.000   1.39   0.00   0.00      0      0     95.3   0.00   0.00   1.00   4.00   4.00   4.00   3.99   3.99   3.99   2.86   0.00   0.00   0.00      0      0      0       0     723
 1995 327   103   100   22.0      3   3.68   3917   3310      0   4992   7227      0    0.0  0.000      0      0  0.000  0.000  0.115  0.000   1.37   0.00   0.00      0      0     94.0   0.00   0.00   1.01   4.00   4.00   4.00   4.00   4.00   4.00   3.06   0.00   0.00   0.00      0      0      0       0     748
 1995 328   104   101   22.0      3   3.67   3963   3445      0   5077   7408      0    0.0  0.000      0      0  0.000  0.000  0.118  0.000   1.35   0.00   0.00      0      0     92.6   0.00   0.00   1.02   4.00   4.00   4.00   4.00   4.00   4.00   3.38   0.00   0.00   0.00      0      0      0       0     773
 1995 329   105   102   22.0      3   3.65   4006   3574      0   5162   7581      0    0.0  0.000      0      0  0.000  0.000  0.122  0.000   1.33   0.00   0.00      0      0     91.2   0.00   0.00   1.03   4.00   4.00   4.00   4.00   4.00   4.00   3.65   0.00   0.00   0.00      0      0      0       0     798
 1995 330   106   103   22.0      3   3.65   4066   3748      0   5258   7814      0    0.0  0.000      0      0  0.000  0.000  0.124  0.000   1.30   0.00   0.00      0      0     89.8   0.00   0.00   1.05   4.00   4.00   4.00   4.00   4.00   4.00   3.89   0.00   0.00   0.00      0      0      0       0     824
 1995 331   107   104   22.0      3   3.62   4097   3842      0   5421   7939      0    0.0  0.000      0      0  0.000  0.000  0.127  0.000   1.29   0.00   0.00      0      0     88.5   0.00   0.00   1.06   4.00   4.00   4.00   4.00   4.00   4.00   4.00   0.00   0.00   0.00      0      0      0       0     850
 1995 332   108   105   22.0      4   3.56   4056   3233      0   5599   8012      0    0.0  0.000    723      0  0.000  0.000  0.133  0.000   1.41   0.00   0.09      0    723     87.9   0.00   0.00   1.06   4.00   4.00   4.00   4.00   4.00   4.00   4.00   0.00   0.00   0.00      0      0      0       0     877
 1995 333   109   106   22.0      4   3.51   4011   3282      0   5754   8141      0    0.0  0.000    847      0  0.000  0.000  0.131  0.000   1.42   0.00   0.10      0    847     87.4   0.00   0.00   1.07   4.00   4.00   4.00   4.00   4.00   4.00   4.00   0.00   0.00   0.00      0      0      0       0     905
 1995 334   110   107   22.0      4   3.46   3964   3351      0   5865   8333      0    0.0  0.000   1018      0  0.000  0.000  0.097  0.000   1.42   0.00   0.12      0   1018     87.4   0.00   0.00   1.09   4.00   4.00   4.00   4.00   4.00   4.00   4.00   0.00   0.00   0.00      0      0      0       0     934
 1995 335   111   108   22.0      4   3.42   3914   3412      0   5845   8495      0    0.0  0.000   1170      0  0.000  0.000  0.091  0.000   1.43   0.00   0.14      0   1170     87.5   0.00   0.00   1.10   4.00   4.00   4.00   3.99   3.99   3.99   3.99   0.01   0.00   0.00      0      0      0       0     963
 1995 336   112   109   22.0      4   3.39   3861   3487      0   5888   8708      0    0.0  0.000   1359      0  0.000  0.000  0.086  0.000   1.43   0.00   0.16      0   1359     87.7   0.00   0.00   1.11   4.00   4.00   4.00   4.00   4.00   4.00   4.00   0.08   0.00   0.00      0      0      0       0     993
 1995 337   113   110   22.0      4   3.35   3804   3561      0   5986   8907      0    0.0  0.000   1542      0  0.000  0.000  0.080  0.000   1.44   0.00   0.17      0   1542     88.1   0.00   0.00   1.12   4.00   4.00   4.00   4.00   4.00   4.00   4.00   0.25   0.00   0.00      0      0      0       0    1022
 1995 338   114   111   22.0      4   3.32   3745   3639      0   6097   9121      0    0.0  0.000   1738      0  0.000  0.000  0.075  0.000   1.44   0.00   0.19      0   1738     88.7   0.00   0.00   1.13   4.00   4.00   4.00   4.00   4.00   4.00   4.00   0.47   0.00   0.00      0      0      0       0    1052
 1995 339   115   112   22.0      4   3.29   3682   3725      0   6164   9360      0    0.0  0.000   1953      0  0.000  0.000  0.070  0.000   1.45   0.00   0.21      0   1953     89.4   0.00   0.00   1.14   4.00   4.00   4.00   4.00   4.00   4.00   4.00   0.64   0.00   0.00      0      0      0       0    1082
 1995 340   116   113   22.0      4   3.27   3615   3817      0   6252   9617      0    0.0  0.000   2184      0  0.000  0.000  0.064  0.000   1.45   0.00   0.23      0   2184     90.3   0.00   0.00   1.15   4.00   4.00   4.00   4.00   4.00   4.00   4.00   0.86   0.00   0.00      0      0      0       0    1113
 1995 341   117   114   22.0      4   3.24   3546   3901      0   6288   9840      0    0.0  0.000   2393      0  0.000  0.000  0.060  0.000   1.46   0.00   0.24      0   2393     91.4   0.00   0.00   1.17   4.00   4.00   4.00   4.00   4.00   4.00   4.00   0.98   0.00   0.00      0      0      0       0    1144
 1995 342   118   115   22.0      4   3.22   3474   3957      0   6440   9963      0    0.0  0.000   2533      0  0.000  0.000  0.057  0.000   1.47   0.00   0.25      0   2533     92.7   0.00   0.00   1.17   4.00   4.00   4.00   4.00   4.00   4.00   4.00   1.32   0.00   0.00      0      0      0       0    1176
 1995 343   119   116   22.0      4   3.20   3400   4004      0   6615  10056      0    0.0  0.000   2652      0  0.000  0.000  0.054  0.000   1.48   0.00   0.26      0   2652     94.0   0.00   0.00   1.18   4.00   4.00   4.00   4.00   4.00   4.00   4.00   1.68   0.00   0.00      0      0      0       0    1208
 1995 344   120   117   22.0      5   3.16   3400   4004    231   6663  10288   3922    5.9  0.022   2883      7  0.000  0.000  0.095  0.000   1.44   8.02   0.28      0   2883     92.9   0.00   0.00   1.19   4.00   4.00   4.00   4.00   4.00   4.00   4.00   1.81   0.00   0.00      0      0      0       0    1241
 1995 345   121   118   22.0      5   3.12   3400   4004    486   6677  10542   3922   12.4  0.046   3138      7  0.000  0.000  0.103  0.000   1.40  15.49   0.30      0   3138     91.7   0.00   0.00   1.20   4.00   4.00   4.00   4.00   4.00   4.00   4.00   1.87   0.00   0.00      0      0      0       0    1274
 1995 346   122   119   22.0      5   3.08   3400   4004    668   6735  10724   3922   17.0  0.062   3320      7  0.000  0.000  0.111  0.000   1.38  20.11   0.31      0   3320     90.4   0.00   0.00   1.20   4.00   4.00   4.00   4.00   4.00   4.00   4.00   2.00   0.00   0.00      0      0      0       0    1308
 1995 347   123   120   22.0      5   3.03   3400   4004    944   6767  11000   3922   24.1  0.086   3596      7  0.000  0.000  0.112  0.000   1.33  26.25   0.33      0   3596     89.2   0.00   0.00   1.21   4.00   4.00   4.00   4.00   4.00   4.00   4.00   2.07   0.00   0.00      0      0      0       0    1342
 1995 348   124   121   22.0      5   2.99   3400   4004   1214   6797  11271   3922   31.0  0.108   3866      7  0.000  0.000  0.120  0.000   1.29  31.41   0.34      0   3866     87.8   0.00   0.00   1.22   4.00   4.00   4.00   4.00   4.00   4.00   4.00   2.13   0.00   0.00      0      0      0       0    1375
 1995 349   125   122   22.0      5   2.94   3400   4004   1484   6817  11541   3922   37.8  0.129   4136      7  0.000  0.000  0.127  0.000   1.25  35.89   0.36      0   4136     86.4   0.00   0.00   1.23   4.00   4.00   4.00   4.00   4.00   4.00   4.00   2.17   0.00   0.00      0      0      0       0    1409
 1995 350   126   123   22.0      5   2.89   3400   4004   1779   6820  11835   3922   45.3  0.150   4431      7  0.000  0.000  0.132  0.000   1.21  40.14   0.37      0   4431     85.0   0.00   0.00   1.24   4.00   4.00   4.00   4.00   4.00   4.00   4.00   2.18   0.00   0.00      0      0      0       0    1443
 1995 351   127   124   22.0      5   2.84   3400   4004   2073   6842  12129   3922   52.8  0.171   4725      7  0.000  0.000  0.140  0.000   1.16  43.87   0.39      0   4725     83.5   0.00   0.00   1.25   4.00   4.00   4.00   4.00   4.00   4.00   4.00   2.19   0.00   0.00      0      0      0       0    1478
 1995 352   128   125   22.0      5   2.79   3400   4004   2367   6852  12424   3922   60.3  0.191   5019      7  0.000  0.000  0.147  0.000   1.12  47.16   0.40      0   5019     82.0   0.00   0.00   1.25   4.00   4.00   4.00   4.00   4.00   4.00   4.00   2.20   0.00   0.00      0      0      0       0    1512
 1995 353   129   126   22.0      5   2.73   3400   4004   2661   6871  12718   3922   67.8  0.209   5313      7  0.000  0.000  0.155  0.000   1.08  50.09   0.42      0   5313     80.4   0.00   0.00   1.25   4.00   4.00   4.00   4.00   4.00   4.00   4.00   2.21   0.00   0.00      0      0      0       0    1546
 1995 354   130   127   22.0      5   2.68   3400   4004   2955   6888  13012   3922   75.3  0.227   5607      7  0.000  0.000  0.164  0.000   1.04  52.71   0.43      0   5607     78.8   0.00   0.00   1.25   4.00   4.00   4.00   4.00   4.00   4.00   4.00   2.22   0.00   0.00      0      0      0       0    1580
 1995 355   131   128   22.0      5   2.62   3400   4004   3250   6874  13306   3922   82.8  0.244   5902      7  0.000  0.000  0.170  0.000   1.00  55.06   0.44      0   5902     77.1   0.00   0.00   1.25   4.00   4.00   4.00   4.00   4.00   4.00   4.00   2.22   0.00   0.00      0      0      0       0    1615
 1995 356   132   129   22.0      5   2.56   3400   4000   3544   6840  13596   3922   90.3  0.261   6196      7  0.000  0.000  0.180  0.000   0.97  57.20   0.46      0   6196     75.3   0.00   0.00   1.25   4.00   4.00   4.00   4.00   4.00   4.00   4.00   2.22   0.00   0.00      0      0      0       0    1649
 1995 357   133   130   22.0      5   2.50   3400   3894   3804   6806  13750   3922   97.0  0.277   6456      7  0.000  0.000  0.190  0.000   0.95  58.93   0.47      0   6456     73.6   0.00   0.00   1.25   4.00   4.00   4.00   4.00   4.00   4.00   4.00   2.22   0.00   0.00      0      0      0       0    1683
 1995 358   134   131   22.0      5   2.44   3400   3757   4080   6772  13889   3922  104.0  0.294   6731      7  0.000  0.000  0.199  0.072   0.93  60.60   0.48      0   6731     71.7   0.00   0.00   1.25   4.00   4.00   4.00   4.00   4.00   4.00   4.00   2.22   0.00   0.00      0      0      0       0    1717
 1995 359   135   132   22.0      5   2.38   3400   3639   4357   6738  14048   3922  111.1  0.310   7009      7  0.000  0.000  0.209  0.158   0.91  62.16   0.50      0   7009     69.9   0.00   0.00   1.25   4.00   4.00   4.00   4.00   4.00   4.00   4.00   2.22   0.00   0.00      0      0      0       0    1751
 1995 360   136   133   22.0      5   2.32   3400   3728   4634   6749  14414   3922  118.1  0.322   7286      7  0.000  0.000  0.218  0.071   0.86  63.60   0.51      0   7286     68.1   0.00   0.00   1.25   4.00   4.00   4.00   4.00   4.00   4.00   4.00   2.22   0.00   0.00      0      0      0       0    1785
 1995 361   137   134   22.0      5   2.25   3400   3819   4888   6761  14759   3922  124.6  0.331   7540      7  0.000  0.000  0.229  0.007   0.82  64.83   0.51      0   7540     66.3   0.00   0.00   1.25   4.00   4.00   4.00   4.00   4.00   4.00   4.00   2.23   0.00   0.00      0      0      0       0    1819
 1995 362   138   135   22.0      5   2.19   3400   3891   5155   6763  15098   3922  131.4  0.341   7807      7  0.000  0.000  0.273  0.000   0.79  66.03   0.52      0   7807     64.5   0.00   0.00   1.25   4.00   4.00   4.00   4.00   4.00   4.00   4.00   2.23   0.00   0.00      0      0      0       0    1853
 1995 363   139   136   22.0      5   2.13   3400   3937   5438   6752  15427   3922  138.6  0.352   8090      7  0.000  0.000  0.313  0.000   0.76  67.22   0.52      0   8090     62.5   0.00   0.00   1.25   4.00   4.00   4.00   4.00   4.00   4.00   4.00   2.23   0.00   0.00      0      0      0       0    1886
 1995 364   140   137   22.0      5   2.06   3400   3976   5718   6738  15745   3922  145.8  0.363   8370      7  0.000  0.000  0.354  0.000   0.73  68.32   0.53      0   8370     60.6   0.00   0.00   1.25   4.00   4.00   4.00   4.00   4.00   4.00   3.99   2.23   0.00   0.00      0      0      0       0    1920
 1995 365   141   138   22.0      5   1.99   3400   3998   5988   6715  16038   3922  152.7  0.373   8640      7  0.000  0.000  0.389  0.000   0.70  69.31   0.54      0   8640     58.6   0.00   0.00   1.25   4.00   4.00   4.00   4.00   3.99   3.99   3.98   2.22   0.00   0.00      0      0      0       0    1954
 1996 001   142   139   22.0      5   1.92   3400   4004   6263   6691  16320   3922  159.7  0.384   8915      7  0.000  0.000  0.419  0.000   0.68  70.25   0.55      0   8915     56.6   0.00   0.00   1.25   4.00   4.00   4.00   3.99   3.99   3.98   3.97   2.21   0.00   0.00      0      0      0       0    1987
 1996 002   143   140   22.0      5   1.86   3400   4004   6557   6658  16614   3922  167.2  0.395   9209      7  0.000  0.000  0.445  0.000   0.66  71.20   0.55      0   9209     54.6   0.00   0.00   1.25   3.98   3.98   3.98   3.97   3.97   3.96   3.95   2.20   0.00   0.00      0      0      0       0    2021
 1996 003   144   141   22.0      5   1.79   3400   3980   6852   6625  16883   3922  174.7  0.406   9504      7  0.000  0.000  0.471  0.000   0.64  72.09   0.56      0   9504     52.6   0.00   0.00   1.25   3.98   3.98   3.98   3.97   3.97   3.96   3.95   2.20   0.00   0.00      0      0      0       0    2054
 1996 004   145   142   22.0      5   1.72   3400   3817   7146   6591  17015   3922  182.2  0.420   9798      7  0.000  0.000  0.499  0.000   0.63  72.93   0.58      0   9798     50.6   0.00   0.00   1.25   3.98   3.98   3.98   3.97   3.97   3.96   3.95   2.20   0.00   0.00      0      0      0       0    2087
 1996 005   146   143   22.0      5   1.66   3400   3753   7440   6559  17245   3922  189.7  0.431  10092      7  0.000  0.000  0.522  0.000   0.61  73.72   0.59      0  10092     48.7   0.00   0.00   1.25   3.98   3.98   3.98   3.97   3.97   3.96   3.95   2.20   0.00   0.00      0      0      0       0    2120
 1996 006   147   144   22.0      5   1.59   3400   3749   7681   6526  17483   3922  195.8  0.439  10333      7  0.000  0.000  0.527  0.000   0.60  74.34   0.59      0  10333     46.8   0.00   0.00   1.25   3.98   3.98   3.98   3.97   3.97   3.96   3.95   2.20   0.00   0.00      0      0      0       0    2153
 1996 007   148   145   22.0      5   1.53   3400   3726   7933   6493  17711   3922  202.2  0.448  10585      7  0.000  0.000  0.534  0.000   0.59  74.94   0.60      0  10585     45.0   0.00   0.00   1.25   3.98   3.98   3.98   3.97   3.97   3.96   3.95   2.20   0.00   0.00      0      0      0       0    2186
 1996 008   149   146   22.0      5   1.47   3400   3654   8218   6461  17924   3922  209.5  0.459  10870      7  0.000  0.000  0.558  0.000   0.58  75.60   0.61      0  10870     43.2   0.00   0.00   1.25   3.98   3.98   3.98   3.97   3.97   3.96   3.95   2.20   0.00   0.00      0      0      0       0    2218
 1996 009   150   147   22.0      5   1.41   3400   3498   8513   6428  18063   3922  217.0  0.471  11165      7  0.000  0.000  0.580  0.000   0.57  76.25   0.62      0  11165     41.4   0.00   0.00   1.25   3.98   3.98   3.98   3.97   3.97   3.96   3.95   2.20   0.00   0.00      0      0      0       0    2250
 1996 010   151   148   22.0      5   1.35   3400   3389   8807   6396  18248   3922  224.5  0.483  11459      7  0.000  0.000  0.590  0.000   0.57  76.86   0.63      0  11459     39.7   0.00   0.00   1.25   3.98   3.98   3.98   3.97   3.97   3.96   3.95   2.20   0.00   0.00      0      0      0       0    2282
 1996 011   152   149   22.0      5   1.29   3400   3162   9091   6364  18305   3922  231.8  0.497  11743      7  0.000  0.000  0.591  0.000   0.57  77.42   0.64      0  11743     38.1   0.00   0.00   1.25   3.98   3.98   3.98   3.97   3.97   3.96   3.95   2.20   0.00   0.00      0      0      0       0    2314
 1996 012   153   150   22.0      5   1.24   3400   3023   9386   6332  18461   3922  239.3  0.508  12038      7  0.000  0.000  0.592  0.000   0.57  77.97   0.65      0  12038     36.5   0.00   0.00   1.25   3.98   3.98   3.98   3.97   3.97   3.96   3.95   2.20   0.00   0.00      0      0      0       0    2346
 1996 013   154   151   22.0      5   1.19   3400   2874   9680   6301  18606   3922  246.8  0.520  12332      7  0.000  0.000  0.576  0.000   0.57  78.49   0.66      0  12332     35.0   0.00   0.00   1.25   3.98   3.98   3.98   3.97   3.97   3.96   3.95   2.20   0.00   0.00      0      0      0       0    2378
 1996 014   155   152   22.0      5   1.14   3400   2820   9929   6269  18801   3922  253.1  0.528  12581      7  0.000  0.000  0.566  0.000   0.56  78.92   0.67      0  12581     33.6   0.00   0.00   1.25   3.98   3.98   3.98   3.97   3.97   3.96   3.95   2.20   0.00   0.00      0      0      0       0    2409
 1996 015   156   153   22.0      5   1.14   3400   2820   9929   6269  18801   3922  253.1  0.528  12581      7  0.000  0.000  0.566  0.000   0.56  78.92   0.67      0  12581     33.6   0.00   0.00   1.25   3.98   3.98   3.98   3.97   3.97   3.96   3.95   2.20   0.00   0.00      0      0      0       0    2409
 1996 016   157   154   22.0      5   1.14   3400   2820   9929   6269  18801   3922  253.1  0.528  12581      7  0.000  0.000  0.566  0.000   0.56  78.92   0.67      0  12581     33.6   0.00   0.00   1.25   3.98   3.98   3.98   3.97   3.97   3.96   3.95   2.20   0.00   0.00      0      0      0       0    2409
 1996 017   158   155   22.0      5   1.14   3400   2820   9929   6269  18801   3922  253.1  0.528  12581      7  0.000  0.000  0.566  0.000   0.56  78.92   0.67      0  12581     33.6   0.00   0.00   1.25   3.98   3.98   3.98   3.97   3.97   3.96   3.95   2.20   0.00   0.00      0      0      0       0    2409
 1996 018   159   156   22.0      5   1.14   3400   2820   9929   6269  18801   3922  253.1  0.528  12581      7  0.000  0.000  0.566  0.000   0.56  78.92   0.67      0  12581     33.6   0.00   0.00   1.25   3.98   3.98   3.98   3.97   3.97   3.96   3.95   2.20   0.00   0.00      0      0      0       0    2409
