*SIMULATION OVERVIEW FILE

*DSSAT Cropping System Model Ver. 4.0.2.000               Aug 03, 2016; 12:23:42
                                                                                
*RUN   1        : UYMZ                                                          
 MODEL          : MZCER040 - MAIZE                                              
 EXPERIMENT     : UYMZ0108 SN late to create DSS                                
 TREATMENT  1   : UYMZ                                                          
                                                                                
 CROP           : MAIZE          CULTIVAR : CMEDIO UY        ECOTYPE :IB0001    
 STARTING DATE  : JUL 10 1990                                                   
 PLANTING DATE  : JUL 13 1990    PLANTS/m2 :  7.0     ROW SPACING :  15.cm      
 WEATHER        : UYSG   1990                                                   
 SOIL           : UYSS0N2002     TEXTURE :       -  N20-02    SNIA CLAY RISS    
 SOIL INITIAL C : DEPTH:125cm EXTR. H2O:186.3mm  NO3: 74.8kg/ha  NH4: 23.9kg/ha 
 WATER BALANCE  : AUTOMATIC IRRIGATION - REFILL PROFILE                         
 IRRIGATION     : AUTOMATIC - PLANTING -> MATURITY [ SOIL DEPTH:30.00m 50.%]    
 NITROGEN BAL.  : SOIL-N & N-UPTAKE SIMULATION; NO N-FIXATION                   
 N-FERTILIZER   :       37 kg/ha IN     3 APPLICATIONS                          
 RESIDUE/MANURE : INITIAL :     0 kg/ha ;       0 kg/ha IN     0 APPLICATIONS   
 ENVIRONM. OPT. : DAYL=    0.00  SRAD=    0.00  TMAX=    0.00  TMIN=    0.00    
                  RAIN=    0.00  CO2 = R330.00  DEW =    0.00  WIND=    0.00    
 SIMULATION OPT : WATER   :Y  NITROGEN:Y  N-FIX:N  PHOSPH :N  PESTS  :N         
                  PHOTO   :C  ET      :R  INFIL:S  HYDROL :R  SOM    :G         
 MANAGEMENT OPT : PLANTING:R  IRRIG   :A  FERT :D  RESIDUE:N  HARVEST:M  WTH:M  
                                                                                
*SUMMARY OF SOIL AND GENETIC INPUT PARAMETERS                                   
                                                                                
   SOIL LOWER UPPER   SAT  EXTR  INIT   ROOT   BULK     pH    NO3    NH4    ORG 
  DEPTH LIMIT LIMIT    SW    SW    SW   DIST   DENS                          C  
   cm   cm3/cm3    cm3/cm3    cm3/cm3         g/cm3         ugN/g  ugN/g     %  
------------------------------------------------------------------------------- 
  0-  5 0.331 0.542 0.585 0.211 0.394   1.00   1.11   6.50  15.00   1.50   2.74 
  5- 15 0.331 0.542 0.585 0.211 0.394   1.00   1.11   6.50  15.00   1.50   2.74 
 15- 30 0.331 0.542 0.585 0.211 0.394   1.00   1.11   6.50  15.00   1.50   2.74 
 30- 45 0.290 0.438 0.491 0.148 0.334   0.43   1.26   6.50   8.50   1.50   1.07 
 45- 60 0.292 0.431 0.480 0.138 0.375   0.39   1.29   6.27   4.53   1.50   0.90 
 60- 90 0.293 0.419 0.466 0.126 0.419   0.32   1.34   6.00   0.00   1.50   0.64 
 90-108 0.286 0.408 0.460 0.122 0.408   0.23   1.36   6.00   0.00   1.50   0.35 
108-125 0.276 0.395 0.456 0.119 0.395   0.12   1.38   6.00   0.00   1.50   0.14 
                                                                                
TOT-125  37.3  55.9  62.1  18.6  49.1  <--cm   -  kg/ha-->   74.8   23.9 166127 
SOIL ALBEDO    : 0.09      EVAPORATION LIMIT : 6.00         MIN. FACTOR  : 1.00 
RUNOFF CURVE # :10.00      DRAINAGE RATE     : 0.40         FERT. FACTOR : 1.00 
                                                                                
 MAIZE      CULTIVAR :UY0370-CMEDIO UY          ECOTYPE :IB0001                 
 P1     : 280.00  P2     : 0.0000  P5     : 750.00                              
 G2     : 800.00  G3     :  7.500  PHINT  : 38.900                              
                                                                                
                                                                                
                                                                                
*SIMULATED CROP AND SOIL STATUS AT MAIN DEVELOPMENT STAGES

 RUN NO.     1     UYMZ                    

        CROP GROWTH   BIOMASS         LEAF   CROP N     STRESS  
   DATE  AGE STAGE      kg/ha    LAI   NUM  kg/ha  %   H2O    N 
 ------  --- ---------- -----  -----  ----  ---  ---  ----  ----
 10 JUL    0 Start Sim      0   0.00   0.0    0  0.0  0.00  0.00
 13 JUL    0 Sowing         0   0.00   0.0    0  0.0  0.00  0.00
 14 JUL    1 Germinate      0   0.00   0.0    0  0.0  0.00  0.00
  5 AUG   23 Emergence     28   0.00   2.0    1  4.4  0.00  0.00
  8 SEP   57 End Juveni   325   0.25   9.8   12  3.7  0.00  0.00
 12 SEP   61 Floral Ini   471   0.47  10.7   17  3.7  0.00  0.01
  2 NOV  112 75% Silkin  8080   3.38  22.2  109  1.4  0.00  0.04
 15 NOV  125 Beg Gr Fil 10386   3.08  22.2  133  1.3  0.00  0.06
 23 DEC  163 End Gr Fil 18740   1.97  22.2  169  0.9  0.00  0.11
 25 DEC  165 Maturity   18740   1.97  22.2  169  0.9  0.00  0.35
 25 DEC  165 Harvest    18740   1.97  22.2  169  0.9  0.00  0.00


*MAIN GROWTH AND DEVELOPMENT VARIABLES

@     VARIABLE                          SIMULATED     MEASURED
      --------                          ---------     --------
      Anthesis day (dap)                      112          -99
      Physiological maturity day (dap)        165          -99
      Yield at harvest maturity (kg [dm]/    8665          -99
      Number at maturity (no/m2)             3344          -99
      Unit wt at maturity (g [dm]/unit)    0.2591          -99
      Number at maturity (no/unit)          477.7          -99
      Tops weight at maturity (kg [dm]/ha   18740          -99
      By-product produced (stalk) at matu   10152          -99
      Leaf area index, maximum               3.42          -99
      Harvest index at maturity             0.462          -99
      Grain N at maturity (kg/ha)             122          -99
      Tops N at maturity (kg/ha)              169          -99
      Stem N at maturity (kg/ha)               47          -99
      Grain N at maturity (%)                 1.4          -99
      Tops weight at anthesis (kg [dm]/ha    7867          -99
      Tops N at anthesis (kg/ha)              108          -99
      Leaf number per stem at maturity      22.21          -99


*ENVIRONMENTAL AND STRESS FACTORS

 |-----Development Phase------|-------------Environment--------------|---------Stress----------|
                              |--------Average-------|---Cumulative--|  (0=Min, 1=Max Stress)  |
                         Time  Temp  Temp Solar Photop         Evapo |----Water---|--Nitrogen--|
                         Span   Max   Min   Rad  [day]   Rain  Trans  Photo         Photo
                         days    øC    øC MJ/m2     hr     mm     mm  synth Growth  synth Growth
------------------------------------------------------------------------------------------------
 Emergence-End Juvenile    34  21.8   9.3  14.3  11.02  139.8   46.5  0.000  0.000  0.002  0.001
 End Juvenil-Floral Init    4  21.3  11.9  13.9  11.60   47.0   12.3  0.000  0.000  0.001  0.001
 Floral Init-End Lf Grow   51  23.8  12.1  18.8  12.48  222.6  178.9  0.000  0.000  0.100  0.040
 End Lf Grth-Beg Grn Fil   13  26.7  15.4  21.6  13.43   33.6   62.6  0.000  0.000  0.164  0.066
 Grain Filling Phase       38  28.4  16.6  24.8  13.88  273.8  211.4  0.000  0.000  0.226  0.098

                     Maize YIELD :     8665 kg/ha    [Dry weight] 

************************************************************************************************

*DSSAT Cropping System Model Ver. 4.0.2.000               Aug 03, 2016; 12:23:42
                                                                                
*RUN   2        : UYMZ                                                          
 MODEL          : MZCER040 - MAIZE                                              
 EXPERIMENT     : UYMZ0108 SN late to create DSS                                
 TREATMENT  1   : UYMZ                                                          
                                                                                
 CROP           : MAIZE          CULTIVAR : CMEDIO UY        ECOTYPE :IB0001    
 STARTING DATE  : JUL 10 1990                                                   
 PLANTING DATE  : JUL 13 1990    PLANTS/m2 :  7.0     ROW SPACING :  15.cm      
 WEATHER        : UYSG   1990                                                   
 SOIL           : UYSS0N2002     TEXTURE :       -  N20-02    SNIA CLAY RISS    
 SOIL INITIAL C : DEPTH:125cm EXTR. H2O:186.3mm  NO3: 74.8kg/ha  NH4: 23.9kg/ha 
 WATER BALANCE  : AUTOMATIC IRRIGATION - REFILL PROFILE                         
 IRRIGATION     : AUTOMATIC - PLANTING -> MATURITY [ SOIL DEPTH:30.00m 50.%]    
 NITROGEN BAL.  : SOIL-N & N-UPTAKE SIMULATION; NO N-FIXATION                   
 N-FERTILIZER   :       37 kg/ha IN     3 APPLICATIONS                          
 RESIDUE/MANURE : INITIAL :     0 kg/ha ;       0 kg/ha IN     0 APPLICATIONS   
 ENVIRONM. OPT. : DAYL=    0.00  SRAD=    0.00  TMAX=    0.00  TMIN=    0.00    
                  RAIN=    0.00  CO2 = R330.00  DEW =    0.00  WIND=    0.00    
 SIMULATION OPT : WATER   :Y  NITROGEN:Y  N-FIX:N  PHOSPH :N  PESTS  :N         
                  PHOTO   :C  ET      :R  INFIL:S  HYDROL :R  SOM    :G         
 MANAGEMENT OPT : PLANTING:R  IRRIG   :A  FERT :D  RESIDUE:N  HARVEST:M  WTH:M  
                                                                                
*SUMMARY OF SOIL AND GENETIC INPUT PARAMETERS                                   
                                                                                
   SOIL LOWER UPPER   SAT  EXTR  INIT   ROOT   BULK     pH    NO3    NH4    ORG 
  DEPTH LIMIT LIMIT    SW    SW    SW   DIST   DENS                          C  
   cm   cm3/cm3    cm3/cm3    cm3/cm3         g/cm3         ugN/g  ugN/g     %  
------------------------------------------------------------------------------- 
  0-  5 0.331 0.542 0.585 0.211 0.394   1.00   1.11   6.50  15.00   1.50   2.74 
  5- 15 0.331 0.542 0.585 0.211 0.394   1.00   1.11   6.50  15.00   1.50   2.74 
 15- 30 0.331 0.542 0.585 0.211 0.394   1.00   1.11   6.50  15.00   1.50   2.74 
 30- 45 0.290 0.438 0.491 0.148 0.334   0.43   1.26   6.50   8.50   1.50   1.07 
 45- 60 0.292 0.431 0.480 0.138 0.375   0.39   1.29   6.27   4.53   1.50   0.90 
 60- 90 0.293 0.419 0.466 0.126 0.419   0.32   1.34   6.00   0.00   1.50   0.64 
 90-108 0.286 0.408 0.460 0.122 0.408   0.23   1.36   6.00   0.00   1.50   0.35 
108-125 0.276 0.395 0.456 0.119 0.395   0.12   1.38   6.00   0.00   1.50   0.14 
                                                                                
TOT-125  37.3  55.9  62.1  18.6  49.1  <--cm   -  kg/ha-->   74.8   23.9 166127 
SOIL ALBEDO    : 0.09      EVAPORATION LIMIT : 6.00         MIN. FACTOR  : 1.00 
RUNOFF CURVE # :10.00      DRAINAGE RATE     : 0.40         FERT. FACTOR : 1.00 
                                                                                
 MAIZE      CULTIVAR :UY0370-CMEDIO UY          ECOTYPE :IB0001                 
 P1     : 280.00  P2     : 0.0000  P5     : 750.00                              
 G2     : 800.00  G3     :  7.500  PHINT  : 38.900                              
                                                                                
                                                                                
                                                                                
*SIMULATED CROP AND SOIL STATUS AT MAIN DEVELOPMENT STAGES

 RUN NO.     2     UYMZ                    

        CROP GROWTH   BIOMASS         LEAF   CROP N     STRESS  
   DATE  AGE STAGE      kg/ha    LAI   NUM  kg/ha  %   H2O    N 
 ------  --- ---------- -----  -----  ----  ---  ---  ----  ----
 10 JUL    0 Start Sim      0   0.00   0.0    0  0.0  0.00  0.00
 13 JUL    0 Sowing         0   0.00   0.0    0  0.0  0.00  0.00
 14 JUL    1 Germinate      0   0.00   0.0    0  0.0  0.00  0.00
 27 JUL   14 Emergence     28   0.00   2.0    1  4.4  0.00  0.00
  1 SEP   50 End Juveni   325   0.60   9.6   12  3.8  0.00  0.00
  5 SEP   54 Floral Ini   533   0.90  10.8   20  3.7  0.00  0.01
  2 NOV  112 75% Silkin  8514   3.30  22.7  117  1.4  0.00  0.04
 17 NOV  127 Beg Gr Fil 10602   2.99  22.7  138  1.3  0.00  0.05
 23 DEC  163 End Gr Fil 19077   1.91  22.7  169  0.9  0.00  0.12
 26 DEC  166 Maturity   19077   1.91  22.7  169  0.9  0.00  0.37
 26 DEC  166 Harvest    19077   1.91  22.7  169  0.9  0.00  0.00


*MAIN GROWTH AND DEVELOPMENT VARIABLES

@     VARIABLE                          SIMULATED     MEASURED
      --------                          ---------     --------
      Anthesis day (dap)                      112          -99
      Physiological maturity day (dap)        166          -99
      Yield at harvest maturity (kg [dm]/    8804          -99
      Number at maturity (no/m2)             3505          -99
      Unit wt at maturity (g [dm]/unit)    0.2512          -99
      Number at maturity (no/unit)          500.7          -99
      Tops weight at maturity (kg [dm]/ha   19077          -99
      By-product produced (stalk) at matu   10354          -99
      Leaf area index, maximum               3.35          -99
      Harvest index at maturity             0.461          -99
      Grain N at maturity (kg/ha)             121          -99
      Tops N at maturity (kg/ha)              169          -99
      Stem N at maturity (kg/ha)               48          -99
      Grain N at maturity (%)                 1.4          -99
      Tops weight at anthesis (kg [dm]/ha    8389          -99
      Tops N at anthesis (kg/ha)              116          -99
      Leaf number per stem at maturity      22.66          -99


*ENVIRONMENTAL AND STRESS FACTORS

 |-----Development Phase------|-------------Environment--------------|---------Stress----------|
                              |--------Average-------|---Cumulative--|  (0=Min, 1=Max Stress)  |
                         Time  Temp  Temp Solar Photop         Evapo |----Water---|--Nitrogen--|
                         Span   Max   Min   Rad  [day]   Rain  Trans  Photo         Photo
                         days    øC    øC MJ/m2     hr     mm     mm  synth Growth  synth Growth
------------------------------------------------------------------------------------------------
 Emergence-End Juvenile    36  20.5   9.4  11.6  10.80   37.5   37.3  0.000  0.000  0.002  0.001
 End Juvenil-Floral Init    4  21.4  12.1  11.6  11.38   33.6   12.6  0.000  0.000  0.000  0.000
 Floral Init-End Lf Grow   58  23.2  11.7  17.1  12.37  151.7  204.9  0.000  0.000  0.102  0.041
 End Lf Grth-Beg Grn Fil   15  24.9  12.7  21.9  13.45    9.7   72.1  0.000  0.000  0.151  0.060
 Grain Filling Phase       36  28.7  16.8  22.0  13.90  292.0  181.1  0.000  0.000  0.247  0.108

                     Maize YIELD :     8804 kg/ha    [Dry weight] 

************************************************************************************************

*DSSAT Cropping System Model Ver. 4.0.2.000               Aug 03, 2016; 12:23:42
                                                                                
*RUN   3        : UYMZ                                                          
 MODEL          : MZCER040 - MAIZE                                              
 EXPERIMENT     : UYMZ0108 SN late to create DSS                                
 TREATMENT  1   : UYMZ                                                          
                                                                                
 CROP           : MAIZE          CULTIVAR : CMEDIO UY        ECOTYPE :IB0001    
 STARTING DATE  : JUL 10 1990                                                   
 PLANTING DATE  : JUL 13 1990    PLANTS/m2 :  7.0     ROW SPACING :  15.cm      
 WEATHER        : UYSG   1990                                                   
 SOIL           : UYSS0N2002     TEXTURE :       -  N20-02    SNIA CLAY RISS    
 SOIL INITIAL C : DEPTH:125cm EXTR. H2O:186.3mm  NO3: 74.8kg/ha  NH4: 23.9kg/ha 
 WATER BALANCE  : AUTOMATIC IRRIGATION - REFILL PROFILE                         
 IRRIGATION     : AUTOMATIC - PLANTING -> MATURITY [ SOIL DEPTH:30.00m 50.%]    
 NITROGEN BAL.  : SOIL-N & N-UPTAKE SIMULATION; NO N-FIXATION                   
 N-FERTILIZER   :       37 kg/ha IN     3 APPLICATIONS                          
 RESIDUE/MANURE : INITIAL :     0 kg/ha ;       0 kg/ha IN     0 APPLICATIONS   
 ENVIRONM. OPT. : DAYL=    0.00  SRAD=    0.00  TMAX=    0.00  TMIN=    0.00    
                  RAIN=    0.00  CO2 = R330.00  DEW =    0.00  WIND=    0.00    
 SIMULATION OPT : WATER   :Y  NITROGEN:Y  N-FIX:N  PHOSPH :N  PESTS  :N         
                  PHOTO   :C  ET      :R  INFIL:S  HYDROL :R  SOM    :G         
 MANAGEMENT OPT : PLANTING:R  IRRIG   :A  FERT :D  RESIDUE:N  HARVEST:M  WTH:M  
                                                                                
*SUMMARY OF SOIL AND GENETIC INPUT PARAMETERS                                   
                                                                                
   SOIL LOWER UPPER   SAT  EXTR  INIT   ROOT   BULK     pH    NO3    NH4    ORG 
  DEPTH LIMIT LIMIT    SW    SW    SW   DIST   DENS                          C  
   cm   cm3/cm3    cm3/cm3    cm3/cm3         g/cm3         ugN/g  ugN/g     %  
------------------------------------------------------------------------------- 
  0-  5 0.331 0.542 0.585 0.211 0.394   1.00   1.11   6.50  15.00   1.50   2.74 
  5- 15 0.331 0.542 0.585 0.211 0.394   1.00   1.11   6.50  15.00   1.50   2.74 
 15- 30 0.331 0.542 0.585 0.211 0.394   1.00   1.11   6.50  15.00   1.50   2.74 
 30- 45 0.290 0.438 0.491 0.148 0.334   0.43   1.26   6.50   8.50   1.50   1.07 
 45- 60 0.292 0.431 0.480 0.138 0.375   0.39   1.29   6.27   4.53   1.50   0.90 
 60- 90 0.293 0.419 0.466 0.126 0.419   0.32   1.34   6.00   0.00   1.50   0.64 
 90-108 0.286 0.408 0.460 0.122 0.408   0.23   1.36   6.00   0.00   1.50   0.35 
108-125 0.276 0.395 0.456 0.119 0.395   0.12   1.38   6.00   0.00   1.50   0.14 
                                                                                
TOT-125  37.3  55.9  62.1  18.6  49.1  <--cm   -  kg/ha-->   74.8   23.9 166127 
SOIL ALBEDO    : 0.09      EVAPORATION LIMIT : 6.00         MIN. FACTOR  : 1.00 
RUNOFF CURVE # :10.00      DRAINAGE RATE     : 0.40         FERT. FACTOR : 1.00 
                                                                                
 MAIZE      CULTIVAR :UY0370-CMEDIO UY          ECOTYPE :IB0001                 
 P1     : 280.00  P2     : 0.0000  P5     : 750.00                              
 G2     : 800.00  G3     :  7.500  PHINT  : 38.900                              
                                                                                
                                                                                
                                                                                
*SIMULATED CROP AND SOIL STATUS AT MAIN DEVELOPMENT STAGES

 RUN NO.     3     UYMZ                    

        CROP GROWTH   BIOMASS         LEAF   CROP N     STRESS  
   DATE  AGE STAGE      kg/ha    LAI   NUM  kg/ha  %   H2O    N 
 ------  --- ---------- -----  -----  ----  ---  ---  ----  ----
  9 JUL    0 Start Sim      0   0.00   0.0    0  0.0  0.00  0.00
 12 JUL    0 Sowing         0   0.00   0.0    0  0.0  0.00  0.00
 13 JUL    1 Germinate      0   0.00   0.0    0  0.0  0.00  0.00
 13 AUG   32 Emergence     28   0.00   1.6    1  4.4  0.00  0.00
 16 SEP   66 End Juveni   331   0.61   9.6   12  3.7  0.00  0.00
 20 SEP   70 Floral Ini   478   0.81  10.5   18  3.7  0.00  0.01
 15 NOV  126 75% Silkin  8561   3.19  22.1  136  1.6  0.00  0.04
 29 NOV  140 Beg Gr Fil 11126   3.01  22.1  148  1.3  0.00  0.03
  3 JAN  175 End Gr Fil 19387   1.77  22.1  166  0.9  0.00  0.16
  5 JAN  177 Maturity   19387   1.77  22.1  166  0.9  0.00  0.42
  5 JAN  177 Harvest    19387   1.77  22.1  166  0.9  0.00  0.00


*MAIN GROWTH AND DEVELOPMENT VARIABLES

@     VARIABLE                          SIMULATED     MEASURED
      --------                          ---------     --------
      Anthesis day (dap)                      126          -99
      Physiological maturity day (dap)        177          -99
      Yield at harvest maturity (kg [dm]/    9369          -99
      Number at maturity (no/m2)             3669          -99
      Unit wt at maturity (g [dm]/unit)    0.2554          -99
      Number at maturity (no/unit)          524.1          -99
      Tops weight at maturity (kg [dm]/ha   19387          -99
      By-product produced (stalk) at matu   10098          -99
      Leaf area index, maximum               3.66          -99
      Harvest index at maturity             0.483          -99
      Grain N at maturity (kg/ha)             122          -99
      Tops N at maturity (kg/ha)              166          -99
      Stem N at maturity (kg/ha)               44          -99
      Grain N at maturity (%)                 1.3          -99
      Tops weight at anthesis (kg [dm]/ha    8339          -99
      Tops N at anthesis (kg/ha)              135          -99
      Leaf number per stem at maturity      22.11          -99


*ENVIRONMENTAL AND STRESS FACTORS

 |-----Development Phase------|-------------Environment--------------|---------Stress----------|
                              |--------Average-------|---Cumulative--|  (0=Min, 1=Max Stress)  |
                         Time  Temp  Temp Solar Photop         Evapo |----Water---|--Nitrogen--|
                         Span   Max   Min   Rad  [day]   Rain  Trans  Photo         Photo
                         days    øC    øC MJ/m2     hr     mm     mm  synth Growth  synth Growth
------------------------------------------------------------------------------------------------
 Emergence-End Juvenile    34  21.3   9.1  13.5  11.29   28.0   31.6  0.000  0.000  0.002  0.001
 End Juvenil-Floral Init    4  23.2  11.1  17.5  11.89    9.1   11.6  0.000  0.000  0.001  0.000
 Floral Init-End Lf Grow   56  24.1  10.0  22.0  12.83  118.3  250.2  0.000  0.000  0.092  0.037
 End Lf Grth-Beg Grn Fil   14  27.7  13.6  23.9  13.74   10.4   71.8  0.000  0.000  0.091  0.037
 Grain Filling Phase       35  29.8  17.4  23.3  13.99  159.1  189.7  0.000  0.000  0.300  0.144

                     Maize YIELD :     9369 kg/ha    [Dry weight] 

************************************************************************************************
