*PLANT N OUTPUT FILE

*DSSAT Cropping System Model Ver. 4.0.2.000               Aug 03, 2016; 12:23:42

*RUN   1        : UYMZ                    
 MODEL          : MZCER040 - Maize           
 EXPERIMENT     : UYMZ0108 MZ    late to create DSS                             
 TREATMENT  1   : UYMZ                    

@YEAR DOY   DAS   DAP   CNAD   GNAD   VNAD   GN%D   VN%D   NUPC   LNAD   SNAD   LN%D   SN%D   RN%D   SNN0C   SNN1C
 1990 194     3     0    0.0    0.0    0.0   0.00   0.00    0.0    0.0    0.0    0.0   0.00   0.00    0.00    0.00
 1990 195     4     1    0.0    0.0    0.0   0.00   0.00    0.0    0.0    0.0    0.0   0.00   0.00    0.00    0.00
 1990 196     5     2    0.0    0.0    0.0   0.00   0.00    0.0    0.0    0.0    0.0   0.00   0.00    0.00    0.00
 1990 197     6     3    0.0    0.0    0.0   0.00   0.00    0.0    0.0    0.0    0.0   0.00   0.00    0.00    0.00
 1990 198     7     4    0.0    0.0    0.0   0.00   0.00    0.0    0.0    0.0    0.0   0.00   0.00    0.00    0.00
 1990 199     8     5    0.0    0.0    0.0   0.00   0.00    0.0    0.0    0.0    0.0   0.00   0.00    0.00    0.00
 1990 200     9     6    0.0    0.0    0.0   0.00   0.00    0.0    0.0    0.0    0.0   0.00   0.00    0.00    0.00
 1990 201    10     7    0.0    0.0    0.0   0.00   0.00    0.0    0.0    0.0    0.0   0.00   0.00    0.00    0.00
 1990 202    11     8    0.0    0.0    0.0   0.00   0.00    0.0    0.0    0.0    0.0   0.00   0.00    0.00    0.00
 1990 203    12     9    0.0    0.0    0.0   0.00   0.00    0.0    0.0    0.0    0.0   0.00   0.00    0.00    0.00
 1990 204    13    10    0.0    0.0    0.0   0.00   0.00    0.0    0.0    0.0    0.0   0.00   0.00    0.00    0.00
 1990 205    14    11    0.0    0.0    0.0   0.00   0.00    0.0    0.0    0.0    0.0   0.00   0.00    0.00    0.00
 1990 206    15    12    0.0    0.0    0.0   0.00   0.00    0.0    0.0    0.0    0.0   0.00   0.00    0.00    0.00
 1990 207    16    13    0.0    0.0    0.0   0.00   0.00    0.0    0.0    0.0    0.0   0.00   0.00    0.00    0.00
 1990 208    17    14    0.0    0.0    0.0   0.00   0.00    0.0    0.0    0.0    0.0   0.00   0.00    0.00    0.00
 1990 209    18    15    0.0    0.0    0.0   0.00   0.00    0.0    0.0    0.0    0.0   0.00   0.00    0.00    0.00
 1990 210    19    16    0.0    0.0    0.0   0.00   0.00    0.0    0.0    0.0    0.0   0.00   0.00    0.00    0.00
 1990 211    20    17    0.0    0.0    0.0   0.00   0.00    0.0    0.0    0.0    0.0   0.00   0.00    0.00    0.00
 1990 212    21    18    0.0    0.0    0.0   0.00   0.00    0.0    0.0    0.0    0.0   0.00   0.00    0.00    0.00
 1990 213    22    19    0.0    0.0    0.0   0.00   0.00    0.0    0.0    0.0    0.0   0.00   0.00    0.00    0.00
 1990 214    23    20    0.0    0.0    0.0   0.00   0.00    0.0    0.0    0.0    0.0   0.00   0.00    0.00    0.00
 1990 215    24    21    0.0    0.0    0.0   0.00   0.00    0.0    0.0    0.0    0.0   0.00   0.00    0.00    0.00
 1990 216    25    22    0.0    0.0    0.0   0.00   0.00    0.0    0.0    0.0    0.0   0.00   0.00    0.00    0.00
 1990 217    26    23    1.2    0.0    1.2   0.00   4.40    0.0    0.6    0.6    4.4   4.40   0.00    0.00    0.00
 1990 218    27    24    1.3    0.0    1.3   0.00   4.52    0.2    0.6    0.6    4.5   4.52   1.10    0.00    0.00
 1990 219    28    25    1.3    0.0    1.3   0.00   4.48    0.2    0.6    0.6    4.5   4.48   1.13    0.00    0.00
 1990 220    29    26    1.2    0.0    1.2   0.00   4.45    0.2    0.6    0.6    4.5   4.45   1.14    0.00    0.00
 1990 221    30    27    1.2    0.0    1.2   0.00   4.42    0.2    0.6    0.6    4.4   4.42   1.17    0.00    0.00
 1990 222    31    28    1.2    0.0    1.2   0.00   4.39    0.2    0.6    0.6    4.4   4.39   1.19    0.00    0.00
 1990 223    32    29    1.2    0.0    1.2   0.00   4.36    0.3    0.6    0.6    4.4   4.36   1.24    0.00    0.00
 1990 224    33    30    1.2    0.0    1.2   0.00   3.47    0.3    0.7    0.5    3.5   3.47   1.18    0.00    0.01
 1990 225    34    31    1.5    0.0    1.5   0.00   3.34    0.6    1.0    0.5    3.3   3.34   1.21    0.00    0.01
 1990 226    35    32    1.9    0.0    1.9   0.00   3.50    1.1    1.4    0.5    3.5   3.50   1.14    0.00    0.01
 1990 227    36    33    2.3    0.0    2.3   0.00   3.80    1.7    1.8    0.5    3.8   3.80   1.32    0.00    0.01
 1990 228    37    34    2.6    0.0    2.6   0.00   3.85    2.1    2.0    0.5    3.9   3.85   1.33    0.00    0.01
 1990 229    38    35    2.8    0.0    2.8   0.00   3.66    2.5    2.3    0.5    3.7   3.66   1.28    0.00    0.02
 1990 230    39    36    3.2    0.0    3.2   0.00   3.74    3.1    2.7    0.5    3.7   3.74   1.24    0.00    0.02
 1990 231    40    37    3.6    0.0    3.6   0.00   3.73    3.4    3.0    0.5    3.7   3.73   1.13    0.00    0.03
 1990 232    41    38    3.9    0.0    3.9   0.00   3.72    4.2    3.4    0.5    3.7   3.72   1.27    0.00    0.03
 1990 233    42    39    4.4    0.0    4.4   0.00   3.64    4.9    3.9    0.5    3.6   3.64   1.25    0.00    0.04
 1990 234    43    40    4.9    0.0    4.9   0.00   3.70    5.8    4.4    0.5    3.7   3.70   1.24    0.00    0.05
 1990 235    44    41    5.4    0.0    5.4   0.00   3.79    6.6    4.9    0.5    3.8   3.79   1.22    0.00    0.06
 1990 236    45    42    5.8    0.0    5.8   0.00   3.72    7.1    5.3    0.5    3.7   3.72   1.16    0.00    0.07
 1990 237    46    43    6.3    0.0    6.3   0.00   3.58    8.0    5.8    0.5    3.6   3.58   1.20    0.00    0.08
 1990 238    47    44    7.1    0.0    7.1   0.00   3.53    8.9    6.6    0.5    3.5   3.53   1.15    0.00    0.10
 1990 239    48    45    8.0    0.0    8.0   0.00   3.83   10.0    7.5    0.5    3.8   3.83   1.15    0.00    0.11
 1990 240    49    46    8.4    0.0    8.4   0.00   3.96   11.2    7.9    0.6    4.0   3.96   1.37    0.00    0.13
 1990 241    50    47    8.5    0.0    8.5   0.00   3.90   11.3    8.0    0.5    3.9   3.90   1.28    0.00    0.15
 1990 242    51    48    8.7    0.0    8.7   0.00   3.70   11.4    8.2    0.5    3.7   3.70   1.15    0.00    0.17
 1990 243    52    49    9.3    0.0    9.3   0.00   3.93   11.9    8.8    0.6    3.9   3.93   1.10    0.00    0.19
 1990 244    53    50    9.4    0.0    9.4   0.00   3.94   12.5    8.9    0.6    3.9   3.94   1.22    0.00    0.21
 1990 245    54    51    9.5    0.0    9.5   0.00   3.92   12.6    9.0    0.5    3.9   3.92   1.18    0.00    0.23
 1990 246    55    52    9.5    0.0    9.5   0.00   3.77   12.6    9.0    0.5    3.8   3.77   1.16    0.00    0.23
 1990 247    56    53   10.0    0.0   10.0   0.00   3.65   12.7    9.5    0.5    3.6   3.65   1.07    0.00    0.25
 1990 248    57    54   10.8    0.0   10.8   0.00   3.79   13.5   10.2    0.5    3.8   3.79   1.07    0.00    0.27
 1990 249    58    55   11.1    0.0   11.1   0.00   3.78   13.9   10.6    0.5    3.8   3.78   1.07    0.00    0.29
 1990 250    59    56   11.5    0.0   11.5   0.00   3.75   14.2   11.0    0.5    3.8   3.75   1.07    0.00    0.31
 1990 251    60    57   11.9    0.0   11.9   0.00   3.66   14.8   11.4    0.5    3.7   3.66   1.09    0.00    0.33
 1990 252    61    58   12.6    0.0   12.6   0.00   3.57   15.9   12.1    0.5    3.6   3.57   1.13    0.00    0.35
 1990 253    62    59   13.5    0.0   13.5   0.00   3.30   16.9   13.1    0.5    3.3   3.30   1.10    0.00    0.37
 1990 254    63    60   17.0    0.0   17.0   0.00   3.78   20.4   16.5    0.5    3.8   3.78   1.09    0.00    0.40
 1990 255    64    61   17.5    0.0   17.5   0.00   3.71   21.8   17.0    0.5    3.7   3.71   1.20    0.00    0.42
 1990 256    65    62   17.5    0.0   17.5   0.00   3.65   22.2   17.0    0.5    3.7   3.65   1.23    0.00    0.45
 1990 257    66    63   17.9    0.0   17.9   0.00   3.65   22.9   17.4    0.5    3.7   3.65   1.23    0.00    0.48
 1990 258    67    64   18.5    0.0   18.5   0.00   3.57   23.4   18.0    0.5    3.6   3.57   1.14    0.00    0.51
 1990 259    68    65   19.9    0.0   19.9   0.00   3.55   25.1   19.4    0.5    3.5   3.55   1.12    0.00    0.54
 1990 260    69    66   21.3    0.0   21.3   0.00   3.52   26.4   20.8    0.5    3.5   3.52   1.09    0.00    0.57
 1990 261    70    67   22.7    0.0   22.7   0.00   3.49   27.8   22.2    0.5    3.5   3.49   1.08    0.00    0.60
 1990 262    71    68   24.1    0.0   24.1   0.00   3.47   29.8   23.5    0.6    3.5   3.47   1.13    0.00    0.63
 1990 263    72    69   25.6    0.0   25.6   0.00   3.44   30.9   25.0    0.6    3.4   3.44   1.07    0.00    0.67
 1990 264    73    70   28.8    0.0   28.8   0.00   3.41   34.3   27.9    0.8    3.4   3.41   1.08    0.00    0.70
 1990 265    74    71   30.5    0.0   30.5   0.00   3.38   37.6   29.6    0.9    3.4   3.38   1.19    0.00    0.73
 1990 266    75    72   31.7    0.0   31.7   0.00   3.41   40.0   30.7    1.0    3.4   3.41   1.24    0.00    0.77
 1990 267    76    73   32.5    0.0   32.5   0.00   3.40   41.5   31.5    1.1    3.4   3.40   1.24    0.00    0.82
 1990 268    77    74   33.5    0.0   33.5   0.00   3.35   42.9   32.3    1.2    3.3   3.35   1.17    0.00    0.87
 1990 269    78    75   35.2    0.0   35.2   0.00   3.33   45.4   33.8    1.4    3.3   3.33   1.16    0.00    0.92
 1990 270    79    76   38.0    0.0   38.0   0.00   3.30   48.5   36.3    1.7    3.3   3.30   1.13    0.00    0.98
 1990 271    80    77   40.7    0.0   40.7   0.00   3.26   50.7   38.6    2.1    3.3   3.26   1.07    0.00    1.04
 1990 272    81    78   43.5    0.0   43.5   0.00   3.23   55.2   40.9    2.6    3.2   3.23   1.15    0.00    1.09
 1990 273    82    79   46.4    0.0   46.4   0.00   3.21   59.1   43.2    3.2    3.2   3.21   1.15    0.00    1.16
 1990 274    83    80   50.8    0.0   50.8   0.00   3.17   64.1   46.6    4.2    3.2   3.17   1.13    0.00    1.23
 1990 275    84    81   55.2    0.0   55.2   0.00   3.13   69.4   49.8    5.3    3.1   3.13   1.13    0.00    1.30
 1990 276    85    82   59.7    0.0   59.7   0.00   3.09   74.8   53.0    6.7    3.1   3.09   1.13    0.00    1.38
 1990 277    86    83   65.4    0.0   65.4   0.00   3.04   80.0   56.8    8.7    3.0   3.04   1.08    0.00    1.46
 1990 278    87    84   67.8    0.0   67.8   0.00   3.01   82.2   58.2    9.6    3.0   3.01   1.07    0.00    1.54
 1990 279    88    85   71.1    0.0   71.1   0.00   2.97   85.5   60.1   11.0    3.0   2.97   1.07    0.00    1.61
 1990 280    89    86   72.1    0.0   72.1   0.00   2.93   87.2   60.5   11.6    2.9   2.93   1.09    0.00    1.69
 1990 281    90    87   74.0    0.0   74.0   0.00   2.91   89.0   61.4   12.5    2.9   2.91   1.08    0.00    1.77
 1990 282    91    88   76.8    0.0   76.8   0.00   2.87   94.2   62.8   14.0    2.9   2.87   1.13    0.00    1.85
 1990 283    92    89   80.0    0.0   80.0   0.00   2.81   98.4   64.1   15.8    2.8   2.81   1.12    0.00    1.94
 1990 284    93    90   83.8    0.0   83.8   0.00   2.73  101.9   65.5   18.3    2.7   2.73   1.09    0.00    2.04
 1990 285    94    91   85.8    0.0   85.8   0.00   2.66  104.7   66.0   19.8    2.7   2.66   1.05    0.00    2.14
 1990 286    95    92   87.4    0.0   87.4   0.00   2.61  107.1   66.3   21.2    2.6   2.61   1.02    0.00    2.24
 1990 287    96    93   89.1    0.0   89.1   0.00   2.50  109.2   66.1   23.0    2.5   2.50   0.99    0.00    2.34
 1990 288    97    94   90.4    0.0   90.4   0.00   2.41  111.0   65.8   24.7    2.4   2.41   0.95    0.00    2.45
 1990 289    98    95   91.7    0.0   91.7   0.00   2.26  112.5   66.1   25.6    2.3   2.26   0.94    0.00    2.55
 1990 290    99    96   92.9    0.0   92.9   0.00   2.17  113.9   65.9   27.0    2.2   2.17   0.95    0.00    2.66
 1990 291   100    97   94.0    0.0   94.0   0.00   2.04  115.1   64.9   29.1    2.0   2.04   0.95    0.00    2.77
 1990 292   101    98   95.0    0.0   95.0   0.00   1.94  116.2   63.8   31.1    1.9   1.94   0.92    0.00    2.88
 1990 293   102    99   95.8    0.0   95.8   0.00   1.85  117.2   62.8   33.0    1.8   1.85   0.91    0.00    2.99
 1990 294   103   100   96.7    0.0   96.7   0.00   1.78  118.1   61.9   34.8    1.8   1.78   0.88    0.00    3.11
 1990 295   104   101   97.4    0.0   97.4   0.00   1.71  119.0   60.9   36.5    1.7   1.71   0.85    0.00    3.22
 1990 296   105   102   98.1    0.0   98.1   0.00   1.65  119.7   60.0   38.1    1.6   1.65   0.85    0.00    3.33
 1990 297   106   103   99.1    0.0   99.1   0.00   1.60  120.9   59.3   39.7    1.6   1.60   0.83    0.00    3.44
 1990 298   107   104  100.7    0.0  100.7   0.00   1.58  122.7   59.5   41.2    1.6   1.58   0.81    0.00    3.56
 1990 299   108   105  102.1    0.0  102.1   0.00   1.54  124.4   59.0   43.1    1.5   1.54   0.81    0.00    3.67
 1990 300   109   106  103.5    0.0  103.5   0.00   1.50  125.9   58.4   45.1    1.5   1.50   0.81    0.00    3.79
 1990 301   110   107  104.6    0.0  104.6   0.00   1.49  127.2   58.5   46.1    1.5   1.49   0.81    0.00    3.90
 1990 302   111   108  105.6    0.0  105.6   0.00   1.46  128.3   58.2   47.4    1.5   1.46   0.82    0.00    4.02
 1990 303   112   109  106.5    0.0  106.5   0.00   1.42  129.4   57.6   48.9    1.4   1.42   0.79    0.00    4.14
 1990 304   113   110  107.5    0.0  107.5   0.00   1.41  130.4   57.6   49.9    1.4   1.41   0.80    0.00    4.26
 1990 305   114   111  108.5    0.0  108.5   0.00   1.38  131.6   57.2   51.3    1.4   1.38   0.78    0.00    4.37
 1990 306   115   112  109.5    0.0  109.5   0.00   1.50  132.8   61.8   47.7    1.5   1.50   0.76    0.00    4.49
 1990 307   116   113  110.5    0.0  110.5   0.00   1.51  134.0   61.5   49.0    1.5   1.51   0.77    0.00    4.61
 1990 308   117   114  111.4    0.0  111.4   0.00   1.53  135.1   61.3   50.1    1.5   1.53   0.75    0.00    4.74
 1990 309   118   115  112.0    0.0  112.0   0.00   1.54  135.9   61.0   50.9    1.5   1.54   0.71    0.00    4.86
 1990 310   119   116  112.9    0.0  112.9   0.00   1.55  137.1   60.8   52.1    1.6   1.55   0.71    0.00    4.98
 1990 311   120   117  113.8    0.0  113.8   0.00   1.56  138.3   60.4   53.4    1.6   1.56   0.70    0.00    5.11
 1990 312   121   118  114.8    0.0  114.8   0.00   1.58  139.7   60.1   54.8    1.6   1.58   0.70    0.00    5.23
 1990 313   122   119  115.7    0.0  115.7   0.00   1.59  140.9   59.5   56.1    1.6   1.59   0.70    0.00    5.36
 1990 314   123   120  116.5    0.0  116.5   0.00   1.59  142.2   58.9   57.6    1.6   1.59   0.69    0.00    5.49
 1990 315   124   121  117.3    0.0  117.3   0.00   1.60  143.4   58.1   59.2    1.6   1.60   0.69    0.00    5.62
 1990 316   125   122  118.1    0.0  118.1   0.00   1.61  144.6   57.6   60.5    1.6   1.61   0.70    0.00    5.76
 1990 317   126   123  129.2    0.0  129.2   0.00   1.76  161.8   61.4   67.8    1.8   1.76   0.86    0.00    5.89
 1990 318   127   124  132.2    0.0  132.2   0.00   1.79  166.7   61.2   71.0    1.8   1.79   0.91    0.00    6.06
 1990 319   128   125  133.5    4.3  129.2   1.70   1.76  169.0   60.3   68.9    1.8   1.76   0.94    0.00    6.23
 1990 320   129   126  134.6    8.2  126.5   1.68   1.71  170.8   58.5   68.0    1.7   1.71   0.95    0.00    6.41
 1990 321   130   127  136.0   11.8  124.2   1.68   1.68  172.8   57.5   66.7    1.7   1.68   0.95    0.00    6.60
 1990 322   131   128  137.0   16.0  121.0   1.68   1.64  174.2   56.0   65.0    1.6   1.64   0.94    0.00    6.78
 1990 323   132   129  137.7   20.4  117.4   1.69   1.59  175.3   54.3   63.1    1.6   1.59   0.94    0.00    6.97
 1990 324   133   130  138.4   24.5  114.0   1.68   1.54  176.3   52.7   61.2    1.5   1.54   0.94    0.00    7.16
 1990 325   134   131  139.0   28.6  110.4   1.68   1.49  177.1   51.1   59.3    1.5   1.49   0.94    0.00    7.36
 1990 326   135   132  145.9   32.6  113.3   1.66   1.53  186.7   52.4   60.9    1.5   1.53   0.99    0.00    7.55
 1990 327   136   133  148.9   36.7  112.2   1.67   1.52  190.9   51.9   60.3    1.5   1.52   1.00    0.00    7.75
 1990 328   137   134  150.4   41.0  109.4   1.67   1.48  193.0   50.6   58.8    1.5   1.48   1.01    0.00    7.97
 1990 329   138   135  151.5   45.3  106.2   1.67   1.44  194.5   49.1   57.1    1.4   1.44   1.00    0.00    8.18
 1990 330   139   136  152.2   49.3  102.9   1.67   1.39  195.4   47.6   55.3    1.4   1.39   1.00    0.00    8.40
 1990 331   140   137  152.8   51.8  101.0   1.67   1.37  196.2   46.7   54.2    1.4   1.37   0.99    0.00    8.62
 1990 332   141   138  153.4   54.7   98.7   1.67   1.34  197.2   45.7   53.0    1.3   1.34   0.98    0.00    8.84
 1990 333   142   139  154.1   58.1   96.0   1.66   1.30  198.2   44.4   51.6    1.3   1.30   0.97    0.00    9.06
 1990 334   143   140  154.9   61.5   93.4   1.66   1.26  199.3   43.2   50.2    1.3   1.26   0.98    0.00    9.28
 1990 335   144   141  155.6   64.7   90.9   1.65   1.23  200.1   42.0   48.8    1.2   1.23   0.97    0.00    9.50
 1990 336   145   142  156.2   67.8   88.5   1.65   1.20  201.0   40.9   47.5    1.2   1.20   0.98    0.00    9.73
 1990 337   146   143  156.8   70.3   86.5   1.64   1.17  201.8   40.0   46.5    1.2   1.17   0.96    0.00    9.95
 1990 338   147   144  157.3   73.5   83.8   1.63   1.13  202.4   38.8   45.0    1.1   1.13   0.96    0.00   10.18
 1990 339   148   145  158.0   77.2   80.8   1.62   1.09  203.4   37.4   43.4    1.1   1.09   0.96    0.00   10.40
 1990 340   149   146  158.8   80.7   78.0   1.61   1.05  204.4   36.1   41.9    1.1   1.05   0.96    0.00   10.63
 1990 341   150   147  159.2   84.2   74.9   1.60   1.01  204.9   34.7   40.3    1.0   1.01   0.96    0.00   10.86
 1990 342   151   148  159.6   87.5   72.1   1.59   0.98  205.5   33.4   38.8    1.0   0.98   0.95    0.00   11.09
 1990 343   152   149  160.4   90.3   70.2   1.58   0.96  206.6   32.8   37.4    1.0   0.96   0.96    0.00   11.32
 1990 344   153   150  160.9   93.0   67.9   1.57   0.93  207.1   31.8   36.2    0.9   0.93   0.97    0.00   11.55
 1990 345   154   151  161.4   96.0   65.4   1.56   0.88  207.7   30.3   35.1    0.9   0.88   0.97    0.00   11.78
 1990 346   155   152  162.1   98.2   63.9   1.55   0.86  208.6   29.5   34.3    0.9   0.86   0.97    0.00   12.02
 1990 347   156   153  162.8  100.7   62.1   1.54   0.84  209.4   28.7   33.4    0.8   0.84   0.97    0.00   12.25
 1990 348   157   154  163.5  102.6   60.9   1.53   0.82  210.4   28.2   32.7    0.8   0.82   0.96    0.00   12.48
 1990 349   158   155  164.3  105.2   59.1   1.51   0.80  211.3   27.3   31.8    0.8   0.80   0.96    0.00   12.72
 1990 350   159   156  165.0  107.9   57.1   1.50   0.77  212.2   26.4   30.7    0.8   0.77   0.96    0.00   12.95
 1990 351   160   157  165.7  110.7   55.1   1.48   0.75  213.1   25.5   29.6    0.7   0.75   0.96    0.00   13.19
 1990 352   161   158  166.5  113.2   53.3   1.47   0.72  214.1   24.6   28.6    0.7   0.72   0.96    0.00   13.42
 1990 353   162   159  167.3  115.5   51.8   1.46   0.70  215.0   23.9   27.8    0.7   0.70   0.96    0.00   13.66
 1990 354   163   160  168.0  117.9   50.1   1.44   0.68  216.0   23.2   26.9    0.7   0.68   0.96    0.00   13.90
 1990 355   164   161  168.8  120.2   48.6   1.43   0.66  216.9   22.5   26.1    0.7   0.66   0.97    0.00   14.14
 1990 356   165   162  169.5  122.3   47.2   1.41   0.65  217.7   22.2   25.0    0.6   0.65   0.98    0.00   14.38
 1990 357   166   163  169.5  122.3   47.2   1.41   0.65  218.5   22.2   25.0    0.6   0.65   0.98    0.00   14.38
 1990 358   167   164  169.5  122.3   47.2   1.41   0.65  219.3   22.2   25.0    0.6   0.65   0.98    0.00   14.38
 1990 359   168   165  169.5  122.3   47.2   1.41   0.65  220.1   22.2   25.0    0.6   0.65   0.98    0.00   14.38

*DSSAT Cropping System Model Ver. 4.0.2.000               Aug 03, 2016; 12:23:42

*RUN   2        : UYMZ                    
 MODEL          : MZCER040 - Maize           
 EXPERIMENT     : UYMZ0108 MZ    late to create DSS                             
 TREATMENT  1   : UYMZ                    

@YEAR DOY   DAS   DAP   CNAD   GNAD   VNAD   GN%D   VN%D   NUPC   LNAD   SNAD   LN%D   SN%D   RN%D   SNN0C   SNN1C
 1991 194     3     0    0.0    0.0    0.0   0.00   0.00    0.0    0.0    0.0    0.0   0.00   0.00    0.00    0.00
 1991 195     4     1    0.0    0.0    0.0   0.00   0.00    0.0    0.0    0.0    0.0   0.00   0.00    0.00    0.00
 1991 196     5     2    0.0    0.0    0.0   0.00   0.00    0.0    0.0    0.0    0.0   0.00   0.00    0.00    0.00
 1991 197     6     3    0.0    0.0    0.0   0.00   0.00    0.0    0.0    0.0    0.0   0.00   0.00    0.00    0.00
 1991 198     7     4    0.0    0.0    0.0   0.00   0.00    0.0    0.0    0.0    0.0   0.00   0.00    0.00    0.00
 1991 199     8     5    0.0    0.0    0.0   0.00   0.00    0.0    0.0    0.0    0.0   0.00   0.00    0.00    0.00
 1991 200     9     6    0.0    0.0    0.0   0.00   0.00    0.0    0.0    0.0    0.0   0.00   0.00    0.00    0.00
 1991 201    10     7    0.0    0.0    0.0   0.00   0.00    0.0    0.0    0.0    0.0   0.00   0.00    0.00    0.00
 1991 202    11     8    0.0    0.0    0.0   0.00   0.00    0.0    0.0    0.0    0.0   0.00   0.00    0.00    0.00
 1991 203    12     9    0.0    0.0    0.0   0.00   0.00    0.0    0.0    0.0    0.0   0.00   0.00    0.00    0.00
 1991 204    13    10    0.0    0.0    0.0   0.00   0.00    0.0    0.0    0.0    0.0   0.00   0.00    0.00    0.00
 1991 205    14    11    0.0    0.0    0.0   0.00   0.00    0.0    0.0    0.0    0.0   0.00   0.00    0.00    0.00
 1991 206    15    12    0.0    0.0    0.0   0.00   0.00    0.0    0.0    0.0    0.0   0.00   0.00    0.00    0.00
 1991 207    16    13    0.0    0.0    0.0   0.00   0.00    0.0    0.0    0.0    0.0   0.00   0.00    0.00    0.00
 1991 208    17    14    1.2    0.0    1.2   0.00   4.40    0.0    0.6    0.6    4.4   4.40   0.00    0.00    0.00
 1991 209    18    15    1.3    0.0    1.3   0.00   4.52    0.2    0.6    0.6    4.5   4.52   1.09    0.00    0.00
 1991 210    19    16    1.3    0.0    1.3   0.00   4.48    0.2    0.6    0.6    4.5   4.48   1.12    0.00    0.00
 1991 211    20    17    1.3    0.0    1.3   0.00   4.48    0.2    0.6    0.6    4.5   4.48   1.10    0.00    0.00
 1991 212    21    18    1.3    0.0    1.3   0.00   4.47    0.2    0.6    0.6    4.5   4.47   1.15    0.00    0.00
 1991 213    22    19    1.3    0.0    1.3   0.00   4.47    0.2    0.6    0.6    4.5   4.47   1.26    0.00    0.00
 1991 214    23    20    1.3    0.0    1.3   0.00   4.47    0.2    0.6    0.6    4.5   4.47   1.26    0.00    0.00
 1991 215    24    21    1.3    0.0    1.3   0.00   4.47    0.2    0.6    0.6    4.5   4.47   1.26    0.00    0.00
 1991 216    25    22    1.3    0.0    1.3   0.00   4.47    0.2    0.6    0.6    4.5   4.47   1.27    0.00    0.00
 1991 217    26    23    1.3    0.0    1.3   0.00   4.47    0.2    0.6    0.6    4.5   4.47   1.27    0.00    0.00
 1991 218    27    24    1.3    0.0    1.3   0.00   4.47    0.2    0.6    0.6    4.5   4.47   1.28    0.00    0.00
 1991 219    28    25    1.3    0.0    1.3   0.00   4.47    0.2    0.6    0.6    4.5   4.47   1.28    0.00    0.00
 1991 220    29    26    1.3    0.0    1.3   0.00   4.47    0.2    0.6    0.6    4.5   4.47   1.28    0.00    0.00
 1991 221    30    27    1.3    0.0    1.3   0.00   4.47    0.2    0.6    0.6    4.5   4.47   1.28    0.00    0.00
 1991 222    31    28    1.3    0.0    1.3   0.00   4.47    0.2    0.6    0.6    4.5   4.47   1.28    0.00    0.00
 1991 223    32    29    1.3    0.0    1.3   0.00   4.47    0.2    0.6    0.6    4.5   4.47   1.25    0.00    0.00
 1991 224    33    30    1.3    0.0    1.3   0.00   4.47    0.2    0.6    0.6    4.5   4.47   1.22    0.00    0.00
 1991 225    34    31    1.3    0.0    1.3   0.00   4.47    0.2    0.6    0.6    4.5   4.47   1.17    0.00    0.00
 1991 226    35    32    1.3    0.0    1.3   0.00   4.47    0.2    0.6    0.6    4.5   4.47   1.10    0.00    0.00
 1991 227    36    33    1.3    0.0    1.3   0.00   4.00    0.2    0.7    0.6    4.0   4.00   1.07    0.00    0.00
 1991 228    37    34    1.3    0.0    1.3   0.00   3.32    0.3    0.9    0.5    3.3   3.32   1.15    0.00    0.00
 1991 229    38    35    1.7    0.0    1.7   0.00   3.43    0.8    1.2    0.5    3.4   3.43   1.28    0.00    0.00
 1991 230    39    36    2.1    0.0    2.1   0.00   3.63    1.2    1.6    0.5    3.6   3.63   1.14    0.00    0.01
 1991 231    40    37    2.5    0.0    2.5   0.00   3.50    1.6    2.0    0.5    3.5   3.50   1.25    0.00    0.01
 1991 232    41    38    2.9    0.0    2.9   0.00   3.51    2.1    2.4    0.5    3.5   3.51   1.12    0.00    0.01
 1991 233    42    39    3.5    0.0    3.5   0.00   3.50    2.8    3.0    0.5    3.5   3.50   1.34    0.00    0.01
 1991 234    43    40    4.1    0.0    4.1   0.00   3.46    3.5    3.6    0.5    3.5   3.46   1.24    0.00    0.01
 1991 235    44    41    4.8    0.0    4.8   0.00   3.73    4.4    4.3    0.5    3.7   3.73   1.27    0.00    0.02
 1991 236    45    42    5.3    0.0    5.3   0.00   3.70    5.2    4.8    0.5    3.7   3.70   1.34    0.00    0.02
 1991 237    46    43    5.8    0.0    5.8   0.00   3.41    5.9    5.3    0.5    3.4   3.41   1.27    0.00    0.03
 1991 238    47    44    6.8    0.0    6.8   0.00   3.69    6.9    6.3    0.5    3.7   3.69   1.11    0.00    0.04
 1991 239    48    45    7.4    0.0    7.4   0.00   3.73    7.9    6.9    0.5    3.7   3.73   1.24    0.00    0.04
 1991 240    49    46    7.9    0.0    7.9   0.00   3.60    8.8    7.4    0.5    3.6   3.60   1.25    0.00    0.05
 1991 241    50    47    8.7    0.0    8.7   0.00   3.40    9.6    8.2    0.5    3.4   3.40   1.17    0.00    0.06
 1991 242    51    48   10.1    0.0   10.1   0.00   3.39   10.9    9.6    0.5    3.4   3.39   1.11    0.00    0.07
 1991 243    52    49   11.6    0.0   11.6   0.00   3.64   12.6   11.1    0.5    3.6   3.64   1.11    0.00    0.08
 1991 244    53    50   12.4    0.0   12.4   0.00   3.82   14.6   11.9    0.5    3.8   3.82   1.32    0.00    0.09
 1991 245    54    51   12.7    0.0   12.7   0.00   3.51   14.6   12.2    0.5    3.5   3.51   1.15    0.00    0.11
 1991 246    55    52   13.8    0.0   13.8   0.00   3.42   16.4   13.3    0.5    3.4   3.42   1.20    0.00    0.13
 1991 247    56    53   17.7    0.0   17.7   0.00   3.78   21.0   17.2    0.5    3.8   3.78   1.21    0.00    0.14
 1991 248    57    54   19.6    0.0   19.6   0.00   3.68   23.4   19.1    0.5    3.7   3.68   1.19    0.00    0.17
 1991 249    58    55   21.1    0.0   21.1   0.00   3.57   24.4   20.6    0.5    3.6   3.57   1.07    0.00    0.19
 1991 250    59    56   22.5    0.0   22.5   0.00   3.54   26.0   21.9    0.5    3.5   3.54   1.10    0.00    0.21
 1991 251    60    57   24.2    0.0   24.2   0.00   3.51   28.4   23.6    0.6    3.5   3.51   1.16    0.00    0.24
 1991 252    61    58   25.9    0.0   25.9   0.00   3.49   31.5   25.3    0.6    3.5   3.49   1.24    0.00    0.27
 1991 253    62    59   28.8    0.0   28.8   0.00   3.45   34.8   28.0    0.8    3.5   3.45   1.18    0.00    0.30
 1991 254    63    60   31.8    0.0   31.8   0.00   3.42   39.0   30.9    1.0    3.4   3.42   1.20    0.00    0.34
 1991 255    64    61   35.5    0.0   35.5   0.00   3.38   43.4   34.2    1.3    3.4   3.38   1.18    0.00    0.38
 1991 256    65    62   39.8    0.0   39.8   0.00   3.33   47.3   37.9    1.8    3.3   3.33   1.10    0.00    0.42
 1991 257    66    63   41.4    0.0   41.4   0.00   3.31   49.0   39.3    2.1    3.3   3.31   1.09    0.00    0.47
 1991 258    67    64   42.7    0.0   42.7   0.00   3.35   50.7   40.5    2.2    3.3   3.35   1.12    0.00    0.51
 1991 259    68    65   44.8    0.0   44.8   0.00   3.27   52.5   42.2    2.6    3.3   3.27   1.08    0.00    0.56
 1991 260    69    66   47.9    0.0   47.9   0.00   3.24   55.6   44.7    3.2    3.2   3.24   1.07    0.00    0.60
 1991 261    70    67   50.8    0.0   50.8   0.00   3.21   61.0   47.0    3.8    3.2   3.21   1.21    0.00    0.65
 1991 262    71    68   53.0    0.0   53.0   0.00   3.19   64.9   48.6    4.4    3.2   3.19   1.21    0.00    0.70
 1991 263    72    69   56.0    0.0   56.0   0.00   3.17   66.9   50.9    5.1    3.2   3.17   1.09    0.00    0.77
 1991 264    73    70   59.8    0.0   59.8   0.00   3.13   70.9   53.5    6.2    3.1   3.13   1.09    0.00    0.83
 1991 265    74    71   62.2    0.0   62.2   0.00   3.11   76.1   55.2    7.0    3.1   3.11   1.19    0.00    0.89
 1991 266    75    72   63.9    0.0   63.9   0.00   3.10   79.5   56.4    7.5    3.1   3.10   1.19    0.00    0.96
 1991 267    76    73   66.1    0.0   66.1   0.00   3.08   83.0   57.8    8.2    3.1   3.08   1.17    0.00    1.05
 1991 268    77    74   69.2    0.0   69.2   0.00   3.06   87.5   59.8    9.3    3.1   3.06   1.16    0.00    1.14
 1991 269    78    75   72.9    0.0   72.9   0.00   3.03   92.4   62.1   10.7    3.0   3.03   1.15    0.00    1.24
 1991 270    79    76   78.3    0.0   78.3   0.00   2.99   97.7   65.3   13.0    3.0   2.99   1.10    0.00    1.34
 1991 271    80    77   80.6    0.0   80.6   0.00   2.98  102.2   66.7   14.0    3.0   2.98   1.14    0.00    1.44
 1991 272    81    78   82.9    0.0   82.9   0.00   2.96  105.4   67.8   15.0    3.0   2.96   1.13    0.00    1.56
 1991 273    82    79   86.1    0.0   86.1   0.00   2.93  110.2   69.6   16.6    2.9   2.93   1.13    0.00    1.67
 1991 274    83    80   88.4    0.0   88.4   0.00   2.91  114.1   70.7   17.7    2.9   2.91   1.13    0.00    1.80
 1991 275    84    81   90.7    0.0   90.7   0.00   2.88  117.3   71.7   18.9    2.9   2.88   1.11    0.00    1.93
 1991 276    85    82   92.4    0.0   92.4   0.00   2.82  119.9   72.2   20.1    2.8   2.82   1.08    0.00    2.07
 1991 277    86    83   94.2    0.0   94.2   0.00   2.76  122.1   72.7   21.5    2.8   2.76   1.07    0.00    2.21
 1991 278    87    84   96.1    0.0   96.1   0.00   2.74  123.9   73.5   22.6    2.7   2.74   1.07    0.00    2.36
 1991 279    88    85   97.2    0.0   97.2   0.00   2.72  125.5   73.9   23.3    2.7   2.72   1.06    0.00    2.50
 1991 280    89    86   97.9    0.0   97.9   0.00   2.70  126.7   74.1   23.9    2.7   2.70   1.03    0.00    2.65
 1991 281    90    87   98.7    0.0   98.7   0.00   2.66  127.9   74.0   24.6    2.7   2.66   1.00    0.00    2.80
 1991 282    91    88   99.2    0.0   99.2   0.00   2.59  128.8   73.7   25.6    2.6   2.59   0.97    0.00    2.95
 1991 283    92    89   99.8    0.0   99.8   0.00   2.51  129.6   73.1   26.7    2.5   2.51   0.94    0.00    3.10
 1991 284    93    90  100.2    0.0  100.2   0.00   2.40  130.2   72.1   28.1    2.4   2.40   0.91    0.00    3.25
 1991 285    94    91  100.6    0.0  100.6   0.00   2.23  130.8   70.3   30.3    2.2   2.23   0.90    0.00    3.41
 1991 286    95    92  101.1    0.0  101.1   0.00   2.07  131.4   69.2   31.9    2.1   2.07   0.91    0.00    3.56
 1991 287    96    93  101.7    0.0  101.7   0.00   2.00  132.1   68.5   33.3    2.0   2.00   0.91    0.00    3.72
 1991 288    97    94  102.2    0.0  102.2   0.00   1.96  132.6   68.0   34.2    2.0   1.96   0.91    0.00    3.88
 1991 289    98    95  102.6    0.0  102.6   0.00   1.93  133.1   67.7   34.9    1.9   1.93   0.92    0.00    4.03
 1991 290    99    96  103.0    0.0  103.0   0.00   1.90  133.6   67.3   35.7    1.9   1.90   0.88    0.00    4.19
 1991 291   100    97  103.5    0.0  103.5   0.00   1.86  134.2   66.7   36.7    1.9   1.86   0.85    0.00    4.35
 1991 292   101    98  104.6    0.0  104.6   0.00   1.81  135.7   66.2   38.4    1.8   1.81   0.83    0.00    4.50
 1991 293   102    99  105.9    0.0  105.9   0.00   1.76  137.2   65.7   40.2    1.8   1.76   0.82    0.00    4.66
 1991 294   103   100  107.0    0.0  107.0   0.00   1.69  138.6   64.8   42.2    1.7   1.69   0.81    0.00    4.82
 1991 295   104   101  108.1    0.0  108.1   0.00   1.62  139.9   63.6   44.5    1.6   1.62   0.82    0.00    4.98
 1991 296   105   102  109.2    0.0  109.2   0.00   1.60  141.2   63.4   45.8    1.6   1.60   0.82    0.00    5.15
 1991 297   106   103  110.2    0.0  110.2   0.00   1.59  142.4   63.4   46.8    1.6   1.59   0.82    0.00    5.31
 1991 298   107   104  111.2    0.0  111.2   0.00   1.56  143.5   62.9   48.2    1.6   1.56   0.83    0.00    5.48
 1991 299   108   105  112.1    0.0  112.1   0.00   1.53  144.7   62.6   49.6    1.5   1.53   0.81    0.00    5.64
 1991 300   109   106  113.0    0.0  113.0   0.00   1.50  145.7   62.1   50.9    1.5   1.50   0.81    0.00    5.81
 1991 301   110   107  113.7    0.0  113.7   0.00   1.48  146.6   61.9   51.8    1.5   1.48   0.81    0.00    5.97
 1991 302   111   108  114.5    0.0  114.5   0.00   1.47  147.5   61.8   52.7    1.5   1.47   0.82    0.00    6.14
 1991 303   112   109  115.2    0.0  115.2   0.00   1.44  148.3   61.4   53.8    1.4   1.44   0.82    0.00    6.31
 1991 304   113   110  115.8    0.0  115.8   0.00   1.42  149.0   61.0   54.8    1.4   1.42   0.82    0.00    6.48
 1991 305   114   111  116.5    0.0  116.5   0.00   1.39  149.8   60.6   55.9    1.4   1.39   0.82    0.00    6.65
 1991 306   115   112  117.2    0.0  117.2   0.00   1.52  150.7   65.6   51.7    1.5   1.52   0.80    0.00    6.82
 1991 307   116   113  117.8    0.0  117.8   0.00   1.53  151.5   65.2   52.6    1.5   1.53   0.78    0.00    6.99
 1991 308   117   114  118.4    0.0  118.4   0.00   1.53  152.2   64.6   53.8    1.5   1.53   0.77    0.00    7.16
 1991 309   118   115  119.1    0.0  119.1   0.00   1.54  153.1   64.1   55.0    1.5   1.54   0.77    0.00    7.33
 1991 310   119   116  119.8    0.0  119.8   0.00   1.54  154.0   63.6   56.2    1.5   1.54   0.78    0.00    7.50
 1991 311   120   117  120.3    0.0  120.3   0.00   1.55  154.8   63.0   57.3    1.6   1.55   0.76    0.00    7.68
 1991 312   121   118  121.1    0.0  121.1   0.00   1.56  155.9   62.5   58.6    1.6   1.56   0.75    0.00    7.85
 1991 313   122   119  121.7    0.0  121.7   0.00   1.57  156.8   61.9   59.8    1.6   1.57   0.73    0.00    8.03
 1991 314   123   120  122.2    0.0  122.2   0.00   1.58  157.7   61.2   61.1    1.6   1.58   0.73    0.00    8.20
 1991 315   124   121  122.8    0.0  122.8   0.00   1.59  158.5   60.5   62.2    1.6   1.59   0.72    0.00    8.38
 1991 316   125   122  123.2    0.0  123.2   0.00   1.60  159.3   60.0   63.2    1.6   1.60   0.70    0.00    8.56
 1991 317   126   123  132.7    0.0  132.7   0.00   1.73  176.2   63.6   69.1    1.7   1.73   0.83    0.00    8.75
 1991 318   127   124  135.0    0.0  135.0   0.00   1.76  180.5   63.6   71.5    1.8   1.76   0.86    0.00    8.97
 1991 319   128   125  136.9    0.0  136.9   0.00   1.79  184.2   63.2   73.7    1.8   1.79   0.89    0.00    9.20
 1991 320   129   126  137.6    0.0  137.6   0.00   1.80  186.1   62.2   75.4    1.8   1.80   0.90    0.00    9.43
 1991 321   130   127  138.1    3.3  134.8   1.70   1.76  187.1   60.9   73.9    1.8   1.76   0.90    0.00    9.68
 1991 322   131   128  138.5    7.3  131.2   1.68   1.72  187.9   59.3   71.9    1.7   1.72   0.90    0.00    9.92
 1991 323   132   129  139.0   10.9  128.1   1.67   1.67  188.7   57.9   70.2    1.7   1.67   0.90    0.00   10.17
 1991 324   133   130  139.4   14.1  125.3   1.66   1.64  189.5   56.6   68.7    1.6   1.64   0.90    0.00   10.42
 1991 325   134   131  139.9   18.4  121.5   1.65   1.59  190.2   54.9   66.6    1.6   1.59   0.89    0.00   10.67
 1991 326   135   132  144.2   22.6  121.7   1.64   1.59  197.2   55.0   66.7    1.6   1.59   0.93    0.00   10.93
 1991 327   136   133  147.5   27.0  120.5   1.65   1.58  202.4   54.5   66.0    1.6   1.58   0.96    0.00   11.19
 1991 328   137   134  148.5   29.6  119.0   1.65   1.56  204.1   53.8   65.2    1.6   1.56   0.98    0.00   11.47
 1991 329   138   135  149.3   31.9  117.4   1.65   1.54  205.3   53.0   64.3    1.5   1.54   0.99    0.00   11.74
 1991 330   139   136  150.0   35.5  114.5   1.65   1.50  206.3   51.7   62.8    1.5   1.50   0.99    0.00   12.02
 1991 331   140   137  150.6   38.7  111.9   1.65   1.46  207.2   50.6   61.3    1.5   1.46   0.98    0.00   12.31
 1991 332   141   138  151.3   42.7  108.6   1.64   1.42  208.1   49.1   59.5    1.4   1.42   0.99    0.00   12.59
 1991 333   142   139  151.9   46.9  105.0   1.64   1.37  208.9   47.4   57.5    1.4   1.37   0.99    0.00   12.87
 1991 334   143   140  152.3   51.0  101.3   1.63   1.33  209.4   45.8   55.5    1.3   1.33   0.99    0.00   13.16
 1991 335   144   141  152.9   55.0   97.9   1.62   1.28  210.2   44.2   53.7    1.3   1.28   0.99    0.00   13.44
 1991 336   145   142  153.6   58.9   94.7   1.61   1.24  211.2   42.8   51.9    1.2   1.24   0.99    0.00   13.73
 1991 337   146   143  154.6   62.9   91.7   1.60   1.20  212.3   41.4   50.3    1.2   1.20   1.00    0.00   14.02
 1991 338   147   144  155.4   66.8   88.7   1.60   1.16  213.4   40.1   48.6    1.2   1.16   1.00    0.00   14.30
 1991 339   148   145  156.1   70.5   85.6   1.59   1.12  214.2   38.7   46.9    1.1   1.12   1.00    0.00   14.59
 1991 340   149   146  156.6   74.2   82.4   1.58   1.08  214.7   37.2   45.1    1.1   1.08   1.00    0.00   14.88
 1991 341   150   147  157.4   77.8   79.5   1.57   1.04  215.7   35.9   43.6    1.0   1.04   1.00    0.00   15.17
 1991 342   151   148  158.2   81.4   76.8   1.56   1.00  216.7   34.7   42.1    1.0   1.00   1.00    0.00   15.46
 1991 343   152   149  158.9   84.3   74.7   1.55   0.99  217.6   34.0   40.6    1.0   0.99   1.00    0.00   15.75
 1991 344   153   150  159.6   87.6   72.0   1.53   0.95  218.4   32.7   39.3    0.9   0.95   1.01    0.00   16.04
 1991 345   154   151  160.2   90.9   69.3   1.52   0.91  219.1   31.4   37.9    0.9   0.91   1.01    0.00   16.34
 1991 346   155   152  161.1   93.5   67.6   1.51   0.89  220.1   30.6   37.0    0.9   0.89   1.02    0.00   16.63
 1991 347   156   153  161.8   96.6   65.3   1.50   0.85  220.9   29.5   35.8    0.9   0.85   1.02    0.00   16.92
 1991 348   157   154  162.6   99.6   63.0   1.48   0.84  221.7   28.9   34.1    0.8   0.84   1.02    0.00   17.21
 1991 349   158   155  163.0  102.4   60.6   1.47   0.81  222.2   28.2   32.5    0.8   0.81   1.03    0.00   17.51
 1991 350   159   156  163.4  105.2   58.2   1.46   0.78  222.7   26.9   31.2    0.8   0.78   1.03    0.00   17.80
 1991 351   160   157  164.1  108.1   56.0   1.44   0.74  223.4   25.7   30.3    0.7   0.74   1.03    0.00   18.09
 1991 352   161   158  165.0  110.8   54.2   1.43   0.72  224.5   24.7   29.5    0.7   0.72   1.03    0.00   18.39
 1991 353   162   159  165.9  113.4   52.5   1.41   0.69  225.4   23.9   28.6    0.7   0.69   1.04    0.00   18.68
 1991 354   163   160  166.7  115.9   50.8   1.40   0.66  226.3   23.0   27.8    0.7   0.66   1.04    0.00   18.98
 1991 355   164   161  167.6  118.3   49.3   1.39   0.65  227.3   22.4   26.9    0.6   0.65   1.05    0.00   19.27
 1991 356   165   162  168.7  120.6   48.1   1.37   0.64  228.4   22.1   26.0    0.6   0.64   1.05    0.00   19.57
 1991 357   166   163  168.7  120.6   48.1   1.37   0.64  229.6   22.1   26.0    0.6   0.64   1.05    0.00   19.57
 1991 358   167   164  168.7  120.6   48.1   1.37   0.64  230.8   22.1   26.0    0.6   0.64   1.05    0.00   19.57
 1991 359   168   165  168.7  120.6   48.1   1.37   0.64  232.0   22.1   26.0    0.6   0.64   1.05    0.00   19.57
 1991 360   169   166  168.7  120.6   48.1   1.37   0.64  233.1   22.1   26.0    0.6   0.64   1.05    0.00   19.57

*DSSAT Cropping System Model Ver. 4.0.2.000               Aug 03, 2016; 12:23:42

*RUN   3        : UYMZ                    
 MODEL          : MZCER040 - Maize           
 EXPERIMENT     : UYMZ0108 MZ    late to create DSS                             
 TREATMENT  1   : UYMZ                    

@YEAR DOY   DAS   DAP   CNAD   GNAD   VNAD   GN%D   VN%D   NUPC   LNAD   SNAD   LN%D   SN%D   RN%D   SNN0C   SNN1C
 1992 194     3     0    0.0    0.0    0.0   0.00   0.00    0.0    0.0    0.0    0.0   0.00   0.00    0.00    0.00
 1992 195     4     1    0.0    0.0    0.0   0.00   0.00    0.0    0.0    0.0    0.0   0.00   0.00    0.00    0.00
 1992 196     5     2    0.0    0.0    0.0   0.00   0.00    0.0    0.0    0.0    0.0   0.00   0.00    0.00    0.00
 1992 197     6     3    0.0    0.0    0.0   0.00   0.00    0.0    0.0    0.0    0.0   0.00   0.00    0.00    0.00
 1992 198     7     4    0.0    0.0    0.0   0.00   0.00    0.0    0.0    0.0    0.0   0.00   0.00    0.00    0.00
 1992 199     8     5    0.0    0.0    0.0   0.00   0.00    0.0    0.0    0.0    0.0   0.00   0.00    0.00    0.00
 1992 200     9     6    0.0    0.0    0.0   0.00   0.00    0.0    0.0    0.0    0.0   0.00   0.00    0.00    0.00
 1992 201    10     7    0.0    0.0    0.0   0.00   0.00    0.0    0.0    0.0    0.0   0.00   0.00    0.00    0.00
 1992 202    11     8    0.0    0.0    0.0   0.00   0.00    0.0    0.0    0.0    0.0   0.00   0.00    0.00    0.00
 1992 203    12     9    0.0    0.0    0.0   0.00   0.00    0.0    0.0    0.0    0.0   0.00   0.00    0.00    0.00
 1992 204    13    10    0.0    0.0    0.0   0.00   0.00    0.0    0.0    0.0    0.0   0.00   0.00    0.00    0.00
 1992 205    14    11    0.0    0.0    0.0   0.00   0.00    0.0    0.0    0.0    0.0   0.00   0.00    0.00    0.00
 1992 206    15    12    0.0    0.0    0.0   0.00   0.00    0.0    0.0    0.0    0.0   0.00   0.00    0.00    0.00
 1992 207    16    13    0.0    0.0    0.0   0.00   0.00    0.0    0.0    0.0    0.0   0.00   0.00    0.00    0.00
 1992 208    17    14    0.0    0.0    0.0   0.00   0.00    0.0    0.0    0.0    0.0   0.00   0.00    0.00    0.00
 1992 209    18    15    0.0    0.0    0.0   0.00   0.00    0.0    0.0    0.0    0.0   0.00   0.00    0.00    0.00
 1992 210    19    16    0.0    0.0    0.0   0.00   0.00    0.0    0.0    0.0    0.0   0.00   0.00    0.00    0.00
 1992 211    20    17    0.0    0.0    0.0   0.00   0.00    0.0    0.0    0.0    0.0   0.00   0.00    0.00    0.00
 1992 212    21    18    0.0    0.0    0.0   0.00   0.00    0.0    0.0    0.0    0.0   0.00   0.00    0.00    0.00
 1992 213    22    19    0.0    0.0    0.0   0.00   0.00    0.0    0.0    0.0    0.0   0.00   0.00    0.00    0.00
 1992 214    23    20    0.0    0.0    0.0   0.00   0.00    0.0    0.0    0.0    0.0   0.00   0.00    0.00    0.00
 1992 215    24    21    0.0    0.0    0.0   0.00   0.00    0.0    0.0    0.0    0.0   0.00   0.00    0.00    0.00
 1992 216    25    22    0.0    0.0    0.0   0.00   0.00    0.0    0.0    0.0    0.0   0.00   0.00    0.00    0.00
 1992 217    26    23    0.0    0.0    0.0   0.00   0.00    0.0    0.0    0.0    0.0   0.00   0.00    0.00    0.00
 1992 218    27    24    0.0    0.0    0.0   0.00   0.00    0.0    0.0    0.0    0.0   0.00   0.00    0.00    0.00
 1992 219    28    25    0.0    0.0    0.0   0.00   0.00    0.0    0.0    0.0    0.0   0.00   0.00    0.00    0.00
 1992 220    29    26    0.0    0.0    0.0   0.00   0.00    0.0    0.0    0.0    0.0   0.00   0.00    0.00    0.00
 1992 221    30    27    0.0    0.0    0.0   0.00   0.00    0.0    0.0    0.0    0.0   0.00   0.00    0.00    0.00
 1992 222    31    28    0.0    0.0    0.0   0.00   0.00    0.0    0.0    0.0    0.0   0.00   0.00    0.00    0.00
 1992 223    32    29    0.0    0.0    0.0   0.00   0.00    0.0    0.0    0.0    0.0   0.00   0.00    0.00    0.00
 1992 224    33    30    0.0    0.0    0.0   0.00   0.00    0.0    0.0    0.0    0.0   0.00   0.00    0.00    0.00
 1992 225    34    31    0.0    0.0    0.0   0.00   0.00    0.0    0.0    0.0    0.0   0.00   0.00    0.00    0.00
 1992 226    35    32    1.2    0.0    1.2   0.00   4.40    0.0    0.6    0.6    4.4   4.40   0.00    0.00    0.00
 1992 227    36    33    1.3    0.0    1.3   0.00   4.56    0.2    0.6    0.6    4.6   4.56   1.08    0.00    0.00
 1992 228    37    34    1.3    0.0    1.3   0.00   4.56    0.2    0.6    0.6    4.6   4.56   1.07    0.00    0.00
 1992 229    38    35    1.3    0.0    1.3   0.00   4.56    0.2    0.6    0.6    4.6   4.56   1.04    0.00    0.00
 1992 230    39    36    1.3    0.0    1.3   0.00   4.56    0.2    0.6    0.6    4.6   4.56   1.00    0.00    0.00
 1992 231    40    37    1.3    0.0    1.3   0.00   4.47    0.2    0.6    0.6    4.5   4.47   1.13    0.00    0.00
 1992 232    41    38    1.2    0.0    1.2   0.00   4.44    0.2    0.6    0.6    4.4   4.44   1.16    0.00    0.00
 1992 233    42    39    1.2    0.0    1.2   0.00   4.42    0.2    0.6    0.6    4.4   4.42   1.17    0.00    0.00
 1992 234    43    40    1.2    0.0    1.2   0.00   4.40    0.3    0.6    0.6    4.4   4.40   1.17    0.00    0.00
 1992 235    44    41    1.2    0.0    1.2   0.00   4.40    0.3    0.6    0.6    4.4   4.40   1.12    0.00    0.00
 1992 236    45    42    1.2    0.0    1.2   0.00   4.36    0.3    0.6    0.6    4.4   4.36   1.24    0.00    0.01
 1992 237    46    43    1.2    0.0    1.2   0.00   4.34    0.4    0.6    0.6    4.3   4.34   1.25    0.00    0.01
 1992 238    47    44    1.2    0.0    1.2   0.00   3.82    0.4    0.7    0.5    3.8   3.82   1.22    0.00    0.01
 1992 239    48    45    1.4    0.0    1.4   0.00   3.67    0.7    0.8    0.5    3.7   3.67   1.22    0.00    0.01
 1992 240    49    46    1.6    0.0    1.6   0.00   3.55    1.0    1.1    0.5    3.5   3.55   1.21    0.00    0.01
 1992 241    50    47    1.9    0.0    1.9   0.00   3.63    1.4    1.4    0.5    3.6   3.63   1.20    0.00    0.02
 1992 242    51    48    2.2    0.0    2.2   0.00   3.47    1.8    1.7    0.5    3.5   3.47   1.19    0.00    0.02
 1992 243    52    49    2.7    0.0    2.7   0.00   3.70    2.2    2.1    0.5    3.7   3.70   1.09    0.00    0.02
 1992 244    53    50    3.0    0.0    3.0   0.00   3.93    2.6    2.4    0.6    3.9   3.93   1.17    0.00    0.03
 1992 245    54    51    3.2    0.0    3.2   0.00   3.98    2.8    2.6    0.6    4.0   3.98   1.17    0.00    0.03
 1992 246    55    52    3.3    0.0    3.3   0.00   3.93    3.0    2.8    0.6    3.9   3.93   1.17    0.00    0.04
 1992 247    56    53    3.5    0.0    3.5   0.00   3.83    3.3    3.0    0.5    3.8   3.83   1.21    0.00    0.04
 1992 248    57    54    3.8    0.0    3.8   0.00   3.83    4.1    3.3    0.5    3.8   3.83   1.32    0.00    0.05
 1992 249    58    55    4.1    0.0    4.1   0.00   3.74    4.5    3.6    0.5    3.7   3.74   1.24    0.00    0.05
 1992 250    59    56    4.5    0.0    4.5   0.00   3.72    5.2    4.0    0.5    3.7   3.72   1.22    0.00    0.06
 1992 251    60    57    4.9    0.0    4.9   0.00   3.64    5.9    4.4    0.5    3.6   3.64   1.22    0.00    0.07
 1992 252    61    58    5.5    0.0    5.5   0.00   3.55    6.4    5.0    0.5    3.5   3.55   1.11    0.00    0.08
 1992 253    62    59    6.2    0.0    6.2   0.00   3.46    7.4    5.7    0.5    3.5   3.46   1.16    0.00    0.09
 1992 254    63    60    7.2    0.0    7.2   0.00   3.59    8.3    6.7    0.5    3.6   3.59   1.09    0.00    0.11
 1992 255    64    61    8.0    0.0    8.0   0.00   3.52    9.5    7.5    0.5    3.5   3.52   1.15    0.00    0.12
 1992 256    65    62    9.0    0.0    9.0   0.00   3.66   10.5    8.5    0.5    3.7   3.66   1.12    0.00    0.13
 1992 257    66    63    9.7    0.0    9.7   0.00   3.69   11.6    9.2    0.5    3.7   3.69   1.16    0.00    0.15
 1992 258    67    64   10.3    0.0   10.3   0.00   3.65   13.2    9.8    0.5    3.6   3.65   1.25    0.00    0.16
 1992 259    68    65   11.1    0.0   11.1   0.00   3.56   14.6   10.6    0.5    3.6   3.56   1.23    0.00    0.18
 1992 260    69    66   12.1    0.0   12.1   0.00   3.65   16.1   11.6    0.5    3.7   3.65   1.20    0.00    0.20
 1992 261    70    67   12.9    0.0   12.9   0.00   3.38   17.0   12.4    0.5    3.4   3.38   1.14    0.00    0.23
 1992 262    71    68   14.6    0.0   14.6   0.00   3.59   19.8   14.1    0.5    3.6   3.59   1.22    0.00    0.26
 1992 263    72    69   16.3    0.0   16.3   0.00   3.79   22.6   15.8    0.5    3.8   3.79   1.22    0.00    0.29
 1992 264    73    70   17.6    0.0   17.6   0.00   3.68   24.6   17.0    0.5    3.7   3.68   1.20    0.00    0.33
 1992 265    74    71   19.7    0.0   19.7   0.00   3.56   27.4   19.1    0.5    3.6   3.56   1.17    0.00    0.37
 1992 266    75    72   20.6    0.0   20.6   0.00   3.59   28.1   20.1    0.5    3.6   3.59   1.11    0.00    0.41
 1992 267    76    73   21.3    0.0   21.3   0.00   3.52   29.8   20.7    0.5    3.5   3.52   1.15    0.00    0.46
 1992 268    77    74   22.3    0.0   22.3   0.00   3.54   30.5   21.7    0.6    3.5   3.54   1.10    0.00    0.51
 1992 269    78    75   22.8    0.0   22.8   0.00   3.55   33.3   22.2    0.6    3.6   3.55   1.28    0.00    0.55
 1992 270    79    76   23.2    0.0   23.2   0.00   3.54   34.3   22.6    0.6    3.5   3.54   1.25    0.00    0.61
 1992 271    80    77   24.0    0.0   24.0   0.00   3.47   35.3   23.4    0.6    3.5   3.47   1.16    0.00    0.67
 1992 272    81    78   25.3    0.0   25.3   0.00   3.45   37.7   24.6    0.7    3.4   3.45   1.16    0.00    0.73
 1992 273    82    79   27.1    0.0   27.1   0.00   3.42   40.4   26.4    0.8    3.4   3.42   1.15    0.00    0.80
 1992 274    83    80   29.9    0.0   29.9   0.00   3.39   43.9   29.0    1.0    3.4   3.39   1.13    0.00    0.87
 1992 275    84    81   33.5    0.0   33.5   0.00   3.35   47.7   32.2    1.3    3.4   3.35   1.11    0.00    0.95
 1992 276    85    82   36.0    0.0   36.0   0.00   3.32   50.8   34.4    1.6    3.3   3.32   1.11    0.00    1.03
 1992 277    86    83   38.2    0.0   38.2   0.00   3.30   54.9   36.3    1.9    3.3   3.30   1.15    0.00    1.11
 1992 278    87    84   41.8    0.0   41.8   0.00   3.26   59.4   39.2    2.5    3.3   3.26   1.14    0.00    1.20
 1992 279    88    85   44.3    0.0   44.3   0.00   3.23   61.0   41.3    3.0    3.2   3.23   1.08    0.00    1.29
 1992 280    89    86   45.8    0.0   45.8   0.00   3.23   65.7   42.5    3.3    3.2   3.23   1.18    0.00    1.38
 1992 281    90    87   47.0    0.0   47.0   0.00   3.22   68.0   43.5    3.5    3.2   3.22   1.16    0.00    1.48
 1992 282    91    88   48.5    0.0   48.5   0.00   3.19   70.9   44.6    3.9    3.2   3.19   1.15    0.00    1.59
 1992 283    92    89   50.7    0.0   50.7   0.00   3.17   74.6   46.3    4.4    3.2   3.17   1.14    0.00    1.71
 1992 284    93    90   53.2    0.0   53.2   0.00   3.15   78.5   48.2    5.1    3.1   3.15   1.13    0.00    1.84
 1992 285    94    91   56.7    0.0   56.7   0.00   3.12   82.9   50.6    6.1    3.1   3.12   1.12    0.00    1.97
 1992 286    95    92   60.5    0.0   60.5   0.00   3.09   87.6   53.2    7.2    3.1   3.09   1.11    0.00    2.10
 1992 287    96    93   64.1    0.0   64.1   0.00   3.06   93.0   55.6    8.5    3.1   3.06   1.12    0.00    2.24
 1992 288    97    94   69.4    0.0   69.4   0.00   3.02   98.9   59.0   10.5    3.0   3.02   1.11    0.00    2.39
 1992 289    98    95   72.1    0.0   72.1   0.00   2.97  100.4   60.4   11.7    3.0   2.97   1.07    0.00    2.55
 1992 290    99    96   75.5    0.0   75.5   0.00   2.95  103.8   62.3   13.2    2.9   2.95   1.07    0.00    2.69
 1992 291   100    97   78.5    0.0   78.5   0.00   2.93  109.5   63.9   14.6    2.9   2.93   1.12    0.00    2.84
 1992 292   101    98   81.6    0.0   81.6   0.00   2.91  114.5   65.6   16.0    2.9   2.91   1.12    0.00    3.00
 1992 293   102    99   84.9    0.0   84.9   0.00   2.88  116.0   67.2   17.7    2.9   2.88   1.07    0.00    3.17
 1992 294   103   100   87.8    0.0   87.8   0.00   2.86  122.1   68.6   19.2    2.9   2.86   1.12    0.00    3.33
 1992 295   104   101   90.1    0.0   90.1   0.00   2.84  126.4   69.7   20.5    2.8   2.84   1.12    0.00    3.50
 1992 296   105   102   92.6    0.0   92.6   0.00   2.78  129.9   70.5   22.2    2.8   2.78   1.10    0.00    3.69
 1992 297   106   103   94.9    0.0   94.9   0.00   2.66  132.7   70.6   24.4    2.7   2.66   1.08    0.00    3.88
 1992 298   107   104   97.1    0.0   97.1   0.00   2.51  135.1   70.1   27.0    2.5   2.51   1.06    0.00    4.07
 1992 299   108   105   99.1    0.0   99.1   0.00   2.46  137.1   71.3   27.7    2.5   2.46   1.07    0.00    4.27
 1992 300   109   106  100.8    0.0  100.8   0.00   2.26  138.9   70.2   30.6    2.3   2.26   1.06    0.00    4.46
 1992 301   110   107  102.3    0.0  102.3   0.00   2.09  140.4   68.5   33.8    2.1   2.09   1.06    0.00    4.66
 1992 302   111   108  103.6    0.0  103.6   0.00   2.05  141.8   68.5   35.1    2.1   2.05   1.05    0.00    4.85
 1992 303   112   109  104.5    0.0  104.5   0.00   2.00  142.9   68.1   36.4    2.0   2.00   1.01    0.00    5.05
 1992 304   113   110  105.3    0.0  105.3   0.00   1.96  143.8   67.6   37.7    2.0   1.96   0.97    0.00    5.24
 1992 305   114   111  105.9    0.0  105.9   0.00   1.90  144.5   66.9   39.0    1.9   1.90   0.94    0.00    5.44
 1992 306   115   112  106.4    0.0  106.4   0.00   1.84  145.2   65.9   40.5    1.8   1.84   0.91    0.00    5.63
 1992 307   116   113  107.5    0.0  107.5   0.00   1.77  146.4   65.0   42.5    1.8   1.77   0.90    0.00    5.83
 1992 308   117   114  108.6    0.0  108.6   0.00   1.74  147.8   64.9   43.7    1.7   1.74   0.88    0.00    6.03
 1992 309   118   115  109.5    0.0  109.5   0.00   1.75  149.0   65.1   44.4    1.7   1.75   0.86    0.00    6.23
 1992 310   119   116  110.5    0.0  110.5   0.00   1.74  150.3   65.3   45.2    1.7   1.74   0.84    0.00    6.43
 1992 311   120   117  111.4    0.0  111.4   0.00   1.72  151.4   65.1   46.2    1.7   1.72   0.82    0.00    6.63
 1992 312   121   118  112.1    0.0  112.1   0.00   1.69  152.4   64.8   47.3    1.7   1.69   0.80    0.00    6.83
 1992 313   122   119  112.8    0.0  112.8   0.00   1.65  153.3   64.2   48.6    1.7   1.65   0.78    0.00    7.04
 1992 314   123   120  113.5    0.0  113.5   0.00   1.60  154.2   63.3   50.2    1.6   1.60   0.77    0.00    7.24
 1992 315   124   121  114.2    0.0  114.2   0.00   1.58  155.1   63.0   51.2    1.6   1.58   0.78    0.00    7.45
 1992 316   125   122  114.8    0.0  114.8   0.00   1.54  156.0   62.2   52.6    1.5   1.54   0.77    0.00    7.66
 1992 317   126   123  128.0    0.0  128.0   0.00   1.66  173.0   68.2   59.8    1.7   1.66   0.83    0.00    7.86
 1992 318   127   124  131.9    0.0  131.9   0.00   1.65  178.0   69.0   62.9    1.7   1.65   0.83    0.00    8.09
 1992 319   128   125  134.6    0.0  134.6   0.00   1.61  181.5   69.0   65.7    1.6   1.61   0.84    0.00    8.32
 1992 320   129   126  135.9    0.0  135.9   0.00   1.77  183.0   74.7   61.2    1.8   1.77   0.84    0.00    8.56
 1992 321   130   127  136.6    0.0  136.6   0.00   1.77  184.1   74.2   62.3    1.8   1.77   0.82    0.00    8.80
 1992 322   131   128  137.2    0.0  137.2   0.00   1.78  185.1   73.7   63.5    1.8   1.78   0.81    0.00    9.04
 1992 323   132   129  137.7    0.0  137.7   0.00   1.79  185.8   73.1   64.6    1.8   1.79   0.79    0.00    9.28
 1992 324   133   130  138.1    0.0  138.1   0.00   1.79  186.6   72.2   66.0    1.8   1.79   0.78    0.00    9.52
 1992 325   134   131  138.6    0.0  138.6   0.00   1.79  187.5   71.2   67.4    1.8   1.79   0.79    0.00    9.77
 1992 326   135   132  144.1    0.0  144.1   0.00   1.86  197.0   73.0   71.1    1.9   1.86   0.86    0.00   10.01
 1992 327   136   133  145.9    0.0  145.9   0.00   1.89  200.8   72.9   73.0    1.9   1.89   0.88    0.00   10.28
 1992 328   137   134  146.6    0.0  146.6   0.00   1.90  202.4   72.3   74.3    1.9   1.90   0.88    0.00   10.55
 1992 329   138   135  147.1    0.0  147.1   0.00   1.90  203.6   71.2   75.9    1.9   1.90   0.88    0.00   10.83
 1992 330   139   136  147.4    0.0  147.4   0.00   1.90  204.4   69.9   77.5    1.9   1.90   0.88    0.00   11.11
 1992 331   140   137  147.6    0.0  147.6   0.00   1.90  205.3   68.5   79.1    1.9   1.90   0.89    0.00   11.40
 1992 332   141   138  147.7    0.0  147.7   0.00   1.89  206.1   66.9   80.8    1.9   1.89   0.89    0.00   11.69
 1992 333   142   139  147.6    0.0  147.6   0.00   1.89  207.0   65.4   82.2    1.9   1.89   0.90    0.00   11.98
 1992 334   143   140  147.7    4.6  143.1   1.70   1.84  207.9   63.6   79.5    1.8   1.84   0.92    0.00   12.28
 1992 335   144   141  148.0    9.3  138.7   1.70   1.78  208.7   61.4   77.3    1.8   1.78   0.92    0.00   12.58
 1992 336   145   142  148.3   12.2  136.2   1.70   1.75  209.6   60.3   75.8    1.7   1.75   0.92    0.00   12.88
 1992 337   146   143  148.6   15.3  133.3   1.70   1.71  210.4   59.0   74.2    1.7   1.71   0.92    0.00   13.19
 1992 338   147   144  149.0   19.8  129.2   1.70   1.66  211.1   57.2   72.0    1.7   1.66   0.92    0.00   13.50
 1992 339   148   145  149.4   24.5  124.9   1.70   1.60  211.9   55.3   69.6    1.6   1.60   0.92    0.00   13.81
 1992 340   149   146  149.8   29.0  120.8   1.70   1.55  212.7   53.6   67.1    1.6   1.55   0.93    0.00   14.12
 1992 341   150   147  150.3   33.5  116.8   1.69   1.50  213.6   51.7   65.0    1.5   1.50   0.93    0.00   14.43
 1992 342   151   148  150.8   38.0  112.8   1.68   1.45  214.4   50.0   62.8    1.4   1.45   0.93    0.00   14.75
 1992 343   152   149  151.4   42.3  109.1   1.67   1.40  215.4   48.3   60.8    1.4   1.40   0.93    0.00   15.07
 1992 344   153   150  152.0   46.6  105.4   1.66   1.36  216.3   46.9   58.4    1.4   1.36   0.94    0.00   15.38
 1992 345   154   151  152.6   50.8  101.7   1.65   1.30  217.2   45.1   56.7    1.3   1.30   0.95    0.00   15.70
 1992 346   155   152  153.1   55.0   98.2   1.63   1.26  218.0   43.5   54.7    1.3   1.26   0.95    0.00   16.03
 1992 347   156   153  153.7   59.0   94.7   1.62   1.21  218.8   42.0   52.7    1.2   1.21   0.94    0.00   16.35
 1992 348   157   154  154.2   63.0   91.3   1.61   1.17  219.6   40.4   50.8    1.2   1.17   0.94    0.00   16.67
 1992 349   158   155  154.8   66.8   88.0   1.60   1.13  220.4   39.0   49.0    1.1   1.13   0.94    0.00   17.00
 1992 350   159   156  155.2   70.6   84.6   1.58   1.08  220.9   37.5   47.1    1.1   1.08   0.94    0.00   17.32
 1992 351   160   157  155.9   74.3   81.6   1.57   1.05  221.9   36.2   45.5    1.0   1.05   0.95    0.00   17.65
 1992 352   161   158  156.4   77.9   78.6   1.55   1.01  222.6   34.8   43.8    1.0   1.01   0.95    0.00   17.97
 1992 353   162   159  157.1   81.3   75.7   1.54   0.97  223.5   33.6   42.2    1.0   0.97   0.95    0.00   18.30
 1992 354   163   160  157.7   84.7   73.0   1.52   0.94  224.3   32.3   40.6    0.9   0.94   0.95    0.00   18.63
 1992 355   164   161  158.1   88.2   70.0   1.51   0.90  224.9   31.0   39.0    0.9   0.90   0.95    0.00   18.96
 1992 356   165   162  158.9   91.4   67.4   1.49   0.86  225.8   29.9   37.6    0.9   0.86   0.95    0.00   19.29
 1992 357   166   163  159.4   94.5   64.9   1.48   0.85  226.6   29.3   35.6    0.8   0.85   0.96    0.00   19.62
 1992 358   167   164  160.0   97.5   62.5   1.46   0.83  227.3   28.5   33.9    0.8   0.83   0.97    0.00   19.96
 1992 359   168   165  160.7  100.5   60.2   1.45   0.79  228.2   27.3   32.9    0.8   0.79   0.97    0.00   20.29
 1992 360   169   166  161.2  103.5   57.8   1.43   0.75  228.9   25.9   31.9    0.7   0.75   0.97    0.00   20.62
 1992 361   170   167  162.0  106.2   55.7   1.42   0.72  229.8   24.7   31.0    0.7   0.72   0.97    0.00   20.96
 1992 362   171   168  162.6  108.9   53.7   1.40   0.69  230.6   23.8   29.9    0.7   0.69   0.97    0.00   21.29
 1992 363   172   169  163.3  111.4   51.9   1.38   0.67  231.4   23.0   28.9    0.7   0.67   0.98    0.00   21.63
 1992 364   173   170  163.9  113.8   50.2   1.37   0.66  232.2   22.7   27.4    0.7   0.66   0.98    0.00   21.96
 1992 365   174   171  164.6  116.0   48.6   1.35   0.65  233.0   22.5   26.0    0.7   0.65   0.99    0.00   22.30
 1992 366   175   172  165.1  117.9   47.2   1.34   0.65  233.6   22.3   24.9    0.6   0.65   1.00    0.00   22.64
 1993 001   176   173  165.6  120.2   45.4   1.32   0.64  234.2   22.0   23.4    0.6   0.64   1.00    0.00   22.97
 1993 002   177   174  166.0  122.4   43.5   1.31   0.63  234.7   21.7   21.9    0.6   0.63   1.01    0.00   23.31
 1993 003   178   175  166.0  122.4   43.5   1.31   0.63  235.1   21.7   21.9    0.6   0.63   1.01    0.00   23.31
 1993 004   179   176  166.0  122.4   43.5   1.31   0.63  235.5   21.7   21.9    0.6   0.63   1.01    0.00   23.31
 1993 005   180   177  166.0  122.4   43.5   1.31   0.63  236.0   21.7   21.9    0.6   0.63   1.01    0.00   23.31
