*GROWTH ASPECTS OUTPUT FILE

*DSSAT Cropping System Model Ver. 4.0.2.000               Aug 03, 2016; 12:23:42

*RUN   1        : UYMZ                    
 MODEL          : MZCER040 - Maize           
 EXPERIMENT     : UYMZ0108 MZ    late to create DSS                             
 TREATMENT  1   : UYMZ                    

@YEAR DOY   DAS   DAP   L#SD   GSTD   LAID   LWAD   SWAD   GWAD   RWAD   CWAD   G#AD   GWGD   HIAD   PWAD   P#AD   WSPD   WSGD   NSTD   EWSD   LN%D   SH%D   HIPD   PWDD   PWTD     SLAD   CHTD   CWID   RDPD   RL1D   RL2D   RL3D   RL4D   RL5D   RL6D   RL7D   RL8D   RL9D   RL10   CDAD   LDAD   SDAD   SNW0C   SNW1C
 1990 194     3     0    0.0      0   0.00      0      0      0      0      0      0    0.0  0.000      0      0  0.000  0.000  0.000  0.000   0.00   0.00   0.00      0      0      0.0   0.00   0.00   0.03   0.00   0.00   0.00   0.00   0.00   0.00   0.00   0.00   0.00   0.00      0      0      0       0       0
 1990 195     4     1    0.0      0   0.00      0      0      0      0      0      0    0.0  0.000      0      0  0.000  0.000  0.000  0.000   0.00   0.00   0.00      0      0      0.0   0.00   0.00   0.04   0.00   0.00   0.00   0.00   0.00   0.00   0.00   0.00   0.00   0.00      0      0      0       0       0
 1990 196     5     2    0.0      0   0.00      0      0      0      0      0      0    0.0  0.000      0      0  0.000  0.000  0.000  0.000   0.00   0.00   0.00      0      0      0.0   0.00   0.00   0.05   0.00   0.00   0.00   0.00   0.00   0.00   0.00   0.00   0.00   0.00      0      0      0       0       0
 1990 197     6     3    0.0      0   0.00      0      0      0      0      0      0    0.0  0.000      0      0  0.000  0.000  0.000  0.000   0.00   0.00   0.00      0      0      0.0   0.00   0.00   0.05   0.00   0.00   0.00   0.00   0.00   0.00   0.00   0.00   0.00   0.00      0      0      0       0       0
 1990 198     7     4    0.0      0   0.00      0      0      0      0      0      0    0.0  0.000      0      0  0.000  0.000  0.000  0.000   0.00   0.00   0.00      0      0      0.0   0.00   0.00   0.06   0.00   0.00   0.00   0.00   0.00   0.00   0.00   0.00   0.00   0.00      0      0      0       0       0
 1990 199     8     5    0.0      0   0.00      0      0      0      0      0      0    0.0  0.000      0      0  0.000  0.000  0.000  0.000   0.00   0.00   0.00      0      0      0.0   0.00   0.00   0.06   0.00   0.00   0.00   0.00   0.00   0.00   0.00   0.00   0.00   0.00      0      0      0       0       0
 1990 200     9     6    0.0      0   0.00      0      0      0      0      0      0    0.0  0.000      0      0  0.000  0.000  0.000  0.000   0.00   0.00   0.00      0      0      0.0   0.00   0.00   0.06   0.00   0.00   0.00   0.00   0.00   0.00   0.00   0.00   0.00   0.00      0      0      0       0       0
 1990 201    10     7    0.0      0   0.00      0      0      0      0      0      0    0.0  0.000      0      0  0.000  0.000  0.000  0.000   0.00   0.00   0.00      0      0      0.0   0.00   0.00   0.06   0.00   0.00   0.00   0.00   0.00   0.00   0.00   0.00   0.00   0.00      0      0      0       0       0
 1990 202    11     8    0.0      0   0.00      0      0      0      0      0      0    0.0  0.000      0      0  0.000  0.000  0.000  0.000   0.00   0.00   0.00      0      0      0.0   0.00   0.00   0.06   0.00   0.00   0.00   0.00   0.00   0.00   0.00   0.00   0.00   0.00      0      0      0       0       0
 1990 203    12     9    0.0      0   0.00      0      0      0      0      0      0    0.0  0.000      0      0  0.000  0.000  0.000  0.000   0.00   0.00   0.00      0      0      0.0   0.00   0.00   0.06   0.00   0.00   0.00   0.00   0.00   0.00   0.00   0.00   0.00   0.00      0      0      0       0       0
 1990 204    13    10    0.0      0   0.00      0      0      0      0      0      0    0.0  0.000      0      0  0.000  0.000  0.000  0.000   0.00   0.00   0.00      0      0      0.0   0.00   0.00   0.06   0.00   0.00   0.00   0.00   0.00   0.00   0.00   0.00   0.00   0.00      0      0      0       0       0
 1990 205    14    11    0.0      0   0.00      0      0      0      0      0      0    0.0  0.000      0      0  0.000  0.000  0.000  0.000   0.00   0.00   0.00      0      0      0.0   0.00   0.00   0.06   0.00   0.00   0.00   0.00   0.00   0.00   0.00   0.00   0.00   0.00      0      0      0       0       0
 1990 206    15    12    0.0      0   0.00      0      0      0      0      0      0    0.0  0.000      0      0  0.000  0.000  0.000  0.000   0.00   0.00   0.00      0      0      0.0   0.00   0.00   0.06   0.00   0.00   0.00   0.00   0.00   0.00   0.00   0.00   0.00   0.00      0      0      0       0       0
 1990 207    16    13    0.0      0   0.00      0      0      0      0      0      0    0.0  0.000      0      0  0.000  0.000  0.000  0.000   0.00   0.00   0.00      0      0      0.0   0.00   0.00   0.07   0.00   0.00   0.00   0.00   0.00   0.00   0.00   0.00   0.00   0.00      0      0      0       0       0
 1990 208    17    14    0.0      0   0.00      0      0      0      0      0      0    0.0  0.000      0      0  0.000  0.000  0.000  0.000   0.00   0.00   0.00      0      0      0.0   0.00   0.00   0.07   0.00   0.00   0.00   0.00   0.00   0.00   0.00   0.00   0.00   0.00      0      0      0       0       0
 1990 209    18    15    0.0      0   0.00      0      0      0      0      0      0    0.0  0.000      0      0  0.000  0.000  0.000  0.000   0.00   0.00   0.00      0      0      0.0   0.00   0.00   0.07   0.00   0.00   0.00   0.00   0.00   0.00   0.00   0.00   0.00   0.00      0      0      0       0       0
 1990 210    19    16    0.0      0   0.00      0      0      0      0      0      0    0.0  0.000      0      0  0.000  0.000  0.000  0.000   0.00   0.00   0.00      0      0      0.0   0.00   0.00   0.07   0.00   0.00   0.00   0.00   0.00   0.00   0.00   0.00   0.00   0.00      0      0      0       0       0
 1990 211    20    17    0.0      0   0.00      0      0      0      0      0      0    0.0  0.000      0      0  0.000  0.000  0.000  0.000   0.00   0.00   0.00      0      0      0.0   0.00   0.00   0.08   0.00   0.00   0.00   0.00   0.00   0.00   0.00   0.00   0.00   0.00      0      0      0       0       0
 1990 212    21    18    0.0      0   0.00      0      0      0      0      0      0    0.0  0.000      0      0  0.000  0.000  0.000  0.000   0.00   0.00   0.00      0      0      0.0   0.00   0.00   0.08   0.00   0.00   0.00   0.00   0.00   0.00   0.00   0.00   0.00   0.00      0      0      0       0       0
 1990 213    22    19    0.0      0   0.00      0      0      0      0      0      0    0.0  0.000      0      0  0.000  0.000  0.000  0.000   0.00   0.00   0.00      0      0      0.0   0.00   0.00   0.09   0.00   0.00   0.00   0.00   0.00   0.00   0.00   0.00   0.00   0.00      0      0      0       0       0
 1990 214    23    20    0.0      0   0.00      0      0      0      0      0      0    0.0  0.000      0      0  0.000  0.000  0.000  0.000   0.00   0.00   0.00      0      0      0.0   0.00   0.00   0.09   0.00   0.00   0.00   0.00   0.00   0.00   0.00   0.00   0.00   0.00      0      0      0       0       0
 1990 215    24    21    0.0      0   0.00      0      0      0      0      0      0    0.0  0.000      0      0  0.000  0.000  0.000  0.000   0.00   0.00   0.00      0      0      0.0   0.00   0.00   0.10   0.00   0.00   0.00   0.00   0.00   0.00   0.00   0.00   0.00   0.00      0      0      0       0       0
 1990 216    25    22    0.0      0   0.00      0      0      0      0      0      0    0.0  0.000      0      0  0.000  0.000  0.000  0.000   0.00   0.00   0.00      0      0      0.0   0.00   0.00   0.12   0.00   0.00   0.00   0.00   0.00   0.00   0.00   0.00   0.00   0.00      0      0      0       0       0
 1990 217    26    23    1.0      1   0.00     14     14      0     14     28      0    0.0  0.000      0      0  0.000  0.000  0.012  0.000   4.40   0.00   0.00      0      0     22.5   0.00   0.00   0.13   0.28   0.09   0.00   0.00   0.00   0.00   0.00   0.00   0.00   0.00      0      0      0       0       0
 1990 218    27    24    2.0      1   0.01     14     14      0     14     28      0    0.0  0.000      0      0  0.000  0.000  0.015  0.000   4.52   0.00   0.00      0      0     46.2   0.00   0.00   0.14   0.28   0.10   0.00   0.00   0.00   0.00   0.00   0.00   0.00   0.00      0      0      0       0       0
 1990 219    28    25    2.0      1   0.01     14     14      0     15     28      0    0.0  0.000      0      0  0.000  0.000  0.000  0.000   4.48   0.00   0.00      0      0     74.4   0.00   0.00   0.16   0.29   0.11   0.00   0.00   0.00   0.00   0.00   0.00   0.00   0.00      0      0      0       0       0
 1990 220    29    26    3.0      1   0.01     14     14      0     16     28      0    0.0  0.000      0      0  0.000  0.000  0.000  0.000   4.45   0.00   0.00      0      0    102.3   0.00   0.00   0.17   0.29   0.13   0.00   0.00   0.00   0.00   0.00   0.00   0.00   0.00      0      0      0       0       0
 1990 221    30    27    3.0      1   0.02     14     14      0     18     28      0    0.0  0.000      0      0  0.000  0.000  0.000  0.000   4.42   0.00   0.00      0      0    127.0   0.00   0.00   0.18   0.28   0.14   0.01   0.00   0.00   0.00   0.00   0.00   0.00   0.00      0      0      0       0       0
 1990 222    31    28    4.0      1   0.03     14     14      0     20     28      0    0.0  0.000      0      0  0.000  0.000  0.000  0.030   4.39   0.00   0.00      0      0    220.3   0.00   0.00   0.19   0.27   0.16   0.01   0.00   0.00   0.00   0.00   0.00   0.00   0.00      0      0      0       0       0
 1990 223    32    29    4.0      1   0.05     14     14      0     24     28      0    0.0  0.000      0      0  0.000  0.000  0.000  0.013   4.36   0.00   0.00      0      0    337.1   0.00   0.00   0.21   0.28   0.20   0.03   0.00   0.00   0.00   0.00   0.00   0.00   0.00      0      0      0       0       0
 1990 224    33    30    4.0      1   0.07     21     14      0     27     35      0    0.0  0.000      0      0  0.000  0.000  0.000  0.007   3.47   0.00   0.00      0      0    316.6   0.00   0.00   0.22   0.29   0.22   0.05   0.00   0.00   0.00   0.00   0.00   0.00   0.00      0      0      0       0       1
 1990 225    34    31    5.0      1   0.09     31     14      0     32     45      0    0.0  0.000      0      0  0.000  0.000  0.000  0.000   3.34   0.00   0.00      0      0    292.7   0.00   0.00   0.24   0.31   0.26   0.07   0.00   0.00   0.00   0.00   0.00   0.00   0.00      0      0      0       0       1
 1990 226    35    32    5.0      1   0.11     40     14      0     34     54      0    0.0  0.000      0      0  0.000  0.000  0.000  0.000   3.50   0.00   0.00      0      0    276.8   0.00   0.00   0.25   0.32   0.28   0.09   0.00   0.00   0.00   0.00   0.00   0.00   0.00      0      0      0       0       1
 1990 227    36    33    5.0      1   0.13     47     14      0     44     61      0    0.0  0.000      0      0  0.000  0.000  0.000  0.000   3.80   0.00   0.00      0      0    268.7   0.00   0.00   0.26   0.37   0.36   0.15   0.00   0.00   0.00   0.00   0.00   0.00   0.00      0      0      0       0       1
 1990 228    37    34    5.0      1   0.14     53     14      0     59     67      0    0.0  0.000      0      0  0.000  0.000  0.000  0.000   3.85   0.00   0.00      0      0    262.3   0.00   0.00   0.26   0.44   0.47   0.25   0.00   0.00   0.00   0.00   0.00   0.00   0.00      0      0      0       0       1
 1990 229    38    35    6.0      1   0.16     63     14      0     74     77      0    0.0  0.000      0      0  0.000  0.000  0.000  0.000   3.66   0.00   0.00      0      0    253.2   0.00   0.00   0.27   0.50   0.58   0.35   0.00   0.00   0.00   0.00   0.00   0.00   0.00      0      0      0       0       2
 1990 230    39    36    6.0      1   0.18     71     14      0     89     85      0    0.0  0.000      0      0  0.000  0.000  0.000  0.000   3.74   0.00   0.00      0      0    246.4   0.00   0.00   0.28   0.57   0.68   0.45   0.00   0.00   0.00   0.00   0.00   0.00   0.00      0      0      0       0       2
 1990 231    40    37    6.0      1   0.20     81     14      0     94     95      0    0.0  0.000      0      0  0.000  0.000  0.000  0.000   3.73   0.00   0.00      0      0    239.9   0.00   0.00   0.29   0.60   0.71   0.49   0.00   0.00   0.00   0.00   0.00   0.00   0.00      0      0      0       0       2
 1990 232    41    38    6.0      1   0.22     92     14      0    117    106      0    0.0  0.000      0      0  0.000  0.000  0.000  0.000   3.72   0.00   0.00      0      0    233.9   0.00   0.00   0.30   0.70   0.86   0.65   0.00   0.00   0.00   0.00   0.00   0.00   0.00      0      0      0       0       3
 1990 233    42    39    7.0      1   0.24    106     14      0    140    120      0    0.0  0.000      0      0  0.000  0.000  0.000  0.000   3.64   0.00   0.00      0      0    227.2   0.00   0.00   0.31   0.80   1.00   0.83   0.00   0.00   0.00   0.00   0.00   0.00   0.00      0      0      0       0       3
 1990 234    43    40    7.0      1   0.26    119     14      0    167    133      0    0.0  0.000      0      0  0.000  0.000  0.000  0.000   3.70   0.00   0.00      0      0    221.9   0.00   0.00   0.31   0.92   1.16   1.02   0.00   0.00   0.00   0.00   0.00   0.00   0.00      0      0      0       0       4
 1990 235    44    41    7.0      1   0.28    129     14      0    194    143      0    0.0  0.000      0      0  0.000  0.000  0.000  0.000   3.79   0.00   0.00      0      0    218.1   0.00   0.00   0.32   1.05   1.33   1.21   0.01   0.00   0.00   0.00   0.00   0.00   0.00      0      0      0       0       5
 1990 236    45    42    7.0      1   0.30    142     14      0    212    156      0    0.0  0.000      0      0  0.000  0.000  0.000  0.000   3.72   0.00   0.00      0      0    213.8   0.00   0.00   0.32   1.13   1.44   1.35   0.02   0.00   0.00   0.00   0.00   0.00   0.00      0      0      0       0       6
 1990 237    46    43    7.0      1   0.34    162     14      0    241    176      0    0.0  0.000      0      0  0.000  0.000  0.000  0.000   3.58   0.00   0.00      0      0    208.0   0.00   0.00   0.33   1.27   1.61   1.55   0.03   0.00   0.00   0.00   0.00   0.00   0.00      0      0      0       0       7
 1990 238    47    44    8.0      1   0.38    187     14      0    262    201      0    0.0  0.000      0      0  0.000  0.000  0.000  0.000   3.53   0.00   0.00      0      0    202.1   0.00   0.00   0.34   1.36   1.73   1.69   0.05   0.00   0.00   0.00   0.00   0.00   0.00      0      0      0       0       8
 1990 239    48    45    8.0      1   0.39    196     14      0    279    210      0    0.0  0.000      0      0  0.000  0.000  0.000  0.000   3.83   0.00   0.00      0      0    197.8   0.00   0.00   0.35   1.44   1.83   1.81   0.06   0.00   0.00   0.00   0.00   0.00   0.00      0      0      0       0       9
 1990 240    49    46    8.0      1   0.33    198     14      0    295    212      0    0.0  0.000      0      0  0.000  0.000  0.000  0.000   3.96   0.00   0.00      0      0    167.4   0.00   0.00   0.35   1.51   1.92   1.91   0.08   0.00   0.00   0.00   0.00   0.00   0.00      0      0      0       0      11
 1990 241    50    47    8.0      1   0.25    204     14      0    318    218      0    0.0  0.000      0      0  0.000  0.000  0.000  0.000   3.90   0.00   0.00      0      0    120.3   0.00   0.00   0.35   1.62   2.05   2.07   0.10   0.00   0.00   0.00   0.00   0.00   0.00      0      0      0       0      12
 1990 242    51    48    8.0      1   0.27    220     14      0    343    234      0    0.0  0.000      0      0  0.000  0.000  0.000  0.000   3.70   0.00   0.00      0      0    122.8   0.00   0.00   0.36   1.73   2.19   2.23   0.13   0.00   0.00   0.00   0.00   0.00   0.00      0      0      0       0      14
 1990 243    52    49    8.0      1   0.27    223     14      0    345    237      0    0.0  0.000      0      0  0.000  0.000  0.000  0.000   3.93   0.00   0.00      0      0    122.1   0.00   0.00   0.36   1.73   2.20   2.24   0.13   0.00   0.00   0.00   0.00   0.00   0.00      0      0      0       0      16
 1990 244    53    50    8.0      1   0.21    226     14      0    353    240      0    0.0  0.000      0      0  0.000  0.000  0.000  0.000   3.94   0.00   0.00      0      0     94.2   0.00   0.00   0.36   1.77   2.25   2.30   0.14   0.00   0.00   0.00   0.00   0.00   0.00      0      0      0       0      17
 1990 245    54    51    8.0      1   0.11    229     14      0    361    243      0    0.0  0.000      0      0  0.000  0.000  0.000  0.000   3.92   0.00   0.00      0      0     45.9   0.00   0.00   0.36   1.80   2.29   2.35   0.15   0.00   0.00   0.00   0.00   0.00   0.00      0      0      0       0      19
 1990 246    55    52    8.0      1   0.10    239     14      0    368    253      0    0.0  0.000      0      0  0.000  0.000  0.000  0.000   3.77   0.00   0.00      0      0     42.8   0.00   0.00   0.37   1.83   2.33   2.40   0.16   0.00   0.00   0.00   0.00   0.00   0.00      0      0      0       0      19
 1990 247    56    53    8.0      1   0.13    260     14      0    368    274      0    0.0  0.000      0      0  0.000  0.000  0.004  0.000   3.65   0.00   0.00      0      0     51.9   0.00   0.00   0.38   1.83   2.33   2.40   0.16   0.00   0.00   0.00   0.00   0.00   0.00      0      0      0       0      21
 1990 248    57    54    9.0      1   0.19    270     14      0    368    284      0    0.0  0.000      0      0  0.000  0.000  0.000  0.000   3.79   0.00   0.00      0      0     69.0   0.00   0.00   0.39   1.83   2.33   2.40   0.16   0.00   0.00   0.00   0.00   0.00   0.00      0      0      0       0      23
 1990 249    58    55    9.0      1   0.20    280     14      0    368    294      0    0.0  0.000      0      0  0.000  0.000  0.000  0.000   3.78   0.00   0.00      0      0     72.5   0.00   0.00   0.40   1.72   2.19   2.27   0.16   0.00   0.00   0.00   0.00   0.00   0.00      0      0      0       0      25
 1990 250    59    56    9.0      1   0.22    292     14      0    369    306      0    0.0  0.000      0      0  0.000  0.000  0.000  0.000   3.75   0.00   0.00      0      0     76.0   0.00   0.00   0.41   1.61   2.07   2.14   0.15   0.00   0.00   0.00   0.00   0.00   0.00      0      0      0       0      26
 1990 251    60    57    9.0      2   0.25    311     14      0    378    325      0    0.0  0.000      0      0  0.000  0.000  0.000  0.362   3.66   0.00   0.00      0      0     81.2   0.00   0.00   0.42   1.55   2.03   2.14   0.17   0.00   0.00   0.00   0.00   0.00   0.00      0      0      0       0      28
 1990 252    61    58    9.0      2   0.30    340     14      0    399    354      0    0.0  0.000      0      0  0.000  0.000  0.002  0.138   3.57   0.00   0.00      0      0     87.9   0.00   0.00   0.43   1.52   2.07   2.27   0.23   0.00   0.00   0.00   0.00   0.00   0.00      0      0      0       0      30
 1990 253    62    59   10.0      2   0.39    396     14      0    412    410      0    0.0  0.000      0      0  0.000  0.000  0.000  0.039   3.30   0.00   0.00      0      0     97.3   0.00   0.00   0.45   1.51   2.10   2.35   0.28   0.00   0.00   0.00   0.00   0.00   0.00      0      0      0       0      32
 1990 254    63    60   10.0      2   0.45    437     14      0    420    451      0    0.0  0.000      0      0  0.000  0.000  0.000  0.000   3.78   0.00   0.00      0      0    102.3   0.00   0.00   0.46   1.50   2.13   2.42   0.31   0.00   0.00   0.00   0.00   0.00   0.00      0      0      0       0      34
 1990 255    64    61   10.0      3   0.47    457     14      0    456    471      0    0.0  0.000      0      0  0.000  0.000  0.022  0.000   3.71   0.00   0.00      0      0    102.6   0.00   0.00   0.47   1.50   2.23   2.65   0.43   0.01   0.00   0.00   0.00   0.00   0.00      0      0      0       0      36
 1990 256    65    62   10.0      3   0.38    465     14      0    479    479      0    0.0  0.000      0      0  0.000  0.000  0.022  0.000   3.65   0.00   0.00      0      0     82.5   0.00   0.00   0.47   1.50   2.29   2.80   0.50   0.02   0.00   0.00   0.00   0.00   0.00      0      0      0       0      39
 1990 257    66    63   10.0      3   0.29    476     14      0    505    490      0    0.0  0.000      0      0  0.000  0.000  0.022  0.000   3.65   0.00   0.00      0      0     60.4   0.00   0.00   0.47   1.51   2.36   2.96   0.58   0.03   0.00   0.00   0.00   0.00   0.00      0      0      0       0      41
 1990 258    67    64   10.0      3   0.32    504     14      0    536    518      0    0.0  0.000      0      0  0.000  0.000  0.022  0.000   3.57   0.00   0.00      0      0     63.3   0.00   0.00   0.48   1.53   2.44   3.16   0.68   0.05   0.00   0.00   0.00   0.00   0.00      0      0      0       0      44
 1990 259    68    65   11.0      3   0.38    547     14      0    564    561      0    0.0  0.000      0      0  0.000  0.000  0.022  0.000   3.55   0.00   0.00      0      0     69.4   0.00   0.00   0.49   1.55   2.52   3.33   0.77   0.07   0.00   0.00   0.00   0.00   0.00      0      0      0       0      46
 1990 260    69    66   11.0      3   0.44    591     15      0    574    606      0    0.0  0.000      0      0  0.000  0.000  0.022  0.001   3.52   0.00   0.00      0      0     74.5   0.00   0.00   0.50   1.55   2.53   3.38   0.80   0.08   0.00   0.00   0.00   0.00   0.00      0      0      0       0      49
 1990 261    70    67   11.0      3   0.50    635     16      0    578    651      0    0.0  0.000      0      0  0.000  0.000  0.022  0.001   3.49   0.00   0.00      0      0     78.7   0.00   0.00   0.51   1.53   2.52   3.39   0.81   0.09   0.00   0.00   0.00   0.00   0.00      0      0      0       0      52
 1990 262    71    68   11.0      3   0.56    678     17      0    608    695      0    0.0  0.000      0      0  0.000  0.000  0.022  0.001   3.47   0.00   0.00      0      0     82.2   0.00   0.00   0.52   1.52   2.59   3.57   0.90   0.13   0.00   0.00   0.00   0.00   0.00      0      0      0       0      55
 1990 263    72    69   11.0      3   0.62    726     19      0    608    744      0    0.0  0.000      0      0  0.000  0.000  0.022  0.105   3.44   0.00   0.00      0      0     85.4   0.00   0.00   0.53   1.50   2.57   3.55   0.90   0.13   0.00   0.00   0.00   0.00   0.00      0      0      0       0      58
 1990 264    73    70   12.0      3   0.74    821     24      0    616    844      0    0.0  0.000      0      0  0.000  0.000  0.022  0.034   3.41   0.00   0.00      0      0     90.5   0.00   0.00   0.55   1.49   2.57   3.58   0.93   0.15   0.00   0.00   0.00   0.00   0.00      0      0      0       0      61
 1990 265    74    71   12.0      3   0.81    875     28      0    693    903      0    0.0  0.000      0      0  0.000  0.000  0.022  0.001   3.38   0.00   0.00      0      0     92.7   0.00   0.00   0.56   1.50   2.75   4.00   1.16   0.31   0.00   0.00   0.00   0.00   0.00      0      0      0       0      64
 1990 266    75    72   12.0      3   0.84    900     30      0    754    929      0    0.0  0.000      0      0  0.000  0.000  0.022  0.002   3.41   0.00   0.00      0      0     93.5   0.00   0.00   0.56   1.52   2.89   4.00   1.35   0.46   0.00   0.00   0.00   0.00   0.00      0      0      0       0      67
 1990 267    76    73   12.0      3   0.70    926     32      0    821    957      0    0.0  0.000      0      0  0.000  0.000  0.022  0.001   3.40   0.00   0.00      0      0     75.3   0.00   0.00   0.56   1.54   3.04   4.00   1.57   0.62   0.00   0.00   0.00   0.00   0.00      0      0      0       0      71
 1990 268    77    74   12.0      3   0.73    964     35      0    900    999      0    0.0  0.000      0      0  0.000  0.000  0.022  0.000   3.35   0.00   0.00      0      0     75.4   0.00   0.00   0.57   1.58   3.22   4.00   1.83   0.82   0.00   0.00   0.00   0.00   0.00      0      0      0       0      75
 1990 269    78    75   12.0      3   0.77   1017     41      0    978   1058      0    0.0  0.000      0      0  0.000  0.000  0.022  0.000   3.33   0.00   0.00      0      0     75.7   0.00   0.00   0.58   1.62   3.40   4.00   2.08   1.04   0.00   0.00   0.00   0.00   0.00      0      0      0       0      80
 1990 270    79    76   13.0      3   0.87   1100     52      0   1035   1152      0    0.0  0.000      0      0  0.000  0.000  0.022  0.000   3.30   0.00   0.00      0      0     79.2   0.00   0.00   0.59   1.65   3.52   4.00   2.26   1.21   0.00   0.00   0.00   0.00   0.00      0      0      0       0      85
 1990 271    80    77   13.0      3   0.97   1183     65      0   1035   1247      0    0.0  0.000      0      0  0.000  0.000  0.022  0.000   3.26   0.00   0.00      0      0     82.0   0.00   0.00   0.60   1.64   3.51   4.00   2.27   1.23   0.00   0.00   0.00   0.00   0.00      0      0      0       0      90
 1990 272    81    78   13.0      3   1.06   1264     80      0   1115   1344      0    0.0  0.000      0      0  0.000  0.000  0.022  0.000   3.23   0.00   0.00      0      0     84.2   0.00   0.00   0.62   1.67   3.63   4.00   2.51   1.49   0.01   0.00   0.00   0.00   0.00      0      0      0       0      95
 1990 273    82    79   14.0      3   1.16   1349     99      0   1203   1447      0    0.0  0.000      0      0  0.000  0.000  0.022  0.000   3.21   0.00   0.00      0      0     86.2   0.00   0.00   0.63   1.67   3.74   4.00   2.80   1.79   0.03   0.00   0.00   0.00   0.00      0      0      0       0     101
 1990 274    83    80   14.0      3   1.30   1472    132      0   1274   1603      0    0.0  0.000      0      0  0.000  0.000  0.022  0.000   3.17   0.00   0.00      0      0     88.5   0.00   0.00   0.64   1.66   3.80   4.00   3.04   2.05   0.06   0.00   0.00   0.00   0.00      0      0      0       0     107
 1990 275    84    81   14.0      3   1.44   1594    171      0   1351   1765      0    0.0  0.000      0      0  0.000  0.000  0.022  0.001   3.13   0.00   0.00      0      0     90.3   0.00   0.00   0.66   1.65   3.84   4.00   3.32   2.36   0.12   0.00   0.00   0.00   0.00      0      0      0       0     113
 1990 276    85    82   15.0      3   1.57   1716    217      0   1433   1934      0    0.0  0.000      0      0  0.000  0.000  0.022  0.001   3.09   0.00   0.00      0      0     91.7   0.00   0.00   0.67   1.65   3.84   4.00   3.64   2.71   0.20   0.00   0.00   0.00   0.00      0      0      0       0     120
 1990 277    86    83   15.0      3   1.74   1867    285      0   1449   2153      0    0.0  0.000      0      0  0.000  0.000  0.022  0.002   3.04   0.00   0.00      0      0     93.1   0.00   0.00   0.69   1.63   3.80   3.99   3.69   2.78   0.23   0.00   0.00   0.00   0.00      0      0      0       0     127
 1990 278    87    84   15.0      3   1.81   1934    320      0   1447   2254      0    0.0  0.000      0      0  0.000  0.000  0.022  0.002   3.01   0.00   0.00      0      0     93.4   0.00   0.00   0.71   1.62   3.76   3.96   3.67   2.78   0.23   0.00   0.00   0.00   0.00      0      0      0       0     134
 1990 279    88    85   16.0      3   1.90   2021    369      0   1448   2389      0    0.0  0.000      0      0  0.000  0.000  0.022  0.139   2.97   0.00   0.00      0      0     93.9   0.00   0.00   0.72   1.54   3.57   3.76   3.51   2.67   0.23   0.00   0.00   0.00   0.00      0      0      0       0     141
 1990 280    89    86   16.0      3   1.94   2062    396      0   1479   2458      0    0.0  0.000      0      0  0.000  0.000  0.022  0.700   2.93   0.00   0.00      0      0     93.9   0.00   0.00   0.74   1.45   3.35   3.53   3.36   2.65   0.32   0.00   0.00   0.00   0.00      0      0      0       0     149
 1990 281    90    87   16.0      3   1.99   2112    431      0   1492   2543      0    0.0  0.000      0      0  0.000  0.000  0.022  0.403   2.91   0.00   0.00      0      0     94.0   0.00   0.00   0.75   1.39   3.21   3.38   3.25   2.61   0.36   0.00   0.00   0.00   0.00      0      0      0       0     156
 1990 282    91    88   16.0      3   2.06   2190    489      0   1627   2679      0    0.0  0.000      0      0  0.000  0.000  0.022  0.142   2.87   0.00   0.00      0      0     94.2   0.00   0.00   0.76   1.41   3.17   3.41   3.43   3.04   0.77   0.00   0.00   0.00   0.00      0      0      0       0     164
 1990 283    92    89   17.0      3   2.15   2281    564      0   1748   2845      0    0.0  0.000      0      0  0.000  0.000  0.022  0.016   2.81   0.00   0.00      0      0     94.5   0.00   0.00   0.77   1.46   3.18   3.42   3.56   3.42   1.20   0.00   0.00   0.00   0.00      0      0      0       0     172
 1990 284    93    90   17.0      3   2.28   2401    673      0   1752   3074      0    0.0  0.000      0      0  0.000  0.000  0.022  0.013   2.73   0.00   0.00      0      0     94.8   0.00   0.00   0.78   1.45   3.15   3.38   3.52   3.41   1.24   0.00   0.00   0.00   0.00      0      0      0       0     180
 1990 285    94    91   17.0      3   2.35   2476    745      0   1898   3221      0    0.0  0.000      0      0  0.000  0.000  0.022  0.007   2.66   0.00   0.00      0      0     94.8   0.00   0.00   0.79   1.57   3.25   3.48   3.55   3.76   1.87   0.00   0.00   0.00   0.00      0      0      0       0     189
 1990 286    95    92   17.0      3   2.41   2544    813      0   2029   3356      0    0.0  0.000      0      0  0.000  0.000  0.022  0.000   2.61   0.00   0.00      0      0     94.8   0.00   0.00   0.80   1.71   3.39   3.62   3.60   4.00   2.46   0.00   0.00   0.00   0.00      0      0      0       0     199
 1990 287    96    93   18.0      3   2.51   2644    921      0   2142   3565      0    0.0  0.000      0      0  0.000  0.000  0.023  0.000   2.50   0.00   0.00      0      0     94.9   0.00   0.00   0.81   1.86   3.53   3.76   3.65   4.00   2.98   0.00   0.00   0.00   0.00      0      0      0       0     209
 1990 288    97    94   18.0      3   2.59   2734   1025      0   2267   3759      0    0.0  0.000      0      0  0.000  0.000  0.025  0.000   2.41   0.00   0.00      0      0     94.9   0.00   0.00   0.82   2.07   3.73   3.96   3.72   4.00   3.55   0.00   0.00   0.00   0.00      0      0      0       0     220
 1990 289    98    95   18.0      3   2.75   2918   1131      0   2310   4050      0    0.0  0.000      0      0  0.000  0.000  0.030  0.000   2.26   0.00   0.00      0      0     94.4   0.00   0.00   0.83   2.16   3.82   4.00   3.75   4.00   3.74   0.00   0.00   0.00   0.00      0      0      0       0     231
 1990 290    99    96   18.0      3   2.87   3043   1248      0   2312   4291      0    0.0  0.000      0      0  0.000  0.000  0.034  0.000   2.17   0.00   0.00      0      0     94.2   0.00   0.00   0.84   2.18   3.83   4.00   3.74   3.99   3.76   0.00   0.00   0.00   0.00      0      0      0       0     242
 1990 291   100    97   19.0      3   2.99   3182   1428      0   2318   4610      0    0.0  0.000      0      0  0.000  0.000  0.041  0.000   2.04   0.00   0.00      0      0     94.0   0.00   0.00   0.85   2.22   3.86   4.00   3.74   3.99   3.79   0.00   0.00   0.00   0.00      0      0      0       0     254
 1990 292   101    98   19.0      3   3.09   3297   1608      0   2409   4905      0    0.0  0.000      0      0  0.000  0.000  0.046  0.000   1.94   0.00   0.00      0      0     93.6   0.00   0.00   0.87   2.55   4.00   4.00   3.87   4.00   3.96   0.00   0.00   0.00   0.00      0      0      0       0     266
 1990 293   102    99   19.0      3   3.16   3397   1785      0   2439   5182      0    0.0  0.000      0      0  0.000  0.000  0.056  0.000   1.85   0.00   0.00      0      0     93.1   0.00   0.00   0.88   2.70   4.00   4.00   3.92   4.00   3.99   0.00   0.00   0.00   0.00      0      0      0       0     278
 1990 294   103   100   20.0      3   3.22   3485   1960      0   2549   5445      0    0.0  0.000      0      0  0.000  0.000  0.064  0.000   1.78   0.00   0.00      0      0     92.5   0.00   0.00   0.90   3.14   4.00   4.00   4.00   4.00   4.00   0.00   0.00   0.00   0.00      0      0      0       0     290
 1990 295   104   101   20.0      3   3.27   3567   2137      0   2660   5704      0    0.0  0.000      0      0  0.000  0.000  0.071  0.000   1.71   0.00   0.00      0      0     91.8   0.00   0.00   0.91   3.59   4.00   4.00   4.00   4.00   4.00   0.00   0.00   0.00   0.00      0      0      0       0     303
 1990 296   105   102   20.0      3   3.32   3643   2315      0   2664   5958      0    0.0  0.000      0      0  0.000  0.000  0.078  0.000   1.65   0.00   0.00      0      0     91.0   0.00   0.00   0.92   3.62   4.00   4.00   4.00   4.00   3.99   0.05   0.00   0.00   0.00      0      0      0       0     316
 1990 297   106   103   21.0      3   3.35   3712   2486      0   2750   6198      0    0.0  0.000      0      0  0.000  0.000  0.084  0.000   1.60   0.00   0.00      0      0     90.2   0.00   0.00   0.94   3.84   4.00   4.00   4.00   4.00   4.00   0.47   0.00   0.00   0.00      0      0      0       0     329
 1990 298   107   104   21.0      3   3.35   3758   2604      0   2834   6361      0    0.0  0.000      0      0  0.000  0.000  0.090  0.000   1.58   0.00   0.00      0      0     89.2   0.00   0.00   0.94   4.00   4.00   4.00   4.00   4.00   4.00   0.92   0.00   0.00   0.00      0      0      0       0     343
 1990 299   108   105   21.0      3   3.38   3826   2791      0   2868   6617      0    0.0  0.000      0      0  0.000  0.000  0.093  0.000   1.54   0.00   0.00      0      0     88.3   0.00   0.00   0.96   4.00   4.00   4.00   4.00   4.00   4.00   1.15   0.00   0.00   0.00      0      0      0       0     357
 1990 300   109   106   22.0      3   3.41   3901   3010      0   2884   6911      0    0.0  0.000      0      0  0.000  0.000  0.092  0.000   1.50   0.00   0.00      0      0     87.4   0.00   0.00   0.97   4.00   4.00   4.00   4.00   4.00   4.00   1.31   0.00   0.00   0.00      0      0      0       0     371
 1990 301   110   107   22.0      3   3.40   3934   3106      0   2876   7040      0    0.0  0.000      0      0  0.000  0.000  0.096  0.000   1.49   0.00   0.00      0      0     86.4   0.00   0.00   0.99   3.99   3.99   3.99   3.98   3.98   3.98   1.34   0.00   0.00   0.00      0      0      0       0     386
 1990 302   111   108   22.0      3   3.40   3983   3248      0   2873   7232      0    0.0  0.000      0      0  0.000  0.000  0.102  0.000   1.46   0.00   0.00      0      0     85.5   0.00   0.00   1.00   3.99   3.99   3.99   3.97   3.97   3.97   1.39   0.00   0.00   0.00      0      0      0       0     400
 1990 303   112   109   22.0      3   3.42   4049   3438      0   2982   7488      0    0.0  0.000      0      0  0.000  0.000  0.101  0.102   1.42   0.00   0.00      0      0     84.5   0.00   0.00   1.02   4.00   4.00   4.00   4.00   4.00   4.00   2.05   0.00   0.00   0.00      0      0      0       0     415
 1990 304   113   110   22.0      3   3.41   4083   3536      0   2974   7618      0    0.0  0.000      0      0  0.000  0.000  0.104  0.279   1.41   0.00   0.00      0      0     83.5   0.00   0.00   1.03   3.99   3.99   3.99   3.99   3.98   3.98   2.08   0.00   0.00   0.00      0      0      0       0     429
 1990 305   114   111   22.0      3   3.42   4147   3720      0   3051   7867      0    0.0  0.000      0      0  0.000  0.000  0.108  0.139   1.38   0.00   0.00      0      0     82.6   0.00   0.00   1.04   4.00   4.00   4.00   4.00   4.00   4.00   2.52   0.00   0.00   0.00      0      0      0       0     444
 1990 306   115   112   22.0      4   3.38   4106   3172      0   3159   8080      0    0.0  0.000    803      0  0.000  0.000  0.107  0.045   1.50   0.00   0.10      0    803     82.3   0.00   0.00   1.06   4.00   4.00   4.00   4.00   4.00   4.00   3.10   0.00   0.00   0.00      0      0      0       0     460
 1990 307   116   113   22.0      4   3.33   4061   3238      0   3154   8269      0    0.0  0.000    970      0  0.000  0.000  0.108  0.017   1.51   0.00   0.12      0    970     82.1   0.00   0.00   1.08   4.00   4.00   4.00   3.99   3.99   3.99   3.12   0.00   0.00   0.00      0      0      0       0     475
 1990 308   117   114   22.0      4   3.30   4014   3282      0   3280   8374      0    0.0  0.000   1078      0  0.000  0.000  0.081  0.079   1.53   0.00   0.13      0   1078     82.2   0.00   0.00   1.09   4.00   4.00   4.00   4.00   4.00   4.00   3.65   0.00   0.00   0.00      0      0      0       0     491
 1990 309   118   115   22.0      4   3.27   3966   3311      0   3475   8430      0    0.0  0.000   1152      0  0.000  0.000  0.078  0.048   1.54   0.00   0.14      0   1152     82.4   0.00   0.00   1.09   4.00   4.00   4.00   4.00   4.00   4.00   4.00   0.11   0.00   0.00      0      0      0       0     508
 1990 310   119   116   22.0      4   3.24   3917   3352      0   3496   8524      0    0.0  0.000   1255      0  0.000  0.000  0.074  0.080   1.55   0.00   0.15      0   1255     82.6   0.00   0.00   1.10   4.00   4.00   4.00   4.00   4.00   4.00   4.00   0.14   0.00   0.00      0      0      0       0     525
 1990 311   120   117   22.0      4   3.21   3864   3421      0   3610   8713      0    0.0  0.000   1427      0  0.000  0.000  0.068  0.013   1.56   0.00   0.16      0   1427     83.0   0.00   0.00   1.10   4.00   4.00   4.00   4.00   4.00   4.00   4.00   0.31   0.00   0.00      0      0      0       0     542
 1990 312   121   118   22.0      4   3.18   3810   3473      0   3634   8840      0    0.0  0.000   1557      0  0.000  0.000  0.063  0.002   1.58   0.00   0.18      0   1557     83.6   0.00   0.00   1.11   4.00   4.00   4.00   4.00   4.00   4.00   4.00   0.38   0.00   0.00      0      0      0       0     560
 1990 313   122   119   22.0      4   3.16   3753   3541      0   3704   9019      0    0.0  0.000   1725      0  0.000  0.000  0.059  0.000   1.59   0.00   0.19      0   1725     84.2   0.00   0.00   1.12   4.00   4.00   4.00   4.00   4.00   4.00   4.00   0.54   0.00   0.00      0      0      0       0     579
 1990 314   123   120   22.0      4   3.14   3693   3612      0   3813   9210      0    0.0  0.000   1904      0  0.000  0.000  0.054  0.000   1.59   0.00   0.21      0   1904     85.0   0.00   0.00   1.13   4.00   4.00   4.00   4.00   4.00   4.00   4.00   0.81   0.00   0.00      0      0      0       0     597
 1990 315   124   121   22.0      4   3.12   3630   3696      0   3879   9441      0    0.0  0.000   2114      0  0.000  0.000  0.050  0.000   1.60   0.00   0.22      0   2114     85.9   0.00   0.00   1.14   4.00   4.00   4.00   4.00   4.00   4.00   4.00   1.00   0.00   0.00      0      0      0       0     616
 1990 316   125   122   22.0      4   3.10   3565   3750      0   3868   9563      0    0.0  0.000   2248      0  0.000  0.000  0.046  0.000   1.61   0.00   0.24      0   2248     87.0   0.00   0.00   1.15   4.00   4.00   4.00   3.99   3.99   3.99   3.98   1.01   0.00   0.00      0      0      0       0     636
 1990 317   126   123   22.0      4   3.09   3496   3857      0   3865   9869      0    0.0  0.000   2516      0  0.000  0.000  0.041  0.000   1.76   0.00   0.25      0   2516     88.3   0.00   0.00   1.16   4.00   3.98   3.98   3.97   3.97   3.97   3.97   1.01   0.00   0.00      0      0      0       0     655
 1990 318   127   124   22.0      4   3.08   3422   3973      0   3867  10202      0    0.0  0.000   2807      0  0.000  0.000  0.025  0.000   1.79   0.00   0.28      0   2807     89.9   0.00   0.00   1.18   4.00   4.00   3.97   3.95   3.95   3.95   3.95   1.01   0.00   0.00      0      0      0       0     674
 1990 319   128   125   22.0      5   3.08   3422   3906    251   3847  10386   3344    7.5  0.024   3058      7  0.000  0.000  0.000  0.000   1.76   8.20   0.29      0   3058     89.9   0.00   0.00   1.18   4.00   4.00   3.97   3.95   3.95   3.95   3.95   1.01   0.00   0.00      0      0      0       0     694
 1990 320   129   126   22.0      5   3.07   3422   3973    484   3871  10687   3344   14.5  0.045   3291      7  0.000  0.000  0.011  0.016   1.71  14.71   0.31      0   3291     89.8   0.00   0.00   1.19   3.91   4.00   4.00   3.85   3.84   3.84   3.83   1.01   0.00   0.00      0      0      0       0     713
 1990 321   130   127   22.0      5   3.07   3422   3973    701   3944  10904   3344   21.0  0.064   3508      7  0.000  0.000  0.009  0.185   1.68  19.99   0.32      0   3508     89.7   0.00   0.00   1.19   3.96   4.00   4.00   3.85   3.84   3.83   3.82   1.05   0.00   0.00      0      0      0       0     732
 1990 322   131   128   22.0      5   3.06   3422   3973    952   4008  11155   3344   28.5  0.085   3759      7  0.000  0.000  0.012  0.040   1.64  25.33   0.34      0   3759     89.5   0.00   0.00   1.21   4.00   4.00   4.00   3.90   3.89   3.87   3.84   1.13   0.00   0.00      0      0      0       0     752
 1990 323   132   129   22.0      5   3.06   3422   3973   1203   4067  11405   3344   36.0  0.105   4010      7  0.000  0.000  0.014  0.000   1.59  30.00   0.35      0   4010     89.4   0.00   0.00   1.22   4.00   4.00   4.00   3.99   3.96   3.93   3.88   1.23   0.00   0.00      0      0      0       0     772
 1990 324   133   130   22.0      5   3.05   3422   3973   1454   4063  11656   3344   43.5  0.125   4261      7  0.000  0.000  0.020  0.000   1.54  34.12   0.37      0   4261     89.1   0.00   0.00   1.23   4.00   4.00   4.00   3.99   3.96   3.92   3.87   1.24   0.00   0.00      0      0      0       0     792
 1990 325   134   131   22.0      5   3.04   3422   3973   1704   4124  11907   3344   51.0  0.143   4512      7  0.000  0.000  0.025  0.000   1.49  37.78   0.38      0   4512     88.9   0.00   0.00   1.24   4.00   4.00   4.00   4.00   4.00   3.98   3.91   1.31   0.00   0.00      0      0      0       0     813
 1990 326   135   132   22.0      5   3.03   3422   3973   1955   4186  12158   3344   58.5  0.161   4762      7  0.000  0.000  0.033  0.061   1.53  41.06   0.39      0   4762     88.5   0.00   0.00   1.25   4.00   4.00   4.00   3.99   3.99   3.97   3.90   1.31   0.00   0.00      0      0      0       0     833
 1990 327   136   133   22.0      5   3.03   3422   3973   2203   4252  12405   3344   65.9  0.178   5010      7  0.000  0.000  0.009  0.004   1.52  43.97   0.40      0   5010     88.4   0.00   0.00   1.25   4.00   4.00   4.00   3.99   3.99   3.97   3.89   1.31   0.00   0.00      0      0      0       0     854
 1990 328   137   134   22.0      5   3.02   3422   3973   2454   4276  12656   3344   73.4  0.194   5261      7  0.000  0.000  0.003  0.000   1.48  46.64   0.42      0   5261     88.4   0.00   0.00   1.25   4.00   4.00   4.00   3.99   3.99   3.96   3.88   1.31   0.00   0.00      0      0      0       0     875
 1990 329   138   135   22.0      5   3.02   3422   3973   2705   4323  12907   3344   80.9  0.210   5512      7  0.000  0.000  0.005  0.000   1.44  49.07   0.43      0   5512     88.3   0.00   0.00   1.25   4.00   4.00   4.00   4.00   4.00   4.00   3.91   1.33   0.00   0.00      0      0      0       0     897
 1990 330   139   136   22.0      5   3.02   3422   3973   2945   4356  13148   3344   88.1  0.224   5752      7  0.000  0.000  0.013  0.000   1.39  51.20   0.44      0   5752     88.2   0.00   0.00   1.25   4.00   4.00   4.00   4.00   4.00   4.00   3.93   1.34   0.00   0.00      0      0      0       0     918
 1990 331   140   137   22.0      5   3.01   3422   3973   3100   4438  13302   3344   92.7  0.233   5907      7  0.000  0.000  0.024  0.000   1.37  52.48   0.44      0   5907     87.9   0.00   0.00   1.25   4.00   4.00   4.00   4.00   4.00   4.00   3.99   1.37   0.00   0.00      0      0      0       0     940
 1990 332   141   138   22.0      5   3.00   3422   3973   3281   4517  13484   3344   98.1  0.243   6089      7  0.000  0.000  0.028  0.018   1.34  53.90   0.45      0   6089     87.6   0.00   0.00   1.25   4.00   4.00   4.00   4.00   4.00   4.00   4.00   1.41   0.00   0.00      0      0      0       0     962
 1990 333   142   139   22.0      5   2.99   3422   3973   3496   4589  13698   3344  104.5  0.255   6303      7  0.000  0.000  0.032  0.000   1.30  55.46   0.46      0   6303     87.2   0.00   0.00   1.25   4.00   4.00   4.00   4.00   4.00   4.00   4.00   1.44   0.00   0.00      0      0      0       0     985
 1990 334   143   140   22.0      5   2.97   3422   3973   3710   4579  13912   3344  110.9  0.267   6517      7  0.000  0.000  0.040  0.000   1.26  56.92   0.47      0   6517     86.8   0.00   0.00   1.25   4.00   4.00   4.00   4.00   4.00   3.99   3.99   1.43   0.00   0.00      0      0      0       0    1008
 1990 335   144   141   22.0      5   2.95   3422   3973   3918   4625  14120   3344  117.2  0.277   6725      7  0.000  0.000  0.047  0.000   1.23  58.26   0.48      0   6725     86.3   0.00   0.00   1.25   4.00   4.00   4.00   4.00   4.00   4.00   4.00   1.46   0.00   0.00      0      0      0       0    1031
 1990 336   145   142   22.0      5   2.93   3422   3973   4119   4620  14322   3344  123.2  0.288   6927      7  0.000  0.000  0.056  0.000   1.20  59.47   0.48      0   6927     85.7   0.00   0.00   1.25   4.00   4.00   4.00   4.00   4.00   4.00   3.99   1.45   0.00   0.00      0      0      0       0    1054
 1990 337   146   143   22.0      5   2.91   3422   3973   4289   4689  14491   3344  128.3  0.296   7096      7  0.000  0.000  0.064  0.009   1.17  60.44   0.49      0   7096     85.0   0.00   0.00   1.25   4.00   4.00   4.00   4.00   4.00   4.00   4.00   1.48   0.00   0.00      0      0      0       0    1077
 1990 338   147   144   22.0      5   2.88   3422   3973   4505   4738  14707   3344  134.7  0.306   7312      7  0.000  0.000  0.069  0.020   1.13  61.61   0.50      0   7312     84.3   0.00   0.00   1.25   4.00   4.00   4.00   4.00   4.00   4.00   4.00   1.50   0.00   0.00      0      0      0       0    1101
 1990 339   148   145   22.0      5   2.86   3422   3973   4756   4742  14958   3344  142.2  0.318   7563      7  0.000  0.000  0.075  0.016   1.09  62.88   0.51      0   7563     83.5   0.00   0.00   1.25   4.00   4.00   4.00   4.00   4.00   4.00   4.00   1.51   0.00   0.00      0      0      0       0    1124
 1990 340   149   146   22.0      5   2.83   3422   3973   5006   4749  15209   3344  149.7  0.329   7813      7  0.000  0.000  0.086  0.069   1.05  64.07   0.51      0   7813     82.6   0.00   0.00   1.25   4.00   4.00   4.00   4.00   4.00   4.00   4.00   1.51   0.00   0.00      0      0      0       0    1148
 1990 341   150   147   22.0      5   2.79   3422   3973   5257   4776  15460   3344  157.2  0.340   8064      7  0.000  0.000  0.095  0.080   1.01  65.19   0.52      0   8064     81.6   0.00   0.00   1.25   4.00   4.00   4.00   4.00   4.00   4.00   4.00   1.52   0.00   0.00      0      0      0       0    1172
 1990 342   151   148   22.0      5   2.75   3422   3973   5499   4820  15701   3344  164.5  0.350   8306      7  0.000  0.000  0.109  0.178   0.98  66.20   0.53      0   8306     80.5   0.00   0.00   1.25   4.00   4.00   4.00   4.00   4.00   4.00   4.00   1.54   0.00   0.00      0      0      0       0    1196
 1990 343   152   149   22.0      5   2.71   3422   3911   5712   4796  15851   3344  170.8  0.360   8519      7  0.000  0.000  0.123  0.086   0.96  67.05   0.54      0   8519     79.3   0.00   0.00   1.25   4.00   4.00   4.00   4.00   4.00   4.00   4.00   1.54   0.00   0.00      0      0      0       0    1220
 1990 344   153   150   22.0      5   2.67   3422   3897   5925   4772  16051   3344  177.2  0.369   8732      7  0.000  0.000  0.131  0.430   0.93  67.85   0.54      0   8732     78.0   0.00   0.00   1.25   4.00   4.00   4.00   4.00   4.00   4.00   4.00   1.54   0.00   0.00      0      0      0       0    1244
 1990 345   154   151   22.0      5   2.62   3422   3973   6163   4795  16366   3344  184.3  0.377   8970      7  0.000  0.000  0.136  0.227   0.88  68.71   0.55      0   8970     76.6   0.00   0.00   1.25   4.00   4.00   4.00   3.99   3.98   3.97   3.95   1.53   0.00   0.00      0      0      0       0    1267
 1990 346   155   152   22.0      5   2.57   3422   3973   6349   4777  16551   3344  189.9  0.384   9156      7  0.000  0.000  0.150  0.118   0.86  69.34   0.55      0   9156     75.2   0.00   0.00   1.25   4.00   4.00   4.00   3.97   3.97   3.95   3.94   1.52   0.00   0.00      0      0      0       0    1291
 1990 347   156   153   22.0      5   2.52   3422   3973   6557   4805  16759   3344  196.1  0.391   9364      7  0.000  0.000  0.161  0.027   0.84  70.02   0.56      0   9364     73.7   0.00   0.00   1.25   4.00   4.00   4.00   4.00   4.00   3.99   3.96   1.54   0.00   0.00      0      0      0       0    1315
 1990 348   157   154   22.0      5   2.47   3422   3973   6729   4859  16932   3344  201.3  0.397   9536      7  0.000  0.000  0.171  0.000   0.82  70.56   0.56      0   9536     72.1   0.00   0.00   1.25   4.00   4.00   4.00   4.00   4.00   4.00   4.00   1.56   0.00   0.00      0      0      0       0    1339
 1990 349   158   155   22.0      5   2.41   3422   3973   6951   4901  17154   3344  207.9  0.405   9758      7  0.000  0.000  0.175  0.000   0.80  71.23   0.57      0   9758     70.5   0.00   0.00   1.25   4.00   4.00   4.00   4.00   4.00   4.00   4.00   1.58   0.00   0.00      0      0      0       0    1364
 1990 350   159   156   22.0      5   2.36   3422   3973   7202   4931  17405   3344  215.4  0.414  10009      7  0.000  0.000  0.184  0.000   0.77  71.95   0.58      0  10009     68.9   0.00   0.00   1.25   4.00   4.00   4.00   4.00   4.00   4.00   4.00   1.59   0.00   0.00      0      0      0       0    1388
 1990 351   160   157   22.0      5   2.30   3422   3962   7453   4906  17644   3344  222.9  0.422  10260      7  0.000  0.000  0.194  0.000   0.75  72.64   0.58      0  10260     67.2   0.00   0.00   1.25   4.00   4.00   4.00   4.00   4.00   4.00   4.00   1.59   0.00   0.00      0      0      0       0    1413
 1990 352   161   158   22.0      5   2.24   3422   3973   7704   4923  17906   3344  230.4  0.430  10511      7  0.000  0.000  0.218  0.000   0.72  73.29   0.59      0  10511     65.5   0.00   0.00   1.25   4.00   4.00   4.00   4.00   4.00   4.00   4.00   1.60   0.00   0.00      0      0      0       0    1437
 1990 353   162   159   22.0      5   2.18   3422   3973   7931   4947  18133   3344  237.2  0.437  10738      7  0.000  0.000  0.252  0.000   0.70  73.86   0.59      0  10738     63.7   0.00   0.00   1.25   4.00   4.00   4.00   4.00   4.00   4.00   4.00   1.61   0.00   0.00      0      0      0       0    1462
 1990 354   163   160   22.0      5   2.12   3422   3973   8182   4962  18384   3344  244.7  0.445  10989      7  0.000  0.000  0.282  0.000   0.68  74.46   0.60      0  10989     61.9   0.00   0.00   1.25   4.00   4.00   4.00   4.00   4.00   4.00   4.00   1.62   0.00   0.00      0      0      0       0    1487
 1990 355   164   161   22.0      5   2.06   3422   3973   8433   4937  18635   3344  252.2  0.453  11240      7  0.000  0.000  0.314  0.000   0.66  75.03   0.60      0  11240     60.1   0.00   0.00   1.25   3.98   3.98   3.98   3.98   3.98   3.98   3.98   1.61   0.00   0.00      0      0      0       0    1512
 1990 356   165   162   22.0      5   1.97   3422   3845   8665   4913  18740   3344  259.1  0.462  11472      7  0.000  0.000  0.348  0.000   0.65  75.53   0.61      0  11472     57.5   0.00   0.00   1.25   3.98   3.98   3.98   3.98   3.98   3.98   3.98   1.61   0.00   0.00      0      0      0       0    1536
 1990 357   166   163   22.0      5   1.97   3422   3845   8665   4913  18740   3344  259.1  0.462  11472      7  0.000  0.000  0.348  0.000   0.65  75.53   0.61      0  11472     57.5   0.00   0.00   1.25   3.98   3.98   3.98   3.98   3.98   3.98   3.98   1.61   0.00   0.00      0      0      0       0    1536
 1990 358   167   164   22.0      5   1.97   3422   3845   8665   4913  18740   3344  259.1  0.462  11472      7  0.000  0.000  0.348  0.000   0.65  75.53   0.61      0  11472     57.5   0.00   0.00   1.25   3.98   3.98   3.98   3.98   3.98   3.98   3.98   1.61   0.00   0.00      0      0      0       0    1536
 1990 359   168   165   22.0      5   1.97   3422   3845   8665   4913  18740   3344  259.1  0.462  11472      7  0.000  0.000  0.348  0.000   0.65  75.53   0.61      0  11472     57.5   0.00   0.00   1.25   3.98   3.98   3.98   3.98   3.98   3.98   3.98   1.61   0.00   0.00      0      0      0       0    1536

*DSSAT Cropping System Model Ver. 4.0.2.000               Aug 03, 2016; 12:23:42

*RUN   2        : UYMZ                    
 MODEL          : MZCER040 - Maize           
 EXPERIMENT     : UYMZ0108 MZ    late to create DSS                             
 TREATMENT  1   : UYMZ                    

@YEAR DOY   DAS   DAP   L#SD   GSTD   LAID   LWAD   SWAD   GWAD   RWAD   CWAD   G#AD   GWGD   HIAD   PWAD   P#AD   WSPD   WSGD   NSTD   EWSD   LN%D   SH%D   HIPD   PWDD   PWTD     SLAD   CHTD   CWID   RDPD   RL1D   RL2D   RL3D   RL4D   RL5D   RL6D   RL7D   RL8D   RL9D   RL10   CDAD   LDAD   SDAD   SNW0C   SNW1C
 1991 194     3     0    0.0      0   0.00      0      0      0      0      0      0    0.0  0.000      0      0  0.000  0.000  0.000  0.000   0.00   0.00   0.00      0      0      0.0   0.00   0.00   0.03   0.00   0.00   0.00   0.00   0.00   0.00   0.00   0.00   0.00   0.00      0      0      0       0       0
 1991 195     4     1    0.0      0   0.00      0      0      0      0      0      0    0.0  0.000      0      0  0.000  0.000  0.000  0.000   0.00   0.00   0.00      0      0      0.0   0.00   0.00   0.03   0.00   0.00   0.00   0.00   0.00   0.00   0.00   0.00   0.00   0.00      0      0      0       0       0
 1991 196     5     2    0.0      0   0.00      0      0      0      0      0      0    0.0  0.000      0      0  0.000  0.000  0.000  0.000   0.00   0.00   0.00      0      0      0.0   0.00   0.00   0.03   0.00   0.00   0.00   0.00   0.00   0.00   0.00   0.00   0.00   0.00      0      0      0       0       0
 1991 197     6     3    0.0      0   0.00      0      0      0      0      0      0    0.0  0.000      0      0  0.000  0.000  0.000  0.000   0.00   0.00   0.00      0      0      0.0   0.00   0.00   0.03   0.00   0.00   0.00   0.00   0.00   0.00   0.00   0.00   0.00   0.00      0      0      0       0       0
 1991 198     7     4    0.0      0   0.00      0      0      0      0      0      0    0.0  0.000      0      0  0.000  0.000  0.000  0.000   0.00   0.00   0.00      0      0      0.0   0.00   0.00   0.05   0.00   0.00   0.00   0.00   0.00   0.00   0.00   0.00   0.00   0.00      0      0      0       0       0
 1991 199     8     5    0.0      0   0.00      0      0      0      0      0      0    0.0  0.000      0      0  0.000  0.000  0.000  0.000   0.00   0.00   0.00      0      0      0.0   0.00   0.00   0.06   0.00   0.00   0.00   0.00   0.00   0.00   0.00   0.00   0.00   0.00      0      0      0       0       0
 1991 200     9     6    0.0      0   0.00      0      0      0      0      0      0    0.0  0.000      0      0  0.000  0.000  0.000  0.000   0.00   0.00   0.00      0      0      0.0   0.00   0.00   0.06   0.00   0.00   0.00   0.00   0.00   0.00   0.00   0.00   0.00   0.00      0      0      0       0       0
 1991 201    10     7    0.0      0   0.00      0      0      0      0      0      0    0.0  0.000      0      0  0.000  0.000  0.000  0.000   0.00   0.00   0.00      0      0      0.0   0.00   0.00   0.08   0.00   0.00   0.00   0.00   0.00   0.00   0.00   0.00   0.00   0.00      0      0      0       0       0
 1991 202    11     8    0.0      0   0.00      0      0      0      0      0      0    0.0  0.000      0      0  0.000  0.000  0.000  0.000   0.00   0.00   0.00      0      0      0.0   0.00   0.00   0.08   0.00   0.00   0.00   0.00   0.00   0.00   0.00   0.00   0.00   0.00      0      0      0       0       0
 1991 203    12     9    0.0      0   0.00      0      0      0      0      0      0    0.0  0.000      0      0  0.000  0.000  0.000  0.000   0.00   0.00   0.00      0      0      0.0   0.00   0.00   0.08   0.00   0.00   0.00   0.00   0.00   0.00   0.00   0.00   0.00   0.00      0      0      0       0       0
 1991 204    13    10    0.0      0   0.00      0      0      0      0      0      0    0.0  0.000      0      0  0.000  0.000  0.000  0.000   0.00   0.00   0.00      0      0      0.0   0.00   0.00   0.08   0.00   0.00   0.00   0.00   0.00   0.00   0.00   0.00   0.00   0.00      0      0      0       0       0
 1991 205    14    11    0.0      0   0.00      0      0      0      0      0      0    0.0  0.000      0      0  0.000  0.000  0.000  0.000   0.00   0.00   0.00      0      0      0.0   0.00   0.00   0.09   0.00   0.00   0.00   0.00   0.00   0.00   0.00   0.00   0.00   0.00      0      0      0       0       0
 1991 206    15    12    0.0      0   0.00      0      0      0      0      0      0    0.0  0.000      0      0  0.000  0.000  0.000  0.000   0.00   0.00   0.00      0      0      0.0   0.00   0.00   0.09   0.00   0.00   0.00   0.00   0.00   0.00   0.00   0.00   0.00   0.00      0      0      0       0       0
 1991 207    16    13    0.0      0   0.00      0      0      0      0      0      0    0.0  0.000      0      0  0.000  0.000  0.000  0.000   0.00   0.00   0.00      0      0      0.0   0.00   0.00   0.11   0.00   0.00   0.00   0.00   0.00   0.00   0.00   0.00   0.00   0.00      0      0      0       0       0
 1991 208    17    14    1.0      1   0.00     14     14      0     14     28      0    0.0  0.000      0      0  0.000  0.000  0.012  0.000   4.40   0.00   0.00      0      0     23.1   0.00   0.00   0.12   0.28   0.08   0.00   0.00   0.00   0.00   0.00   0.00   0.00   0.00      0      0      0       0       0
 1991 209    18    15    2.0      1   0.01     14     14      0     14     28      0    0.0  0.000      0      0  0.000  0.000  0.014  0.000   4.52   0.00   0.00      0      0     47.1   0.00   0.00   0.13   0.28   0.09   0.00   0.00   0.00   0.00   0.00   0.00   0.00   0.00      0      0      0       0       0
 1991 210    19    16    2.0      1   0.01     14     14      0     15     28      0    0.0  0.000      0      0  0.000  0.000  0.000  0.000   4.48   0.00   0.00      0      0     73.4   0.00   0.00   0.15   0.28   0.10   0.00   0.00   0.00   0.00   0.00   0.00   0.00   0.00      0      0      0       0       0
 1991 211    20    17    3.0      1   0.01     14     14      0     15     28      0    0.0  0.000      0      0  0.000  0.000  0.000  0.000   4.48   0.00   0.00      0      0     79.8   0.00   0.00   0.15   0.26   0.09   0.00   0.00   0.00   0.00   0.00   0.00   0.00   0.00      0      0      0       0       0
 1991 212    21    18    3.0      1   0.01     14     14      0     16     28      0    0.0  0.000      0      0  0.000  0.000  0.000  0.000   4.47   0.00   0.00      0      0     78.0   0.00   0.00   0.15   0.25   0.10   0.00   0.00   0.00   0.00   0.00   0.00   0.00   0.00      0      0      0       0       0
 1991 213    22    19    3.0      1   0.01     14     14      0     16     28      0    0.0  0.000      0      0  0.000  0.000  0.000  0.159   4.47   0.00   0.00      0      0     52.7   0.00   0.00   0.15   0.24   0.09   0.00   0.00   0.00   0.00   0.00   0.00   0.00   0.00      0      0      0       0       0
 1991 214    23    20    3.0      1   0.00     14     14      0     16     28      0    0.0  0.000      0      0  0.000  0.000  0.000  0.000   4.47   0.00   0.00      0      0      9.1   0.00   0.00   0.15   0.23   0.09   0.00   0.00   0.00   0.00   0.00   0.00   0.00   0.00      0      0      0       0       0
 1991 215    24    21    3.0      1   0.00     14     14      0     16     28      0    0.0  0.000      0      0  0.000  0.000  0.000  0.000   4.47   0.00   0.00      0      0      1.4   0.00   0.00   0.15   0.22   0.09   0.00   0.00   0.00   0.00   0.00   0.00   0.00   0.00      0      0      0       0       0
 1991 216    25    22    3.0      1   0.00     14     14      0     16     28      0    0.0  0.000      0      0  0.000  0.000  0.000  0.000   4.47   0.00   0.00      0      0      1.8   0.00   0.00   0.15   0.22   0.09   0.00   0.00   0.00   0.00   0.00   0.00   0.00   0.00      0      0      0       0       0
 1991 217    26    23    3.0      1   0.00     14     14      0     16     28      0    0.0  0.000      0      0  0.000  0.000  0.000  0.000   4.47   0.00   0.00      0      0      3.5   0.00   0.00   0.16   0.22   0.09   0.00   0.00   0.00   0.00   0.00   0.00   0.00   0.00      0      0      0       0       0
 1991 218    27    24    3.0      1   0.00     14     14      0     16     28      0    0.0  0.000      0      0  0.000  0.000  0.000  0.000   4.47   0.00   0.00      0      0      4.8   0.00   0.00   0.16   0.22   0.09   0.00   0.00   0.00   0.00   0.00   0.00   0.00   0.00      0      0      0       0       0
 1991 219    28    25    3.0      1   0.00     14     14      0     15     28      0    0.0  0.000      0      0  0.000  0.000  0.000  0.000   4.47   0.00   0.00      0      0      5.7   0.00   0.00   0.16   0.22   0.09   0.00   0.00   0.00   0.00   0.00   0.00   0.00   0.00      0      0      0       0       0
 1991 220    29    26    3.0      1   0.00     14     14      0     15     28      0    0.0  0.000      0      0  0.000  0.000  0.000  0.000   4.47   0.00   0.00      0      0     16.8   0.00   0.00   0.16   0.22   0.09   0.00   0.00   0.00   0.00   0.00   0.00   0.00   0.00      0      0      0       0       0
 1991 221    30    27    3.0      1   0.00     14     14      0     15     28      0    0.0  0.000      0      0  0.000  0.000  0.000  0.000   4.47   0.00   0.00      0      0     25.9   0.00   0.00   0.17   0.22   0.09   0.00   0.00   0.00   0.00   0.00   0.00   0.00   0.00      0      0      0       0       0
 1991 222    31    28    3.0      1   0.00     14     14      0     15     28      0    0.0  0.000      0      0  0.000  0.000  0.000  0.000   4.47   0.00   0.00      0      0     32.8   0.00   0.00   0.17   0.22   0.09   0.00   0.00   0.00   0.00   0.00   0.00   0.00   0.00      0      0      0       0       0
 1991 223    32    29    3.0      1   0.01     14     14      0     16     28      0    0.0  0.000      0      0  0.000  0.000  0.000  0.000   4.47   0.00   0.00      0      0     36.6   0.00   0.00   0.17   0.22   0.09   0.00   0.00   0.00   0.00   0.00   0.00   0.00   0.00      0      0      0       0       0
 1991 224    33    30    3.0      1   0.01     14     14      0     16     28      0    0.0  0.000      0      0  0.000  0.000  0.000  0.000   4.47   0.00   0.00      0      0     38.4   0.00   0.00   0.18   0.22   0.10   0.00   0.00   0.00   0.00   0.00   0.00   0.00   0.00      0      0      0       0       0
 1991 225    34    31    3.0      1   0.01     14     14      0     17     28      0    0.0  0.000      0      0  0.000  0.000  0.000  0.000   4.47   0.00   0.00      0      0     54.0   0.00   0.00   0.18   0.22   0.10   0.00   0.00   0.00   0.00   0.00   0.00   0.00   0.00      0      0      0       0       0
 1991 226    35    32    4.0      1   0.02     14     14      0     18     28      0    0.0  0.000      0      0  0.000  0.000  0.000  0.000   4.47   0.00   0.00      0      0    162.0   0.00   0.00   0.20   0.23   0.12   0.01   0.00   0.00   0.00   0.00   0.00   0.00   0.00      0      0      0       0       0
 1991 227    36    33    4.0      1   0.04     17     14      0     18     31      0    0.0  0.000      0      0  0.000  0.000  0.000  0.000   4.00   0.00   0.00      0      0    254.5   0.00   0.00   0.21   0.23   0.12   0.01   0.00   0.00   0.00   0.00   0.00   0.00   0.00      0      0      0       0       0
 1991 228    37    34    5.0      1   0.07     26     14      0     20     40      0    0.0  0.000      0      0  0.000  0.000  0.000  0.000   3.32   0.00   0.00      0      0    254.4   0.00   0.00   0.22   0.24   0.13   0.02   0.00   0.00   0.00   0.00   0.00   0.00   0.00      0      0      0       0       0
 1991 229    38    35    5.0      1   0.09     36     14      0     25     50      0    0.0  0.000      0      0  0.000  0.000  0.000  0.000   3.43   0.00   0.00      0      0    249.6   0.00   0.00   0.24   0.26   0.17   0.05   0.00   0.00   0.00   0.00   0.00   0.00   0.00      0      0      0       0       0
 1991 230    39    36    5.0      1   0.11     44     14      0     26     58      0    0.0  0.000      0      0  0.000  0.000  0.000  0.000   3.63   0.00   0.00      0      0    244.9   0.00   0.00   0.25   0.27   0.18   0.06   0.00   0.00   0.00   0.00   0.00   0.00   0.00      0      0      0       0       1
 1991 231    40    37    6.0      1   0.13     56     14      0     32     70      0    0.0  0.000      0      0  0.000  0.000  0.000  0.000   3.50   0.00   0.00      0      0    238.6   0.00   0.00   0.26   0.30   0.22   0.09   0.00   0.00   0.00   0.00   0.00   0.00   0.00      0      0      0       0       1
 1991 232    41    38    6.0      1   0.16     70     14      0     33     84      0    0.0  0.000      0      0  0.000  0.000  0.000  0.000   3.51   0.00   0.00      0      0    232.3   0.00   0.00   0.27   0.30   0.23   0.10   0.00   0.00   0.00   0.00   0.00   0.00   0.00      0      0      0       0       1
 1991 233    42    39    6.0      1   0.19     85     14      0     45     99      0    0.0  0.000      0      0  0.000  0.000  0.000  0.000   3.50   0.00   0.00      0      0    226.0   0.00   0.00   0.28   0.36   0.30   0.19   0.00   0.00   0.00   0.00   0.00   0.00   0.00      0      0      0       0       1
 1991 234    43    40    7.0      1   0.23    104     14      0     54    118      0    0.0  0.000      0      0  0.000  0.000  0.000  0.000   3.46   0.00   0.00      0      0    219.5   0.00   0.00   0.30   0.40   0.35   0.26   0.00   0.00   0.00   0.00   0.00   0.00   0.00      0      0      0       0       1
 1991 235    44    41    7.0      1   0.25    115     14      0     66    129      0    0.0  0.000      0      0  0.000  0.000  0.000  0.000   3.73   0.00   0.00      0      0    216.0   0.00   0.00   0.30   0.45   0.42   0.36   0.00   0.00   0.00   0.00   0.00   0.00   0.00      0      0      0       0       1
 1991 236    45    42    7.0      1   0.27    129     14      0     89    143      0    0.0  0.000      0      0  0.000  0.000  0.000  0.000   3.70   0.00   0.00      0      0    212.3   0.00   0.00   0.31   0.55   0.54   0.53   0.00   0.00   0.00   0.00   0.00   0.00   0.00      0      0      0       0       2
 1991 237    46    43    7.0      1   0.32    155     14      0    110    169      0    0.0  0.000      0      0  0.000  0.000  0.000  0.000   3.41   0.00   0.00      0      0    205.9   0.00   0.00   0.32   0.65   0.66   0.69   0.01   0.00   0.00   0.00   0.00   0.00   0.00      0      0      0       0       2
 1991 238    47    44    8.0      1   0.35    171     14      0    115    185      0    0.0  0.000      0      0  0.000  0.000  0.000  0.000   3.69   0.00   0.00      0      0    202.6   0.00   0.00   0.33   0.67   0.68   0.72   0.01   0.00   0.00   0.00   0.00   0.00   0.00      0      0      0       0       3
 1991 239    48    45    8.0      1   0.37    185     14      0    137    199      0    0.0  0.000      0      0  0.000  0.000  0.000  0.000   3.73   0.00   0.00      0      0    199.9   0.00   0.00   0.34   0.76   0.81   0.89   0.03   0.00   0.00   0.00   0.00   0.00   0.00      0      0      0       0       3
 1991 240    49    46    8.0      1   0.40    206     14      0    166    220      0    0.0  0.000      0      0  0.000  0.000  0.000  0.000   3.60   0.00   0.00      0      0    196.2   0.00   0.00   0.35   0.87   0.96   1.09   0.06   0.00   0.00   0.00   0.00   0.00   0.00      0      0      0       0       4
 1991 241    50    47    8.0      1   0.46    242     14      0    183    256      0    0.0  0.000      0      0  0.000  0.000  0.000  0.000   3.40   0.00   0.00      0      0    190.8   0.00   0.00   0.37   0.94   1.05   1.21   0.08   0.00   0.00   0.00   0.00   0.00   0.00      0      0      0       0       5
 1991 242    51    48    9.0      1   0.52    283     14      0    189    297      0    0.0  0.000      0      0  0.000  0.000  0.000  0.000   3.39   0.00   0.00      0      0    185.3   0.00   0.00   0.39   0.96   1.08   1.25   0.09   0.00   0.00   0.00   0.00   0.00   0.00      0      0      0       0       6
 1991 243    52    49    9.0      1   0.56    305     14      0    197    319      0    0.0  0.000      0      0  0.000  0.000  0.000  0.000   3.64   0.00   0.00      0      0    182.4   0.00   0.00   0.39   0.98   1.12   1.30   0.10   0.00   0.00   0.00   0.00   0.00   0.00      0      0      0       0       7
 1991 244    53    50    9.0      2   0.60    311     14      0    259    325      0    0.0  0.000      0      0  0.000  0.000  0.000  0.000   3.82   0.00   0.00      0      0    194.0   0.00   0.00   0.41   1.04   1.36   1.67   0.23   0.00   0.00   0.00   0.00   0.00   0.00      0      0      0       0       8
 1991 245    54    51    9.0      2   0.66    347     14      0    280    361      0    0.0  0.000      0      0  0.000  0.000  0.000  0.000   3.51   0.00   0.00      0      0    189.6   0.00   0.00   0.42   1.03   1.41   1.76   0.27   0.00   0.00   0.00   0.00   0.00   0.00      0      0      0       0       9
 1991 246    55    52   10.0      2   0.72    389     14      0    320    403      0    0.0  0.000      0      0  0.000  0.000  0.000  0.117   3.42   0.00   0.00      0      0    185.1   0.00   0.00   0.43   1.07   1.57   2.00   0.37   0.00   0.00   0.00   0.00   0.00   0.00      0      0      0       0      10
 1991 247    56    53   10.0      2   0.81    454     14      0    371    468      0    0.0  0.000      0      0  0.000  0.000  0.000  0.013   3.78   0.00   0.00      0      0    179.3   0.00   0.00   0.45   1.15   1.78   2.32   0.52   0.00   0.00   0.00   0.00   0.00   0.00      0      0      0       0      12
 1991 248    57    54   10.0      3   0.90    519     14      0    417    533      0    0.0  0.000      0      0  0.000  0.000  0.022  0.000   3.68   0.00   0.00      0      0    173.3   0.00   0.00   0.47   1.22   1.95   2.61   0.65   0.01   0.00   0.00   0.00   0.00   0.00      0      0      0       0      14
 1991 249    58    55   11.0      3   0.98    576     15      0    418    591      0    0.0  0.000      0      0  0.000  0.000  0.022  0.000   3.57   0.00   0.00      0      0    169.7   0.00   0.00   0.48   1.21   1.94   2.60   0.65   0.02   0.00   0.00   0.00   0.00   0.00      0      0      0       0      16
 1991 250    59    56   11.0      3   1.03    619     15      0    429    634      0    0.0  0.000      0      0  0.000  0.000  0.022  0.000   3.54   0.00   0.00      0      0    167.1   0.00   0.00   0.49   1.20   1.97   2.64   0.68   0.03   0.00   0.00   0.00   0.00   0.00      0      0      0       0      18
 1991 251    60    57   11.0      3   1.10    671     16      0    468    688      0    0.0  0.000      0      0  0.000  0.000  0.022  0.000   3.51   0.00   0.00      0      0    164.3   0.00   0.00   0.50   1.23   2.10   2.86   0.79   0.06   0.00   0.00   0.00   0.00   0.00      0      0      0       0      20
 1991 252    61    58   11.0      3   1.17    725     18      0    550    743      0    0.0  0.000      0      0  0.000  0.000  0.022  0.038   3.49   0.00   0.00      0      0    161.7   0.00   0.00   0.52   1.29   2.39   3.36   1.02   0.15   0.00   0.00   0.00   0.00   0.00      0      0      0       0      23
 1991 253    62    59   12.0      3   1.28    811     22      0    611    833      0    0.0  0.000      0      0  0.000  0.000  0.022  0.001   3.45   0.00   0.00      0      0    158.2   0.00   0.00   0.53   1.34   2.60   3.70   1.18   0.24   0.00   0.00   0.00   0.00   0.00      0      0      0       0      25
 1991 254    63    60   12.0      3   1.40    903     28      0    696    931      0    0.0  0.000      0      0  0.000  0.000  0.022  0.002   3.42   0.00   0.00      0      0    154.8   0.00   0.00   0.54   1.41   2.87   4.00   1.42   0.38   0.00   0.00   0.00   0.00   0.00      0      0      0       0      28
 1991 255    64    61   12.0      3   1.53   1013     39      0    772   1052      0    0.0  0.000      0      0  0.000  0.000  0.022  0.001   3.38   0.00   0.00      0      0    151.3   0.00   0.00   0.56   1.48   3.11   4.00   1.64   0.53   0.00   0.00   0.00   0.00   0.00      0      0      0       0      32
 1991 256    65    62   13.0      3   1.68   1139     55      0    793   1194      0    0.0  0.000      0      0  0.000  0.000  0.022  0.000   3.33   0.00   0.00      0      0    147.9   0.00   0.00   0.58   1.50   3.17   4.00   1.70   0.58   0.00   0.00   0.00   0.00   0.00      0      0      0       0      36
 1991 257    66    63   13.0      3   1.74   1190     62      0    809   1252      0    0.0  0.000      0      0  0.000  0.000  0.022  0.000   3.31   0.00   0.00      0      0    146.4   0.00   0.00   0.59   1.51   3.21   4.00   1.75   0.63   0.00   0.00   0.00   0.00   0.00      0      0      0       0      40
 1991 258    67    64   13.0      3   1.76   1209     65      0    820   1275      0    0.0  0.000      0      0  0.000  0.000  0.022  0.000   3.35   0.00   0.00      0      0    145.6   0.00   0.00   0.59   1.51   3.24   4.00   1.79   0.67   0.00   0.00   0.00   0.00   0.00      0      0      0       0      44
 1991 259    68    65   13.0      3   1.85   1290     80      0    825   1369      0    0.0  0.000      0      0  0.000  0.000  0.022  0.000   3.27   0.00   0.00      0      0    143.6   0.00   0.00   0.60   1.51   3.25   4.00   1.81   0.69   0.00   0.00   0.00   0.00   0.00      0      0      0       0      48
 1991 260    69    66   13.0      3   1.95   1378     99      0    827   1477      0    0.0  0.000      0      0  0.000  0.000  0.022  0.000   3.24   0.00   0.00      0      0    141.6   0.00   0.00   0.62   1.50   3.22   3.97   1.80   0.69   0.00   0.00   0.00   0.00   0.00      0      0      0       0      52
 1991 261    70    67   14.0      3   2.04   1462    120      0    943   1581      0    0.0  0.000      0      0  0.000  0.000  0.022  0.000   3.21   0.00   0.00      0      0    139.8   0.00   0.00   0.63   1.47   3.39   4.00   2.14   1.04   0.02   0.00   0.00   0.00   0.00      0      0      0       0      56
 1991 262    71    68   14.0      3   2.11   1523    136      0   1082   1660      0    0.0  0.000      0      0  0.000  0.000  0.022  0.000   3.19   0.00   0.00      0      0    138.5   0.00   0.00   0.64   1.46   3.60   4.00   2.58   1.49   0.05   0.00   0.00   0.00   0.00      0      0      0       0      61
 1991 263    72    69   14.0      3   2.20   1607    162      0   1103   1769      0    0.0  0.000      0      0  0.000  0.000  0.022  0.053   3.17   0.00   0.00      0      0    136.9   0.00   0.00   0.65   1.45   3.59   4.00   2.63   1.56   0.06   0.00   0.00   0.00   0.00      0      0      0       0      66
 1991 264    73    70   14.0      3   2.31   1708    198      0   1127   1907      0    0.0  0.000      0      0  0.000  0.000  0.022  0.008   3.13   0.00   0.00      0      0    135.1   0.00   0.00   0.66   1.43   3.59   4.00   2.69   1.63   0.07   0.00   0.00   0.00   0.00      0      0      0       0      72
 1991 265    74    71   15.0      3   2.38   1775    224      0   1263   2000      0    0.0  0.000      0      0  0.000  0.000  0.022  0.001   3.11   0.00   0.00      0      0    133.9   0.00   0.00   0.67   1.43   3.74   4.00   3.16   2.11   0.14   0.00   0.00   0.00   0.00      0      0      0       0      77
 1991 266    75    72   15.0      3   2.35   1819    242      0   1407   2060      0    0.0  0.000      0      0  0.000  0.000  0.022  0.002   3.10   0.00   0.00      0      0    129.0   0.00   0.00   0.67   1.43   3.85   4.00   3.70   2.67   0.24   0.00   0.00   0.00   0.00      0      0      0       0      84
 1991 267    76    73   15.0      3   2.41   1878    268      0   1546   2145      0    0.0  0.000      0      0  0.000  0.000  0.022  0.003   3.08   0.00   0.00      0      0    128.1   0.00   0.00   0.68   1.44   3.94   4.00   4.00   3.23   0.34   0.00   0.00   0.00   0.00      0      0      0       0      91
 1991 268    77    74   15.0      3   2.49   1956    305      0   1682   2262      0    0.0  0.000      0      0  0.000  0.000  0.022  0.003   3.06   0.00   0.00      0      0    127.0   0.00   0.00   0.69   1.45   4.00   4.00   4.00   3.79   0.47   0.00   0.00   0.00   0.00      0      0      0       0      98
 1991 269    78    75   15.0      3   2.58   2049    354      0   1804   2404      0    0.0  0.000      0      0  0.000  0.000  0.022  0.003   3.03   0.00   0.00      0      0    125.9   0.00   0.00   0.70   1.46   4.00   4.00   4.00   4.00   0.60   0.00   0.00   0.00   0.00      0      0      0       0     107
 1991 270    79    76   16.0      3   2.71   2181    434      0   1860   2615      0    0.0  0.000      0      0  0.000  0.000  0.022  0.002   2.99   0.00   0.00      0      0    124.5   0.00   0.00   0.72   1.47   3.98   4.00   4.00   4.00   0.68   0.00   0.00   0.00   0.00      0      0      0       0     116
 1991 271    80    77   16.0      3   2.77   2236    469      0   1978   2705      0    0.0  0.000      0      0  0.000  0.000  0.022  0.001   2.98   0.00   0.00      0      0    123.7   0.00   0.00   0.72   1.50   4.00   4.00   4.00   4.00   0.87   0.00   0.00   0.00   0.00      0      0      0       0     125
 1991 272    81    78   16.0      3   2.82   2295    508      0   2093   2803      0    0.0  0.000      0      0  0.000  0.000  0.022  0.000   2.96   0.00   0.00      0      0    122.9   0.00   0.00   0.73   1.54   4.00   4.00   4.00   4.00   1.07   0.00   0.00   0.00   0.00      0      0      0       0     135
 1991 273    82    79   16.0      3   2.90   2376    567      0   2225   2942      0    0.0  0.000      0      0  0.000  0.000  0.022  0.000   2.93   0.00   0.00      0      0    122.0   0.00   0.00   0.74   1.59   4.00   4.00   4.00   4.00   1.31   0.00   0.00   0.00   0.00      0      0      0       0     146
 1991 274    83    80   16.0      3   2.95   2431    608      0   2374   3039      0    0.0  0.000      0      0  0.000  0.000  0.022  0.000   2.91   0.00   0.00      0      0    121.3   0.00   0.00   0.75   1.66   4.00   4.00   4.00   4.00   1.60   0.00   0.00   0.00   0.00      0      0      0       0     157
 1991 275    84    81   17.0      3   3.01   2494    658      0   2498   3152      0    0.0  0.000      0      0  0.000  0.000  0.022  0.000   2.88   0.00   0.00      0      0    120.6   0.00   0.00   0.76   1.74   4.00   4.00   4.00   4.00   1.87   0.00   0.00   0.00   0.00      0      0      0       0     169
 1991 276    85    82   17.0      3   3.01   2560    714      0   2635   3274      0    0.0  0.000      0      0  0.000  0.000  0.022  0.000   2.82   0.00   0.00      0      0    117.4   0.00   0.00   0.76   1.86   4.00   4.00   4.00   4.00   2.19   0.00   0.00   0.00   0.00      0      0      0       0     181
 1991 277    86    83   17.0      3   3.08   2634    780      0   2695   3414      0    0.0  0.000      0      0  0.000  0.000  0.022  0.000   2.76   0.00   0.00      0      0    116.7   0.00   0.00   0.77   1.93   4.00   4.00   4.00   4.00   2.35   0.00   0.00   0.00   0.00      0      0      0       0     194
 1991 278    87    84   17.0      3   3.12   2685    827      0   2687   3512      0    0.0  0.000      0      0  0.000  0.000  0.022  0.000   2.74   0.00   0.00      0      0    116.2   0.00   0.00   0.78   1.93   3.99   3.99   3.98   4.00   2.36   0.00   0.00   0.00   0.00      0      0      0       0     208
[...]
 1992 309   118   115   20.0      3   3.64   3733   2543      0   4646   6275      0    0.0  0.000      0      0  0.000  0.000  0.075  0.000   1.75   0.00   0.00      0      0     97.5   0.00   0.00   0.93   4.00   4.00   4.00   4.00   4.00   2.72   1.12   0.00   0.00   0.00      0      0      0       0     580
 1992 310   119   116   21.0      3   2.98   3755   2600      0   4826   6355      0    0.0  0.000      0      0  0.000  0.000  0.077  0.000   1.74   0.00   0.00      0      0     79.5   0.00   0.00   0.94   4.00   4.00   4.00   4.00   4.00   2.90   1.58   0.00   0.00   0.00      0      0      0       0     603
 1992 311   120   117   21.0      3   2.99   3790   2691      0   4974   6481      0    0.0  0.000      0      0  0.000  0.000  0.075  0.000   1.72   0.00   0.00      0      0     78.9   0.00   0.00   0.94   4.00   4.00   4.00   4.00   4.00   3.05   1.96   0.00   0.00   0.00      0      0      0       0     628
 1992 312   121   118   21.0      3   3.00   3831   2799      0   5129   6630      0    0.0  0.000      0      0  0.000  0.000  0.075  0.000   1.69   0.00   0.00      0      0     78.3   0.00   0.00   0.95   4.00   4.00   4.00   4.00   4.00   3.20   2.33   0.00   0.00   0.00      0      0      0       0     652
 1992 313   122   119   21.0      3   3.02   3882   2942      0   5258   6824      0    0.0  0.000      0      0  0.000  0.000  0.075  0.000   1.65   0.00   0.00      0      0     77.8   0.00   0.00   0.96   4.00   4.00   4.00   4.00   4.00   3.34   2.64   0.00   0.00   0.00      0      0      0       0     678
 1992 314   123   120   22.0      3   3.05   3947   3132      0   5351   7079      0    0.0  0.000      0      0  0.000  0.000  0.076  0.000   1.60   0.00   0.00      0      0     77.4   0.00   0.00   0.98   4.00   4.00   4.00   4.00   4.00   3.44   2.86   0.00   0.00   0.00      0      0      0       0     704
 1992 315   124   121   22.0      3   3.06   3984   3240      0   5332   7224      0    0.0  0.000      0      0  0.000  0.000  0.079  0.000   1.58   0.00   0.00      0      0     76.8   0.00   0.00   0.99   4.00   4.00   4.00   3.99   3.99   3.43   2.86   0.00   0.00   0.00      0      0      0       0     731
 1992 316   125   122   22.0      3   3.08   4046   3419      0   5387   7466      0    0.0  0.000      0      0  0.000  0.000  0.084  0.000   1.54   0.00   0.00      0      0     76.2   0.00   0.00   1.00   4.00   4.00   4.00   4.00   4.00   3.50   2.96   0.00   0.00   0.00      0      0      0       0     758
 1992 317   126   123   22.0      3   3.11   4111   3605      0   5496   7716      0    0.0  0.000      0      0  0.000  0.000  0.085  0.000   1.66   0.00   0.00      0      0     75.7   0.00   0.00   1.01   4.00   4.00   4.00   4.00   4.00   3.49   2.96   0.00   0.00   0.00      0      0      0       0     785
 1992 318   127   124   22.0      3   3.15   4182   3809      0   5598   7991      0    0.0  0.000      0      0  0.000  0.000  0.064  0.000   1.65   0.00   0.00      0      0     75.4   0.00   0.00   1.03   4.00   4.00   4.00   3.99   3.99   3.49   2.95   0.00   0.00   0.00      0      0      0       0     812
 1992 319   128   125   22.0      3   3.21   4272   4067      0   5609   8339      0    0.0  0.000      0      0  0.000  0.000  0.062  0.000   1.61   0.00   0.00      0      0     75.2   0.00   0.00   1.05   4.00   4.00   4.00   3.98   3.98   3.48   2.94   0.00   0.00   0.00      0      0      0       0     840
 1992 320   129   126   22.0      4   3.19   4229   3464      0   5658   8561      0    0.0  0.000    869      0  0.000  0.000  0.062  0.000   1.77   0.00   0.10      0    869     75.4   0.00   0.00   1.06   4.00   4.00   4.00   4.00   4.00   3.50   2.95   0.00   0.00   0.00      0      0      0       0     868
 1992 321   130   127   22.0      4   3.16   4184   3514      0   5811   8692      0    0.0  0.000    995      0  0.000  0.000  0.067  0.000   1.77   0.00   0.11      0    995     75.6   0.00   0.00   1.07   4.00   4.00   4.00   4.00   4.00   3.65   3.05   0.00   0.00   0.00      0      0      0       0     897
 1992 322   131   128   22.0      4   3.14   4137   3563      0   5962   8818      0    0.0  0.000   1118      0  0.000  0.000  0.048  0.000   1.78   0.00   0.13      0   1118     76.0   0.00   0.00   1.08   4.00   4.00   4.00   4.00   4.00   3.83   3.17   0.00   0.00   0.00      0      0      0       0     926
 1992 323   132   129   22.0      4   3.12   4088   3615      0   6116   8952      0    0.0  0.000   1248      0  0.000  0.000  0.045  0.000   1.79   0.00   0.14      0   1248     76.4   0.00   0.00   1.09   4.00   4.00   4.00   4.00   4.00   4.00   3.31   0.00   0.00   0.00      0      0      0       0     955
 1992 324   133   130   22.0      4   3.11   4036   3691      0   6234   9163      0    0.0  0.000   1437      0  0.000  0.000  0.042  0.000   1.79   0.00   0.16      0   1437     77.0   0.00   0.00   1.10   4.00   4.00   4.00   4.00   4.00   4.00   3.41   0.09   0.00   0.00      0      0      0       0     986
 1992 325   134   131   22.0      4   3.09   3981   3771      0   6220   9389      0    0.0  0.000   1637      0  0.000  0.000  0.039  0.000   1.79   0.00   0.17      0   1637     77.7   0.00   0.00   1.11   4.00   4.00   4.00   4.00   4.00   4.00   3.40   0.11   0.00   0.00      0      0      0       0    1017
 1992 326   135   132   22.0      4   3.08   3924   3824      0   6197   9518      0    0.0  0.000   1770      0  0.000  0.000  0.037  0.000   1.86   0.00   0.19      0   1770     78.5   0.00   0.00   1.11   4.00   3.98   3.98   3.98   3.98   3.98   3.38   0.11   0.00   0.00      0      0      0       0    1048
 1992 327   136   133   22.0      4   3.07   3865   3869      0   6289   9616      0    0.0  0.000   1882      0  0.000  0.000  0.031  0.000   1.89   0.00   0.20      0   1882     79.4   0.00   0.00   1.12   4.00   4.00   4.00   3.99   3.98   3.98   3.38   0.13   0.00   0.00      0      0      0       0    1079
 1992 328   137   134   22.0      4   3.06   3805   3913      0   6372   9710      0    0.0  0.000   1992      0  0.000  0.000  0.028  0.000   1.90   0.00   0.21      0   1992     80.3   0.00   0.00   1.13   4.00   4.00   4.00   4.00   4.00   4.00   3.40   0.19   0.00   0.00      0      0      0       0    1111
 1992 329   138   135   22.0      4   3.05   3742   3986      0   6452   9903      0    0.0  0.000   2175      0  0.000  0.000  0.025  0.000   1.90   0.00   0.22      0   2175     81.4   0.00   0.00   1.13   4.00   4.00   4.00   4.00   4.00   4.00   3.44   0.31   0.00   0.00      0      0      0       0    1143
 1992 330   139   136   22.0      4   3.04   3675   4071      0   6525  10136      0    0.0  0.000   2389      0  0.000  0.000  0.023  0.000   1.90   0.00   0.24      0   2389     82.7   0.00   0.00   1.14   4.00   4.00   4.00   4.00   4.00   4.00   3.49   0.46   0.00   0.00      0      0      0       0    1175
 1992 331   140   137   22.0      4   3.03   3606   4167      0   6516  10400      0    0.0  0.000   2628      0  0.000  0.000  0.022  0.000   1.90   0.00   0.25      0   2628     84.0   0.00   0.00   1.16   4.00   4.00   4.00   4.00   4.00   4.00   3.49   0.50   0.00   0.00      0      0      0       0    1207
 1992 332   141   138   22.0      4   3.02   3533   4265      0   6596  10670      0    0.0  0.000   2872      0  0.000  0.000  0.022  0.000   1.89   0.00   0.27      0   2872     85.5   0.00   0.00   1.17   4.00   4.00   4.00   4.00   4.00   4.00   3.55   0.67   0.00   0.00      0      0      0       0    1240
 1992 333   142   139   22.0      4   3.01   3456   4345      0   6575  10876      0    0.0  0.000   3074      0  0.000  0.000  0.022  0.000   1.89   0.00   0.28      0   3074     87.2   0.00   0.00   1.18   4.00   4.00   4.00   4.00   3.99   3.99   3.54   0.69   0.00   0.00      0      0      0       0    1273
 1992 334   143   140   22.0      5   3.01   3456   4327    270   6542  11126   3669    7.3  0.024   3343      7  0.000  0.000  0.000  0.000   1.84   8.06   0.30      0   3343     87.2   0.00   0.00   1.18   4.00   4.00   4.00   4.00   3.99   3.99   3.54   0.69   0.00   0.00      0      0      0       0    1306
 1992 335   144   141   22.0      5   3.01   3456   4345    545   6569  11420   3669   14.8  0.048   3618      7  0.000  0.000  0.000  0.000   1.78  15.06   0.32      0   3618     87.2   0.00   0.00   1.19   4.00   4.00   4.00   4.00   4.00   4.00   3.57   0.75   0.00   0.00      0      0      0       0    1339
 1992 336   145   142   22.0      5   3.01   3456   4345    715   6635  11590   3669   19.5  0.062   3788      7  0.000  0.000  0.000  0.000   1.75  18.87   0.33      0   3788     87.2   0.00   0.00   1.19   4.00   4.00   4.00   4.00   4.00   4.00   3.62   0.85   0.00   0.00      0      0      0       0    1371
 1992 337   146   143   22.0      5   3.01   3456   4345    903   6705  11778   3669   24.6  0.077   3976      7  0.000  0.000  0.000  0.000   1.71  22.70   0.34      0   3976     87.2   0.00   0.00   1.20   4.00   4.00   4.00   4.00   4.00   4.00   3.68   0.92   0.00   0.00      0      0      0       0    1405
 1992 338   147   144   22.0      5   3.01   3456   4345   1163   6756  12039   3669   31.7  0.097   4237      7  0.000  0.000  0.000  0.000   1.66  27.46   0.35      0   4237     87.2   0.00   0.00   1.21   4.00   4.00   4.00   4.00   4.00   4.00   3.72   0.97   0.00   0.00      0      0      0       0    1438
 1992 339   148   145   22.0      5   3.01   3456   4345   1439   6800  12314   3669   39.2  0.117   4512      7  0.000  0.000  0.004  0.000   1.60  31.88   0.37      0   4512     87.1   0.00   0.00   1.22   4.00   4.00   4.00   4.00   4.00   4.00   3.77   0.99   0.00   0.00      0      0      0       0    1472
 1992 340   149   146   22.0      5   3.01   3456   4328   1714   6766  12571   3669   46.7  0.136   4787      7  0.000  0.000  0.012  0.000   1.55  35.80   0.38      0   4787     87.0   0.00   0.00   1.22   4.00   4.00   4.00   4.00   4.00   4.00   3.77   0.99   0.00   0.00      0      0      0       0    1506
 1992 341   150   147   22.0      5   3.00   3456   4345   1989   6795  12864   3669   54.2  0.155   5062      7  0.000  0.000  0.021  0.000   1.50  39.29   0.39      0   5062     86.8   0.00   0.00   1.23   4.00   4.00   4.00   4.00   4.00   4.00   3.80   1.01   0.00   0.00      0      0      0       0    1540
 1992 342   151   148   22.0      5   2.99   3456   4345   2264   6837  13140   3669   61.7  0.172   5338      7  0.000  0.000  0.027  0.000   1.45  42.42   0.41      0   5338     86.5   0.00   0.00   1.25   4.00   4.00   4.00   4.00   4.00   4.00   3.84   1.03   0.00   0.00      0      0      0       0    1574
 1992 343   152   149   22.0      5   2.98   3456   4345   2539   6817  13415   3669   69.2  0.189   5613      7  0.000  0.000  0.037  0.000   1.40  45.24   0.42      0   5613     86.1   0.00   0.00   1.25   4.00   4.00   4.00   4.00   4.00   3.99   3.83   1.03   0.00   0.00      0      0      0       0    1608
 1992 344   153   150   22.0      5   2.96   3456   4304   2814   6783  13648   3669   76.7  0.206   5888      7  0.000  0.000  0.045  0.000   1.36  47.80   0.43      0   5888     85.6   0.00   0.00   1.25   4.00   4.00   4.00   4.00   4.00   3.99   3.83   1.03   0.00   0.00      0      0      0       0    1642
 1992 345   154   151   22.0      5   2.94   3456   4345   3090   6792  13965   3669   84.2  0.221   6163      7  0.000  0.000  0.053  0.000   1.30  50.13   0.44      0   6163     85.0   0.00   0.00   1.25   4.00   4.00   4.00   4.00   4.00   4.00   3.84   1.04   0.00   0.00      0      0      0       0    1676
 1992 346   155   152   22.0      5   2.92   3456   4345   3365   6820  14240   3669   91.7  0.236   6438      7  0.000  0.000  0.060  0.000   1.26  52.26   0.45      0   6438     84.4   0.00   0.00   1.25   4.00   4.00   4.00   4.00   4.00   4.00   3.87   1.06   0.00   0.00      0      0      0       0    1710
 1992 347   156   153   22.0      5   2.89   3456   4345   3640   6857  14515   3669   99.2  0.251   6714      7  0.000  0.000  0.072  0.000   1.21  54.22   0.46      0   6714     83.6   0.00   0.00   1.25   4.00   4.00   4.00   4.00   4.00   4.00   3.90   1.08   0.00   0.00      0      0      0       0    1744
 1992 348   157   154   22.0      5   2.86   3456   4345   3915   6888  14791   3669  106.7  0.265   6989      7  0.000  0.000  0.081  0.000   1.17  56.02   0.47      0   6989     82.8   0.00   0.00   1.25   4.00   4.00   4.00   4.00   4.00   4.00   3.94   1.10   0.00   0.00      0      0      0       0    1778
 1992 349   158   155   22.0      5   2.83   3456   4345   4190   6916  15066   3669  114.2  0.278   7264      7  0.000  0.000  0.091  0.000   1.13  57.69   0.48      0   7264     81.9   0.00   0.00   1.25   4.00   4.00   4.00   4.00   4.00   4.00   3.96   1.12   0.00   0.00      0      0      0       0    1813
 1992 350   159   156   22.0      5   2.79   3456   4345   4465   6944  15341   3669  121.7  0.291   7539      7  0.000  0.000  0.101  0.000   1.08  59.23   0.49      0   7539     80.8   0.00   0.00   1.25   4.00   4.00   4.00   4.00   4.00   4.00   3.99   1.14   0.00   0.00      0      0      0       0    1847
 1992 351   160   157   22.0      5   2.75   3456   4345   4741   6910  15616   3669  129.2  0.304   7814      7  0.000  0.000  0.113  0.000   1.05  60.67   0.50      0   7814     79.7   0.00   0.00   1.25   3.98   3.98   3.98   3.98   3.98   3.98   3.97   1.13   0.00   0.00      0      0      0       0    1882
 1992 352   161   158   22.0      5   2.71   3456   4345   5016   6934  15891   3669  136.7  0.316   8089      7  0.000  0.000  0.122  0.000   1.01  62.00   0.51      0   8089     78.5   0.00   0.00   1.25   4.00   4.00   4.00   4.00   4.00   4.00   4.00   1.15   0.00   0.00      0      0      0       0    1916
 1992 353   162   159   22.0      5   2.67   3456   4345   5291   6953  16166   3669  144.2  0.327   8365      7  0.000  0.000  0.133  0.000   0.97  63.25   0.52      0   8365     77.1   0.00   0.00   1.25   4.00   4.00   4.00   4.00   4.00   4.00   4.00   1.17   0.00   0.00      0      0      0       0    1951
 1992 354   163   160   22.0      5   2.62   3456   4345   5566   6932  16442   3669  151.7  0.339   8640      7  0.000  0.000  0.143  0.000   0.94  64.42   0.53      0   8640     75.8   0.00   0.00   1.25   4.00   4.00   4.00   4.00   4.00   3.99   3.99   1.17   0.00   0.00      0      0      0       0    1986
 1992 355   164   161   22.0      5   2.57   3456   4345   5841   6950  16717   3669  159.2  0.349   8915      7  0.000  0.000  0.152  0.000   0.90  65.52   0.53      0   8915     74.3   0.00   0.00   1.25   4.00   4.00   4.00   4.00   4.00   4.00   4.00   1.18   0.00   0.00      0      0      0       0    2021
 1992 356   165   162   22.0      5   2.52   3456   4345   6116   6957  16992   3669  166.7  0.360   9190      7  0.000  0.000  0.164  0.000   0.86  66.56   0.54      0   9190     72.8   0.00   0.00   1.25   4.00   4.00   4.00   4.00   4.00   4.00   4.00   1.19   0.00   0.00      0      0      0       0    2055
 1992 357   166   163   22.0      5   2.46   3456   4211   6392   6922  17133   3669  174.2  0.373   9465      7  0.000  0.000  0.175  0.000   0.85  67.53   0.55      0   9465     71.2   0.00   0.00   1.25   4.00   4.00   4.00   4.00   4.00   4.00   4.00   1.19   0.00   0.00      0      0      0       0    2090
 1992 358   167   164   22.0      5   2.40   3456   4107   6667   6888  17304   3669  181.7  0.385   9740      7  0.000  0.000  0.187  0.000   0.83  68.44   0.56      0   9740     69.5   0.00   0.00   1.25   4.00   4.00   4.00   4.00   4.00   4.00   4.00   1.19   0.00   0.00      0      0      0       0    2125
 1992 359   168   165   22.0      5   2.35   3456   4173   6942   6886  17645   3669  189.2  0.393  10016      7  0.000  0.000  0.190  0.000   0.79  69.31   0.57      0  10016     67.9   0.00   0.00   1.25   4.00   4.00   4.00   4.00   4.00   4.00   4.00   1.20   0.00   0.00      0      0      0       0    2159
 1992 360   169   166   22.0      5   2.29   3456   4254   7217   6892  18002   3669  196.7  0.401  10291      7  0.000  0.000  0.195  0.000   0.75  70.13   0.57      0  10291     66.2   0.00   0.00   1.25   4.00   4.00   4.00   4.00   4.00   4.00   4.00   1.21   0.00   0.00      0      0      0       0    2194
 1992 361   170   167   22.0      5   2.23   3456   4333   7492   6897  18355   3669  204.2  0.408  10566      7  0.000  0.000  0.238  0.000   0.72  70.91   0.58      0  10566     64.5   0.00   0.00   1.25   4.00   4.00   4.00   4.00   4.00   4.00   4.00   1.22   0.00   0.00      0      0      0       0    2228
 1992 362   171   168   22.0      5   2.16   3456   4345   7768   6887  18643   3669  211.7  0.417  10841      7  0.000  0.000  0.285  0.000   0.69  71.65   0.58      0  10841     62.6   0.00   0.00   1.25   4.00   4.00   4.00   4.00   4.00   4.00   4.00   1.22   0.00   0.00      0      0      0       0    2263
 1992 363   172   169   22.0      5   2.10   3456   4345   8043   6871  18918   3669  219.2  0.425  11116      7  0.000  0.000  0.334  0.000   0.67  72.35   0.59      0  11116     60.7   0.00   0.00   1.25   4.00   4.00   4.00   4.00   4.00   4.00   3.99   1.22   0.00   0.00      0      0      0       0    2297
 1992 364   173   170   22.0      5   2.03   3456   4171   8318   6837  19019   3669  226.7  0.437  11391      7  0.000  0.000  0.369  0.000   0.66  73.02   0.60      0  11391     58.8   0.00   0.00   1.25   4.00   4.00   4.00   4.00   4.00   4.00   3.99   1.22   0.00   0.00      0      0      0       0    2331
 1992 365   174   171   22.0      5   1.96   3456   3990   8593   6803  19113   3669  234.2  0.450  11667      7  0.000  0.000  0.402  0.000   0.65  73.65   0.61      0  11667     56.8   0.00   0.00   1.25   4.00   4.00   4.00   4.00   4.00   4.00   3.99   1.22   0.00   0.00      0      0      0       0    2366
 1992 366   175   172   22.0      5   1.90   3456   3857   8819   6769  19206   3669  240.4  0.459  11893      7  0.000  0.000  0.405  0.000   0.65  74.16   0.62      0  11893     54.9   0.00   0.00   1.25   4.00   4.00   4.00   4.00   4.00   4.00   3.99   1.22   0.00   0.00      0      0      0       0    2400
 1993 001   176   173   22.0      5   1.83   3456   3674   9094   6735  19299   3669  247.9  0.471  12168      7  0.000  0.000  0.400  0.017   0.64  74.74   0.63      0  12168     53.1   0.00   0.00   1.25   4.00   4.00   4.00   4.00   4.00   4.00   3.99   1.22   0.00   0.00      0      0      0       0    2433
 1993 002   177   174   22.0      5   1.77   3456   3488   9369   6701  19387   3669  255.4  0.483  12443      7  0.000  0.000  0.416  0.180   0.63  75.30   0.64      0  12443     51.3   0.00   0.00   1.25   4.00   4.00   4.00   4.00   4.00   4.00   3.99   1.22   0.00   0.00      0      0      0       0    2467
 1993 003   178   175   22.0      5   1.77   3456   3488   9369   6701  19387   3669  255.4  0.483  12443      7  0.000  0.000  0.416  0.180   0.63  75.30   0.64      0  12443     51.3   0.00   0.00   1.25   4.00   4.00   4.00   4.00   4.00   4.00   3.99   1.22   0.00   0.00      0      0      0       0    2467
 1993 004   179   176   22.0      5   1.77   3456   3488   9369   6701  19387   3669  255.4  0.483  12443      7  0.000  0.000  0.416  0.180   0.63  75.30   0.64      0  12443     51.3   0.00   0.00   1.25   4.00   4.00   4.00   4.00   4.00   4.00   3.99   1.22   0.00   0.00      0      0      0       0    2467
 1993 005   180   177   22.0      5   1.77   3456   3488   9369   6701  19387   3669  255.4  0.483  12443      7  0.000  0.000  0.416  0.180   0.63  75.30   0.64      0  12443     51.3   0.00   0.00   1.25   4.00   4.00   4.00   4.00   4.00   4.00   3.99   1.22   0.00   0.00      0      0      0       0    2467
