*PLANT N OUTPUT FILE

*DSSAT Cropping System Model Ver. 4.0.2.000               Aug 12, 2016; 12:55:20

*RUN   1        : UYMZ                    
 MODEL          : MZCER040 - Maize           
 EXPERIMENT     : UYMZ0197 MZ    late to create DSS                             
 TREATMENT  1   : UYMZ                    

@YEAR DOY   DAS   DAP   CNAD   GNAD   VNAD   GN%D   VN%D   NUPC   LNAD   SNAD   LN%D   SN%D   RN%D   SNN0C   SNN1C
 2000 253     3     0    0.0    0.0    0.0   0.00   0.00    0.0    0.0    0.0    0.0   0.00   0.00    0.00    0.00
 2000 254     4     1    0.0    0.0    0.0   0.00   0.00    0.0    0.0    0.0    0.0   0.00   0.00    0.00    0.00
 2000 255     5     2    0.0    0.0    0.0   0.00   0.00    0.0    0.0    0.0    0.0   0.00   0.00    0.00    0.00
 2000 256     6     3    0.0    0.0    0.0   0.00   0.00    0.0    0.0    0.0    0.0   0.00   0.00    0.00    0.00
 2000 257     7     4    0.0    0.0    0.0   0.00   0.00    0.0    0.0    0.0    0.0   0.00   0.00    0.00    0.00
 2000 258     8     5    0.0    0.0    0.0   0.00   0.00    0.0    0.0    0.0    0.0   0.00   0.00    0.00    0.00
 2000 259     9     6    0.0    0.0    0.0   0.00   0.00    0.0    0.0    0.0    0.0   0.00   0.00    0.00    0.00
 2000 260    10     7    0.0    0.0    0.0   0.00   0.00    0.0    0.0    0.0    0.0   0.00   0.00    0.00    0.00
 2000 261    11     8    0.0    0.0    0.0   0.00   0.00    0.0    0.0    0.0    0.0   0.00   0.00    0.00    0.00
 2000 262    12     9    0.0    0.0    0.0   0.00   0.00    0.0    0.0    0.0    0.0   0.00   0.00    0.00    0.00
 2000 263    13    10    0.0    0.0    0.0   0.00   0.00    0.0    0.0    0.0    0.0   0.00   0.00    0.00    0.00
 2000 264    14    11    0.0    0.0    0.0   0.00   0.00    0.0    0.0    0.0    0.0   0.00   0.00    0.00    0.00
 2000 265    15    12    1.2    0.0    1.2   0.00   4.40    0.0    0.6    0.6    4.4   4.40   0.00    0.00    0.00
 2000 266    16    13    1.3    0.0    1.3   0.00   4.54    0.2    0.6    0.6    4.5   4.54   1.10    0.00    0.00
 2000 267    17    14    1.3    0.0    1.3   0.00   4.54    0.2    0.6    0.6    4.5   4.54   1.07    0.00    0.00
 2000 268    18    15    1.3    0.0    1.3   0.00   4.52    0.2    0.6    0.6    4.5   4.52   1.17    0.00    0.00
 2000 269    19    16    1.3    0.0    1.3   0.00   4.51    0.2    0.6    0.6    4.5   4.51   1.19    0.00    0.00
 2000 270    20    17    1.3    0.0    1.3   0.00   4.51    0.2    0.6    0.6    4.5   4.51   1.15    0.00    0.00
 2000 271    21    18    1.3    0.0    1.3   0.00   4.51    0.2    0.6    0.6    4.5   4.51   1.08    0.00    0.00
 2000 272    22    19    1.2    0.0    1.2   0.00   4.45    0.2    0.6    0.6    4.5   4.45   1.15    0.00    0.00
 2000 273    23    20    1.2    0.0    1.2   0.00   4.42    0.2    0.6    0.6    4.4   4.42   1.16    0.00    0.00
 2000 274    24    21    1.2    0.0    1.2   0.00   4.39    0.3    0.6    0.6    4.4   4.39   1.18    0.00    0.00
 2000 275    25    22    1.2    0.0    1.2   0.00   4.36    0.3    0.6    0.6    4.4   4.36   1.19    0.00    0.01
 2000 276    26    23    1.2    0.0    1.2   0.00   4.34    0.3    0.6    0.6    4.3   4.34   1.15    0.00    0.01
 2000 277    27    24    1.2    0.0    1.2   0.00   4.25    0.3    0.6    0.6    4.3   4.25   1.19    0.00    0.01
 2000 278    28    25    1.2    0.0    1.2   0.00   3.85    0.5    0.7    0.5    3.8   3.85   1.25    0.00    0.01
 2000 279    29    26    1.4    0.0    1.4   0.00   3.86    0.7    0.8    0.5    3.9   3.86   1.32    0.00    0.01
 2000 280    30    27    1.5    0.0    1.5   0.00   3.89    1.0    1.0    0.5    3.9   3.89   1.32    0.00    0.02
 2000 281    31    28    1.6    0.0    1.6   0.00   3.70    1.3    1.1    0.5    3.7   3.70   1.26    0.00    0.02
 2000 282    32    29    1.9    0.0    1.9   0.00   3.58    1.7    1.4    0.5    3.6   3.58   1.25    0.00    0.02
 2000 283    33    30    2.2    0.0    2.2   0.00   3.74    1.9    1.7    0.5    3.7   3.74   1.11    0.00    0.03
 2000 284    34    31    2.4    0.0    2.4   0.00   3.78    2.6    1.9    0.5    3.8   3.78   1.29    0.00    0.03
 2000 285    35    32    2.7    0.0    2.7   0.00   3.74    3.1    2.2    0.5    3.7   3.74   1.27    0.00    0.04
 2000 286    36    33    3.0    0.0    3.0   0.00   3.32    3.6    2.5    0.5    3.3   3.32   1.20    0.00    0.05
 2000 287    37    34    3.7    0.0    3.7   0.00   3.58    4.7    3.2    0.5    3.6   3.58   1.23    0.00    0.06
 2000 288    38    35    4.2    0.0    4.2   0.00   3.62    5.0    3.7    0.5    3.6   3.62   1.10    0.00    0.07
 2000 289    39    36    4.8    0.0    4.8   0.00   3.65    5.7    4.3    0.5    3.6   3.65   1.11    0.00    0.08
 2000 290    40    37    5.3    0.0    5.3   0.00   3.50    6.4    4.8    0.5    3.5   3.50   1.13    0.00    0.09
 2000 291    41    38    6.1    0.0    6.1   0.00   3.48    7.3    5.6    0.5    3.5   3.48   1.13    0.00    0.10
 2000 292    42    39    7.0    0.0    7.0   0.00   3.45    8.2    6.5    0.5    3.5   3.45   1.09    0.00    0.11
 2000 293    43    40    8.0    0.0    8.0   0.00   3.53    9.7    7.5    0.5    3.5   3.53   1.17    0.00    0.13
 2000 294    44    41    8.9    0.0    8.9   0.00   3.39   10.5    8.5    0.5    3.4   3.39   1.09    0.00    0.14
 2000 295    45    42   10.3    0.0   10.3   0.00   3.37   12.8    9.8    0.5    3.4   3.37   1.24    0.00    0.16
 2000 296    46    43   11.9    0.0   11.9   0.00   3.86   14.5   11.3    0.5    3.9   3.86   1.16    0.00    0.17
 2000 297    47    44   12.0    0.0   12.0   0.00   3.59   14.7   11.5    0.5    3.6   3.59   1.12    0.00    0.19
 2000 298    48    45   12.8    0.0   12.8   0.00   3.47   15.5   12.3    0.5    3.5   3.47   1.11    0.00    0.21
 2000 299    49    46   15.0    0.0   15.0   0.00   3.78   18.6   14.5    0.5    3.8   3.78   1.19    0.00    0.23
 2000 300    50    47   15.8    0.0   15.8   0.00   3.68   19.7   15.2    0.5    3.7   3.68   1.16    0.00    0.26
 2000 301    51    48   17.0    0.0   17.0   0.00   3.57   22.9   16.5    0.5    3.6   3.57   1.28    0.00    0.28
 2000 302    52    49   18.2    0.0   18.2   0.00   3.54   25.5   17.6    0.5    3.5   3.54   1.27    0.00    0.32
 2000 303    53    50   19.1    0.0   19.1   0.00   3.55   28.0   18.5    0.5    3.5   3.55   1.28    0.00    0.36
 2000 304    54    51   20.9    0.0   20.9   0.00   3.50   30.9   20.3    0.6    3.5   3.50   1.22    0.00    0.41
 2000 305    55    52   23.2    0.0   23.2   0.00   3.46   34.3   22.5    0.7    3.5   3.46   1.19    0.00    0.47
 2000 306    56    53   26.1    0.0   26.1   0.00   3.43   36.0   25.2    0.9    3.4   3.43   1.07    0.00    0.53
 2000 307    57    54   28.7    0.0   28.7   0.00   3.40   40.5   27.6    1.0    3.4   3.40   1.16    0.00    0.58
 2000 308    58    55   30.8    0.0   30.8   0.00   3.37   45.2   29.6    1.2    3.4   3.37   1.21    0.00    0.65
 2000 309    59    56   33.0    0.0   33.0   0.00   3.35   47.6   31.5    1.5    3.3   3.35   1.14    0.00    0.73
 2000 310    60    57   35.5    0.0   35.5   0.00   3.32   52.6   33.7    1.8    3.3   3.32   1.19    0.00    0.80
 2000 311    61    58   38.6    0.0   38.6   0.00   3.29   56.8   36.3    2.3    3.3   3.29   1.16    0.00    0.90
 2000 312    62    59   41.9    0.0   41.9   0.00   3.25   59.2   39.0    2.9    3.3   3.25   1.09    0.00    0.99
 2000 313    63    60   45.7    0.0   45.7   0.00   3.22   63.9   42.1    3.7    3.2   3.22   1.10    0.00    1.08
 2000 314    64    61   48.9    0.0   48.9   0.00   3.19   66.7   44.5    4.4    3.2   3.19   1.07    0.00    1.18
 2000 315    65    62   52.3    0.0   52.3   0.00   3.16   73.0   47.0    5.3    3.2   3.16   1.15    0.00    1.28
 2000 316    66    63   56.2    0.0   56.2   0.00   3.12   77.8   49.7    6.5    3.1   3.12   1.13    0.00    1.38
 2000 317    67    64   60.7    0.0   60.7   0.00   3.08   83.2   52.7    7.9    3.1   3.08   1.12    0.00    1.50
 2000 318    68    65   63.8    0.0   63.8   0.00   3.06   87.6   54.7    9.0    3.1   3.06   1.12    0.00    1.62
 2000 319    69    66   65.6    0.0   65.6   0.00   3.07   92.0   56.0    9.6    3.1   3.07   1.17    0.00    1.74
 2000 320    70    67   66.9    0.0   66.9   0.00   3.06   94.5   56.9   10.1    3.1   3.06   1.16    0.00    1.88
 2000 321    71    68   68.8    0.0   68.8   0.00   3.02   98.6   57.9   10.9    3.0   3.02   1.15    0.00    2.02
 2000 322    72    69   71.6    0.0   71.6   0.00   2.96  102.9   59.4   12.2    3.0   2.96   1.13    0.00    2.18
 2000 323    73    70   76.7    0.0   76.7   0.00   2.97  110.4   62.5   14.2    3.0   2.97   1.14    0.00    2.34
 2000 324    74    71   82.1    0.0   82.1   0.00   2.94  116.9   65.4   16.6    2.9   2.94   1.12    0.00    2.51
 2000 325    75    72   85.3    0.0   85.3   0.00   2.91  123.3   67.1   18.2    2.9   2.91   1.14    0.00    2.69
 2000 326    76    73   89.4    0.0   89.4   0.00   2.89  129.2   69.2   20.2    2.9   2.89   1.13    0.00    2.88
 2000 327    77    74   95.5    0.0   95.5   0.00   2.86  135.0   72.1   23.4    2.9   2.86   1.10    0.00    3.09
 2000 328    78    75  103.2    0.0  103.2   0.00   2.82  143.3   75.6   27.7    2.8   2.82   1.09    0.00    3.29
 2000 329    79    76  107.3    0.0  107.3   0.00   2.79  147.8   77.3   30.1    2.8   2.79   1.09    0.00    3.49
 2000 330    80    77  111.3    0.0  111.3   0.00   2.77  155.2   78.9   32.4    2.8   2.77   1.12    0.00    3.70
 2000 331    81    78  117.6    0.0  117.6   0.00   2.74  162.7   81.4   36.2    2.7   2.74   1.11    0.00    3.93
 2000 332    82    79  122.2    0.0  122.2   0.00   2.71  165.5   84.5   37.7    2.7   2.71   1.07    0.00    4.16
 2000 333    83    80  125.2    0.0  125.2   0.00   2.68  168.3   85.8   39.3    2.7   2.68   1.07    0.00    4.38
 2000 334    84    81  130.9    0.0  130.9   0.00   2.66  174.3   88.2   42.7    2.7   2.66   1.07    0.00    4.60
 2000 335    85    82  135.9    0.0  135.9   0.00   2.64  183.0   90.1   45.9    2.6   2.64   1.11    0.00    4.82
 2000 336    86    83  140.6    0.0  140.6   0.00   2.62  188.6   91.6   49.0    2.6   2.62   1.10    0.00    5.06
 2000 337    87    84  142.9    0.0  142.9   0.00   2.53  191.7   91.0   51.9    2.5   2.53   1.08    0.00    5.30
 2000 338    88    85  144.7    0.0  144.7   0.00   2.44  193.5   90.1   54.6    2.4   2.44   1.08    0.00    5.55
 2000 339    89    86  147.3    0.0  147.3   0.00   2.39  196.0   90.0   57.3    2.4   2.39   1.08    0.00    5.79
 2000 340    90    87  149.3    0.0  149.3   0.00   2.34  198.5   89.7   59.6    2.3   2.34   1.05    0.00    6.04
 2000 341    91    88  151.6    0.0  151.6   0.00   2.28  201.3   89.1   62.5    2.3   2.28   1.04    0.00    6.29
 2000 342    92    89  153.8    0.0  153.8   0.00   2.19  203.7   88.1   65.7    2.2   2.19   1.03    0.00    6.54
 2000 343    93    90  155.8    0.0  155.8   0.00   2.12  206.0   87.0   68.8    2.1   2.12   1.03    0.00    6.79
 2000 344    94    91  157.6    0.0  157.6   0.00   2.04  208.0   85.7   71.9    2.0   2.04   1.02    0.00    7.05
 2000 345    95    92  159.2    0.0  159.2   0.00   1.98  209.8   84.8   74.4    2.0   1.98   1.01    0.00    7.30
 2000 346    96    93  160.7    0.0  160.7   0.00   1.92  211.5   84.0   76.7    1.9   1.92   1.01    0.00    7.56
 2000 347    97    94  162.0    0.0  162.0   0.00   1.86  213.0   83.0   79.0    1.9   1.86   1.01    0.00    7.81
 2000 348    98    95  163.2    0.0  163.2   0.00   1.80  214.3   81.8   81.3    1.8   1.80   1.00    0.00    8.07
 2000 349    99    96  164.2    0.0  164.2   0.00   1.96  215.4   88.4   75.7    2.0   1.96   0.99    0.00    8.33
 2000 350   100    97  165.2    0.0  165.2   0.00   1.97  216.7   87.7   77.5    2.0   1.97   0.98    0.00    8.59
 2000 351   101    98  166.0    0.0  166.0   0.00   1.98  218.0   87.2   78.8    2.0   1.98   0.95    0.00    8.85
 2000 352   102    99  167.1    0.0  167.1   0.00   1.99  219.7   86.7   80.3    2.0   1.99   0.93    0.00    9.11
 2000 353   103   100  168.1    0.0  168.1   0.00   2.00  221.7   86.0   82.2    2.0   2.00   0.92    0.00    9.37
 2000 354   104   101  168.8    0.0  168.8   0.00   2.01  223.2   85.1   83.7    2.0   2.01   0.91    0.00    9.64
 2000 355   105   102  169.4    0.0  169.4   0.00   2.01  224.7   84.1   85.3    2.0   2.01   0.91    0.00    9.91
 2000 356   106   103  169.8    0.0  169.8   0.00   2.02  226.1   83.1   86.7    2.0   2.02   0.93    0.00   10.19
 2000 357   107   104  170.0    0.0  170.0   0.00   2.01  227.5   81.7   88.3    2.0   2.01   0.93    0.00   10.47
 2000 358   108   105  169.7    0.0  169.7   0.00   2.01  228.8   80.3   89.4    2.0   2.01   0.96    0.00   10.76
 2000 359   109   106  169.1    0.0  169.1   0.00   2.01  230.0   78.7   90.4    2.0   2.01   0.96    0.00   11.06
 2000 360   110   107  168.1    0.0  168.1   0.00   1.99  231.2   76.5   91.6    2.0   1.99   0.98    0.00   11.36
 2000 361   111   108  164.8    0.0  164.8   0.00   1.94  232.4   73.1   91.6    1.9   1.94   1.04    0.00   11.68
 2000 362   112   109  164.8    5.4  159.3   1.70   1.91  232.4   71.8   87.5    1.9   1.91   1.05    0.00   11.68
 2000 363   113   110  165.3   10.2  155.1   1.70   1.85  233.7   69.7   85.3    1.9   1.85   1.06    0.00   12.02
 2000 364   114   111  166.3   14.6  151.7   1.70   1.80  234.8   67.9   83.8    1.8   1.80   1.06    0.00   12.36
 2000 365   115   112  167.3   19.0  148.2   1.70   1.75  236.0   65.8   82.4    1.7   1.75   1.06    0.00   12.70
 2000 366   116   113  168.6   24.5  144.1   1.70   1.70  237.6   64.0   80.2    1.7   1.70   1.06    0.00   13.05
 2001 001   117   114  169.6   29.9  139.7   1.70   1.65  238.7   62.0   77.7    1.6   1.65   1.05    0.00   13.39
 2001 002   118   115  170.5   35.3  135.2   1.70   1.59  239.8   60.0   75.2    1.6   1.59   1.04    0.00   13.74
 2001 003   119   116  171.4   40.7  130.8   1.69   1.54  240.9   58.0   72.7    1.5   1.54   1.04    0.00   14.08
 2001 004   120   117  172.4   46.1  126.3   1.69   1.49  242.0   56.0   70.2    1.5   1.49   1.04    0.00   14.43
 2001 005   121   118  173.2   51.4  121.8   1.69   1.43  242.9   54.1   67.7    1.4   1.43   1.04    0.00   14.77
 2001 006   122   119  174.3   56.7  117.6   1.69   1.39  244.2   52.2   65.4    1.4   1.39   1.04    0.00   15.12
 2001 007   123   120  175.0   61.7  113.3   1.68   1.35  245.1   50.9   62.5    1.3   1.35   1.04    0.00   15.47
 2001 008   124   121  175.9   66.6  109.3   1.67   1.30  246.0   48.8   60.5    1.3   1.30   1.05    0.00   15.82
 2001 009   125   122  176.7   71.5  105.2   1.65   1.24  246.9   46.7   58.5    1.2   1.24   1.05    0.00   16.17
 2001 010   126   123  177.4   75.0  102.4   1.65   1.22  247.7   45.8   56.6    1.2   1.22   1.05    0.00   16.52
 2001 011   127   124  178.2   77.8  100.3   1.64   1.18  248.6   44.5   55.8    1.2   1.18   1.04    0.00   16.87
 2001 012   128   125  179.2   80.3   98.9   1.63   1.17  249.8   43.9   55.0    1.2   1.17   1.03    0.00   17.22
 2001 013   129   126  180.1   84.0   96.1   1.62   1.13  250.8   42.6   53.4    1.1   1.13   1.03    0.00   17.57
 2001 014   130   127  180.9   88.5   92.4   1.61   1.09  251.7   41.0   51.4    1.1   1.09   1.04    0.00   17.92
 2001 015   131   128  181.6   92.9   88.8   1.59   1.05  252.5   39.4   49.4    1.0   1.05   1.04    0.00   18.27
 2001 016   132   129  182.6   97.1   85.5   1.58   1.01  253.6   38.0   47.6    1.0   1.01   1.04    0.00   18.62
 2001 017   133   130  183.4  101.2   82.2   1.56   0.98  254.5   36.7   45.5    1.0   0.98   1.05    0.00   18.97
 2001 018   134   131  184.3  105.2   79.1   1.55   0.95  255.4   35.8   43.3    0.9   0.95   1.05    0.00   19.32
 2001 019   135   132  185.3  109.0   76.3   1.53   0.92  256.4   34.7   41.5    0.9   0.92   1.06    0.00   19.68
 2001 020   136   133  186.3  112.0   74.2   1.52   0.88  257.5   33.3   40.9    0.9   0.88   1.05    0.00   20.03
 2001 021   137   134  187.5  114.9   72.6   1.51   0.86  258.8   32.2   40.4    0.9   0.86   1.05    0.00   20.38
 2001 022   138   135  188.4  118.2   70.2   1.50   0.83  259.7   31.4   38.8    0.8   0.83   1.05    0.00   20.73
 2001 023   139   136  189.3  121.7   67.6   1.48   0.80  260.7   30.0   37.6    0.8   0.80   1.05    0.00   21.08
 2001 024   140   137  190.2  125.1   65.1   1.47   0.77  261.7   28.9   36.2    0.8   0.77   1.05    0.00   21.44
 2001 025   141   138  191.1  128.5   62.7   1.45   0.74  262.7   27.8   34.9    0.7   0.74   1.05    0.00   21.79
 2001 026   142   139  192.1  131.7   60.4   1.44   0.71  263.7   26.8   33.6    0.7   0.71   1.06    0.00   22.14
 2001 027   143   140  193.0  134.7   58.3   1.42   0.70  264.6   26.4   31.8    0.7   0.70   1.06    0.00   22.50
 2001 028   144   141  193.8  137.1   56.7   1.41   0.69  265.4   26.2   30.5    0.7   0.69   1.07    0.00   22.85
 2001 029   145   142  194.7  139.3   55.4   1.39   0.67  266.4   25.4   30.0    0.7   0.67   1.07    0.00   23.20
 2001 030   146   143  196.0  141.9   54.1   1.38   0.65  267.7   24.7   29.4    0.7   0.65   1.07    0.00   23.55
 2001 031   147   144  196.8  144.7   52.1   1.37   0.63  268.5   23.8   28.3    0.6   0.63   1.08    0.00   23.91
 2001 032   148   145  197.8  147.4   50.3   1.35   0.62  269.5   23.3   27.1    0.6   0.62   1.08    0.00   24.26
 2001 033   149   146  197.8  147.4   50.3   1.35   0.62  270.4   23.3   27.1    0.6   0.62   1.08    0.00   24.26
 2001 034   150   147  197.8  147.4   50.3   1.35   0.62  271.3   23.3   27.1    0.6   0.62   1.08    0.00   24.26
 2001 035   151   148  197.8  147.4   50.3   1.35   0.62  272.2   23.3   27.1    0.6   0.62   1.08    0.00   24.26
 2001 036   152   149  197.8  147.4   50.3   1.35   0.62  273.2   23.3   27.1    0.6   0.62   1.08    0.00   24.26

*DSSAT Cropping System Model Ver. 4.0.2.000               Aug 12, 2016; 12:55:20

*RUN   2        : UYMZ                    
 MODEL          : MZCER040 - Maize           
 EXPERIMENT     : UYMZ0197 MZ    late to create DSS                             
 TREATMENT  1   : UYMZ                    

@YEAR DOY   DAS   DAP   CNAD   GNAD   VNAD   GN%D   VN%D   NUPC   LNAD   SNAD   LN%D   SN%D   RN%D   SNN0C   SNN1C
 2001 253     3     0    0.0    0.0    0.0   0.00   0.00    0.0    0.0    0.0    0.0   0.00   0.00    0.00    0.00
 2001 254     4     1    0.0    0.0    0.0   0.00   0.00    0.0    0.0    0.0    0.0   0.00   0.00    0.00    0.00
 2001 255     5     2    0.0    0.0    0.0   0.00   0.00    0.0    0.0    0.0    0.0   0.00   0.00    0.00    0.00
 2001 256     6     3    0.0    0.0    0.0   0.00   0.00    0.0    0.0    0.0    0.0   0.00   0.00    0.00    0.00
 2001 257     7     4    0.0    0.0    0.0   0.00   0.00    0.0    0.0    0.0    0.0   0.00   0.00    0.00    0.00
 2001 258     8     5    0.0    0.0    0.0   0.00   0.00    0.0    0.0    0.0    0.0   0.00   0.00    0.00    0.00
 2001 259     9     6    0.0    0.0    0.0   0.00   0.00    0.0    0.0    0.0    0.0   0.00   0.00    0.00    0.00
 2001 260    10     7    0.0    0.0    0.0   0.00   0.00    0.0    0.0    0.0    0.0   0.00   0.00    0.00    0.00
 2001 261    11     8    0.0    0.0    0.0   0.00   0.00    0.0    0.0    0.0    0.0   0.00   0.00    0.00    0.00
 2001 262    12     9    0.0    0.0    0.0   0.00   0.00    0.0    0.0    0.0    0.0   0.00   0.00    0.00    0.00
 2001 263    13    10    0.0    0.0    0.0   0.00   0.00    0.0    0.0    0.0    0.0   0.00   0.00    0.00    0.00
 2001 264    14    11    1.2    0.0    1.2   0.00   4.40    0.0    0.6    0.6    4.4   4.40   0.00    0.00    0.00
 2001 265    15    12    1.3    0.0    1.3   0.00   4.53    0.2    0.6    0.6    4.5   4.53   1.10    0.00    0.00
 2001 266    16    13    1.3    0.0    1.3   0.00   4.50    0.2    0.6    0.6    4.5   4.50   1.12    0.00    0.00
 2001 267    17    14    1.3    0.0    1.3   0.00   4.47    0.2    0.6    0.6    4.5   4.47   1.13    0.00    0.00
 2001 268    18    15    1.2    0.0    1.2   0.00   4.45    0.2    0.6    0.6    4.4   4.45   1.11    0.00    0.00
 2001 269    19    16    1.2    0.0    1.2   0.00   4.43    0.2    0.6    0.6    4.4   4.43   1.15    0.00    0.00
 2001 270    20    17    1.2    0.0    1.2   0.00   4.42    0.2    0.6    0.6    4.4   4.42   1.14    0.00    0.00
 2001 271    21    18    1.2    0.0    1.2   0.00   4.40    0.2    0.6    0.6    4.4   4.40   1.13    0.00    0.01
 2001 272    22    19    1.2    0.0    1.2   0.00   4.37    0.3    0.6    0.6    4.4   4.37   1.20    0.00    0.01
 2001 273    23    20    1.2    0.0    1.2   0.00   4.35    0.3    0.6    0.6    4.3   4.35   1.16    0.00    0.01
 2001 274    24    21    1.2    0.0    1.2   0.00   4.08    0.3    0.6    0.6    4.1   4.08   1.14    0.00    0.01
 2001 275    25    22    1.3    0.0    1.3   0.00   3.94    0.4    0.7    0.6    3.9   3.94   1.15    0.00    0.01
 2001 276    26    23    1.4    0.0    1.4   0.00   3.84    0.5    0.8    0.5    3.8   3.84   1.14    0.00    0.01
 2001 277    27    24    1.5    0.0    1.5   0.00   3.72    0.7    1.0    0.5    3.7   3.72   1.22    0.00    0.01
 2001 278    28    25    1.7    0.0    1.7   0.00   3.66    1.1    1.2    0.5    3.7   3.66   1.30    0.00    0.02
 2001 279    29    26    2.0    0.0    2.0   0.00   3.62    1.5    1.5    0.5    3.6   3.62   1.26    0.00    0.02
 2001 280    30    27    2.3    0.0    2.3   0.00   3.75    1.8    1.8    0.5    3.7   3.75   1.13    0.00    0.02
 2001 281    31    28    2.6    0.0    2.6   0.00   3.69    2.2    2.1    0.5    3.7   3.69   1.20    0.00    0.03
 2001 282    32    29    2.9    0.0    2.9   0.00   3.74    2.6    2.4    0.5    3.7   3.74   1.22    0.00    0.03
 2001 283    33    30    3.2    0.0    3.2   0.00   3.55    3.4    2.7    0.5    3.5   3.55   1.32    0.00    0.04
 2001 284    34    31    3.7    0.0    3.7   0.00   3.51    4.3    3.2    0.5    3.5   3.51   1.31    0.00    0.04
 2001 285    35    32    4.3    0.0    4.3   0.00   3.58    4.9    3.8    0.5    3.6   3.58   1.18    0.00    0.05
 2001 286    36    33    4.9    0.0    4.9   0.00   3.52    5.9    4.4    0.5    3.5   3.52   1.25    0.00    0.06
 2001 287    37    34    5.6    0.0    5.6   0.00   3.44    7.0    5.1    0.5    3.4   3.44   1.23    0.00    0.07
 2001 288    38    35    6.5    0.0    6.5   0.00   3.50    7.7    6.1    0.5    3.5   3.50   1.10    0.00    0.08
 2001 289    39    36    7.4    0.0    7.4   0.00   3.44    8.8    7.0    0.5    3.4   3.44   1.12    0.00    0.10
 2001 290    40    37    8.5    0.0    8.5   0.00   3.64   10.6    8.0    0.5    3.6   3.64   1.22    0.00    0.11
 2001 291    41    38    9.2    0.0    9.2   0.00   3.44   11.5    8.7    0.5    3.4   3.44   1.18    0.00    0.13
 2001 292    42    39   10.4    0.0   10.4   0.00   3.52   13.6    9.9    0.5    3.5   3.52   1.24    0.00    0.14
 2001 293    43    40   11.5    0.0   11.5   0.00   3.26   15.1   11.1    0.5    3.3   3.26   1.19    0.00    0.17
 2001 294    44    41   13.5    0.0   13.5   0.00   3.49   18.4   13.0    0.5    3.5   3.49   1.25    0.00    0.19
 2001 295    45    42   15.8    0.0   15.8   0.00   3.78   22.2   15.3    0.5    3.8   3.78   1.26    0.00    0.22
 2001 296    46    43   16.9    0.0   16.9   0.00   3.68   24.4   16.4    0.5    3.7   3.68   1.23    0.00    0.26
 2001 297    47    44   18.6    0.0   18.6   0.00   3.57   27.0   18.1    0.5    3.6   3.57   1.20    0.00    0.30
 2001 298    48    45   21.4    0.0   21.4   0.00   3.52   30.8   20.8    0.6    3.5   3.52   1.19    0.00    0.35
 2001 299    49    46   23.8    0.0   23.8   0.00   3.48   32.4   23.2    0.6    3.5   3.48   1.08    0.00    0.40
 2001 300    50    47   26.7    0.0   26.7   0.00   3.44   35.2   25.9    0.8    3.4   3.44   1.07    0.00    0.45
 2001 301    51    48   28.0    0.0   28.0   0.00   3.40   37.0   27.2    0.8    3.4   3.40   1.10    0.00    0.50
 2001 302    52    49   29.4    0.0   29.4   0.00   3.36   38.8   28.5    1.0    3.4   3.36   1.10    0.00    0.55
 2001 303    53    50   31.5    0.0   31.5   0.00   3.33   43.7   30.3    1.2    3.3   3.33   1.22    0.00    0.60
 2001 304    54    51   33.9    0.0   33.9   0.00   3.30   48.0   32.4    1.5    3.3   3.30   1.21    0.00    0.67
 2001 305    55    52   36.5    0.0   36.5   0.00   3.28   52.4   34.6    1.9    3.3   3.28   1.20    0.00    0.75
 2001 306    56    53   38.8    0.0   38.8   0.00   3.25   55.9   36.5    2.3    3.3   3.25   1.17    0.00    0.83
 2001 307    57    54   41.2    0.0   41.2   0.00   3.22   60.5   38.4    2.7    3.2   3.22   1.18    0.00    0.92
 2001 308    58    55   43.8    0.0   43.8   0.00   3.19   64.9   40.5    3.3    3.2   3.19   1.16    0.00    1.03
 2001 309    59    56   47.6    0.0   47.6   0.00   3.15   69.8   43.4    4.2    3.2   3.15   1.14    0.00    1.14
 2001 310    60    57   52.2    0.0   52.2   0.00   3.13   73.2   46.8    5.4    3.1   3.13   1.08    0.00    1.25
 2001 311    61    58   54.9    0.0   54.9   0.00   3.10   76.0   48.6    6.2    3.1   3.10   1.08    0.00    1.36
 2001 312    62    59   57.6    0.0   57.6   0.00   3.06   80.6   50.5    7.2    3.1   3.06   1.11    0.00    1.47
 2001 313    63    60   60.0    0.0   60.0   0.00   3.02   84.2   51.9    8.1    3.0   3.02   1.11    0.00    1.59
 2001 314    64    61   63.0    0.0   63.0   0.00   2.97   86.8   53.7    9.3    3.0   2.97   1.08    0.00    1.72
 2001 315    65    62   64.6    0.0   64.6   0.00   2.86   89.9   54.2   10.4    2.9   2.86   1.06    0.00    1.85
 2001 316    66    63   66.6    0.0   66.6   0.00   2.72   92.7   54.6   12.0    2.7   2.72   1.03    0.00    1.98
 2001 317    67    64   68.8    0.0   68.8   0.00   2.63   95.2   55.4   13.5    2.6   2.63   1.04    0.00    2.11
 2001 318    68    65   70.6    0.0   70.6   0.00   2.49   97.2   55.5   15.1    2.5   2.49   1.03    0.00    2.25
 2001 319    69    66   72.0    0.0   72.0   0.00   2.38   99.0   55.4   16.6    2.4   2.38   0.98    0.00    2.39
 2001 320    70    67   73.1    0.0   73.1   0.00   2.31  100.6   55.5   17.6    2.3   2.31   0.94    0.00    2.53
 2001 321    71    68   74.1    0.0   74.1   0.00   2.24  101.9   55.4   18.7    2.2   2.24   0.90    0.00    2.67
 2001 322    72    69   74.9    0.0   74.9   0.00   2.12  103.1   54.7   20.2    2.1   2.12   0.87    0.00    2.81
 2001 323    73    70  105.0    0.0  105.0   0.00   2.75  141.1   74.6   30.4    2.7   2.75   1.09    0.00    2.96
 2001 324    74    71  117.0    0.0  117.0   0.00   2.71  153.0   80.2   36.8    2.7   2.71   1.08    0.00    3.15
 2001 325    75    72  121.9    0.0  121.9   0.00   2.67  157.7   81.8   40.1    2.7   2.67   1.07    0.00    3.33
 2001 326    76    73  130.5    0.0  130.5   0.00   2.63  166.6   84.4   46.0    2.6   2.63   1.08    0.00    3.51
 2001 327    77    74  137.7    0.0  137.7   0.00   2.56  174.4   85.7   52.0    2.6   2.56   1.08    0.00    3.70
 2001 328    78    75  139.7    0.0  139.7   0.00   2.52  176.2   85.8   54.0    2.5   2.52   1.08    0.00    3.89
 2001 329    79    76  141.2    0.0  141.2   0.00   2.48  178.0   85.5   55.7    2.5   2.48   1.07    0.00    4.07
 2001 330    80    77  142.3    0.0  142.3   0.00   2.43  179.1   85.0   57.3    2.4   2.43   1.07    0.00    4.26
 2001 331    81    78  143.4    0.0  143.4   0.00   2.35  180.6   83.9   59.6    2.4   2.35   1.03    0.00    4.45
 2001 332    82    79  144.8    0.0  144.8   0.00   2.30  182.5   83.2   61.6    2.3   2.30   1.00    0.00    4.64
 2001 333    83    80  146.0    0.0  146.0   0.00   2.25  184.3   82.6   63.5    2.2   2.25   0.98    0.00    4.83
 2001 334    84    81  147.3    0.0  147.3   0.00   2.22  185.8   82.4   64.9    2.2   2.22   0.98    0.00    5.03
 2001 335    85    82  148.4    0.0  148.4   0.00   2.17  187.3   81.5   66.8    2.2   2.17   0.95    0.00    5.22
 2001 336    86    83  149.5    0.0  149.5   0.00   2.11  189.0   80.7   68.8    2.1   2.11   0.93    0.00    5.42
 2001 337    87    84  150.8    0.0  150.8   0.00   2.07  190.5   80.3   70.5    2.1   2.07   0.94    0.00    5.62
 2001 338    88    85  151.8    0.0  151.8   0.00   2.04  191.8   79.8   72.0    2.0   2.04   0.95    0.00    5.82
 2001 339    89    86  152.7    0.0  152.7   0.00   1.99  192.9   79.0   73.8    2.0   1.99   0.95    0.00    6.03
 2001 340    90    87  153.7    0.0  153.7   0.00   1.94  194.1   78.2   75.5    1.9   1.94   0.94    0.00    6.23
 2001 341    91    88  154.6    0.0  154.6   0.00   1.88  195.2   77.3   77.2    1.9   1.88   0.92    0.00    6.44
 2001 342    92    89  155.3    0.0  155.3   0.00   1.86  196.2   77.0   78.3    1.9   1.86   0.89    0.00    6.64
 2001 343    93    90  156.0    0.0  156.0   0.00   1.84  197.2   76.9   79.2    1.8   1.84   0.86    0.00    6.85
 2001 344    94    91  156.7    0.0  156.7   0.00   1.81  198.1   76.4   80.3    1.8   1.81   0.84    0.00    7.06
 2001 345    95    92  157.4    0.0  157.4   0.00   1.98  199.0   82.9   74.5    2.0   1.98   0.82    0.00    7.27
 2001 346    96    93  157.9    0.0  157.9   0.00   1.98  199.9   81.9   76.0    2.0   1.98   0.82    0.00    7.48
 2001 347    97    94  158.4    0.0  158.4   0.00   1.98  200.7   80.8   77.6    2.0   1.98   0.83    0.00    7.69
 2001 348    98    95  158.8    0.0  158.8   0.00   1.97  201.6   79.7   79.2    2.0   1.97   0.83    0.00    7.90
 2001 349    99    96  159.4    0.0  159.4   0.00   1.98  203.0   78.7   80.7    2.0   1.98   0.83    0.00    8.12
 2001 350   100    97  160.0    0.0  160.0   0.00   1.98  204.5   77.7   82.2    2.0   1.98   0.83    0.00    8.34
 2001 351   101    98  160.3    0.0  160.3   0.00   1.98  205.9   76.6   83.8    2.0   1.98   0.82    0.00    8.57
 2001 352   102    99  160.6    0.0  160.6   0.00   1.98  207.3   75.3   85.2    2.0   1.98   0.82    0.00    8.80
 2001 353   103   100  160.7    0.0  160.7   0.00   1.98  208.6   73.9   86.8    2.0   1.98   0.84    0.00    9.03
 2001 354   104   101  160.5    0.0  160.5   0.00   1.97  209.8   72.3   88.2    2.0   1.97   0.87    0.00    9.27
 2001 355   105   102  159.5    0.0  159.5   0.00   1.96  210.9   70.6   88.8    2.0   1.96   0.91    0.00    9.52
 2001 356   106   103  158.6    0.0  158.6   0.00   1.95  211.9   68.8   89.7    2.0   1.95   0.92    0.00    9.78
 2001 357   107   104  156.6    0.0  156.6   0.00   1.93  213.3   66.6   90.0    1.9   1.93   0.95    0.00   10.05
 2001 358   108   105  156.5    4.0  152.5   1.70   1.88  214.5   64.9   87.6    1.9   1.88   0.96    0.00   10.33
 2001 359   109   106  156.9    8.3  148.6   1.70   1.83  215.7   63.2   85.4    1.8   1.83   0.96    0.00   10.62
 2001 360   110   107  157.3   13.2  144.2   1.70   1.78  216.8   61.3   82.8    1.8   1.78   0.96    0.00   10.92
 2001 361   111   108  157.9   18.1  139.8   1.70   1.73  218.0   59.5   80.3    1.7   1.73   0.96    0.00   11.22
 2001 362   112   109  158.5   23.0  135.5   1.70   1.67  219.1   57.6   77.8    1.7   1.67   0.97    0.00   11.52
 2001 363   113   110  159.1   27.9  131.2   1.70   1.62  220.3   55.8   75.4    1.6   1.62   0.97    0.00   11.82
 2001 364   114   111  159.8   32.8  127.0   1.70   1.57  221.4   54.0   73.0    1.6   1.57   0.97    0.00   12.13
 2001 365   115   112  160.4   37.7  122.7   1.70   1.51  222.3   52.2   70.5    1.5   1.51   0.98    0.00   12.43
 2002 001   116   113  161.2   42.5  118.8   1.69   1.47  223.6   50.5   68.3    1.5   1.47   0.97    0.00   12.74
 2002 002   117   114  161.9   47.1  114.8   1.69   1.42  224.5   48.8   65.9    1.4   1.42   0.97    0.00   13.06
 2002 003   118   115  162.7   51.6  111.1   1.68   1.37  225.6   47.3   63.8    1.4   1.37   0.97    0.00   13.37
 2002 004   119   116  163.3   55.9  107.4   1.67   1.33  226.5   45.7   61.7    1.3   1.33   0.97    0.00   13.68
 2002 005   120   117  164.0   59.5  104.5   1.66   1.30  227.4   44.8   59.7    1.3   1.30   0.98    0.00   14.00
 2002 006   121   118  164.5   63.4  101.1   1.65   1.25  228.2   43.1   58.0    1.3   1.25   0.98    0.00   14.31
 2002 007   122   119  165.0   66.4   98.6   1.64   1.22  228.9   42.0   56.7    1.2   1.22   0.98    0.00   14.63
 2002 008   123   120  165.8   69.8   96.0   1.63   1.18  229.9   40.8   55.2    1.2   1.18   0.97    0.00   14.95
 2002 009   124   121  166.4   73.6   92.8   1.62   1.15  230.7   39.5   53.3    1.1   1.15   0.97    0.00   15.27
 2002 010   125   122  167.0   77.6   89.4   1.60   1.10  231.5   38.0   51.4    1.1   1.10   0.97    0.00   15.59
 2002 011   126   123  167.6   81.5   86.1   1.59   1.06  232.3   36.6   49.5    1.1   1.06   0.97    0.00   15.91
 2002 012   127   124  168.2   85.4   82.8   1.58   1.02  233.1   35.2   47.6    1.0   1.02   0.97    0.00   16.23
 2002 013   128   125  168.9   89.2   79.7   1.56   0.98  233.9   33.9   45.8    1.0   0.98   0.97    0.00   16.55
 2002 014   129   126  169.5   91.9   77.6   1.55   0.96  234.8   33.0   44.6    1.0   0.96   0.97    0.00   16.88
 2002 015   130   127  170.2   93.9   76.3   1.54   0.94  235.7   32.5   43.9    0.9   0.94   0.97    0.00   17.20
 2002 016   131   128  171.0   96.0   74.9   1.53   0.92  236.6   31.9   43.1    0.9   0.92   0.97    0.00   17.53
 2002 017   132   129  171.6   98.5   73.1   1.52   0.90  237.4   31.1   42.0    0.9   0.90   0.96    0.00   17.85
 2002 018   133   130  172.2  100.9   71.2   1.51   0.88  238.2   30.3   40.9    0.9   0.88   0.96    0.00   18.18
 2002 019   134   131  172.7  103.9   68.8   1.50   0.85  238.9   29.3   39.5    0.8   0.85   0.96    0.00   18.51
 2002 020   135   132  173.2  107.2   66.0   1.49   0.82  239.6   28.1   38.0    0.8   0.82   0.96    0.00   18.83
 2002 021   136   133  173.8  110.3   63.5   1.47   0.78  240.3   27.0   36.5    0.8   0.78   0.97    0.00   19.16
 2002 022   137   134  174.4  113.4   61.0   1.46   0.75  241.0   25.9   35.0    0.8   0.75   0.97    0.00   19.49
 2002 023   138   135  174.9  116.3   58.6   1.44   0.72  241.7   24.9   33.7    0.7   0.72   0.97    0.00   19.82
 2002 024   139   136  175.5  119.1   56.4   1.42   0.70  242.5   24.3   32.1    0.7   0.70   0.98    0.00   20.15
 2002 025   140   137  176.1  121.8   54.3   1.41   0.68  243.1   23.3   31.0    0.7   0.68   0.98    0.00   20.48
 2002 026   141   138  176.9  124.4   52.6   1.39   0.67  244.2   22.9   29.6    0.7   0.67   0.99    0.00   20.81
 2002 027   142   139  177.7  126.9   50.8   1.37   0.65  245.0   22.4   28.4    0.7   0.65   1.00    0.00   21.14
 2002 028   143   140  178.3  129.3   49.0   1.36   0.62  245.8   21.5   27.4    0.6   0.62   1.00    0.00   21.48
 2002 029   144   141  179.2  131.7   47.5   1.34   0.60  246.8   20.8   26.6    0.6   0.60   1.01    0.00   21.81
 2002 030   145   142  179.2  131.7   47.5   1.34   0.60  247.8   20.8   26.6    0.6   0.60   1.01    0.00   21.81
 2002 031   146   143  179.2  131.7   47.5   1.34   0.60  248.8   20.8   26.6    0.6   0.60   1.01    0.00   21.81
 2002 032   147   144  179.2  131.7   47.5   1.34   0.60  249.8   20.8   26.6    0.6   0.60   1.01    0.00   21.81
 2002 033   148   145  179.2  131.7   47.5   1.34   0.60  250.8   20.8   26.6    0.6   0.60   1.01    0.00   21.81

*DSSAT Cropping System Model Ver. 4.0.2.000               Aug 12, 2016; 12:55:20

*RUN   3        : UYMZ                    
 MODEL          : MZCER040 - Maize           
 EXPERIMENT     : UYMZ0197 MZ    late to create DSS                             
 TREATMENT  1   : UYMZ                    

@YEAR DOY   DAS   DAP   CNAD   GNAD   VNAD   GN%D   VN%D   NUPC   LNAD   SNAD   LN%D   SN%D   RN%D   SNN0C   SNN1C
 2002 253     3     0    0.0    0.0    0.0   0.00   0.00    0.0    0.0    0.0    0.0   0.00   0.00    0.00    0.00
 2002 254     4     1    0.0    0.0    0.0   0.00   0.00    0.0    0.0    0.0    0.0   0.00   0.00    0.00    0.00
 2002 255     5     2    0.0    0.0    0.0   0.00   0.00    0.0    0.0    0.0    0.0   0.00   0.00    0.00    0.00
 2002 256     6     3    0.0    0.0    0.0   0.00   0.00    0.0    0.0    0.0    0.0   0.00   0.00    0.00    0.00
 2002 257     7     4    0.0    0.0    0.0   0.00   0.00    0.0    0.0    0.0    0.0   0.00   0.00    0.00    0.00
 2002 258     8     5    0.0    0.0    0.0   0.00   0.00    0.0    0.0    0.0    0.0   0.00   0.00    0.00    0.00
 2002 259     9     6    0.0    0.0    0.0   0.00   0.00    0.0    0.0    0.0    0.0   0.00   0.00    0.00    0.00
 2002 260    10     7    0.0    0.0    0.0   0.00   0.00    0.0    0.0    0.0    0.0   0.00   0.00    0.00    0.00
 2002 261    11     8    0.0    0.0    0.0   0.00   0.00    0.0    0.0    0.0    0.0   0.00   0.00    0.00    0.00
 2002 262    12     9    0.0    0.0    0.0   0.00   0.00    0.0    0.0    0.0    0.0   0.00   0.00    0.00    0.00
 2002 263    13    10    0.0    0.0    0.0   0.00   0.00    0.0    0.0    0.0    0.0   0.00   0.00    0.00    0.00
 2002 264    14    11    1.2    0.0    1.2   0.00   4.40    0.0    0.6    0.6    4.4   4.40   0.00    0.00    0.00
 2002 265    15    12    1.3    0.0    1.3   0.00   4.55    0.2    0.6    0.6    4.6   4.55   1.09    0.00    0.00
 2002 266    16    13    1.3    0.0    1.3   0.00   4.53    0.2    0.6    0.6    4.5   4.53   1.11    0.00    0.00
 2002 267    17    14    1.3    0.0    1.3   0.00   4.52    0.2    0.6    0.6    4.5   4.52   1.12    0.00    0.00
 2002 268    18    15    1.3    0.0    1.3   0.00   4.49    0.2    0.6    0.6    4.5   4.49   1.14    0.00    0.00
 2002 269    19    16    1.2    0.0    1.2   0.00   4.46    0.2    0.6    0.6    4.5   4.46   1.17    0.00    0.00
 2002 270    20    17    1.2    0.0    1.2   0.00   4.43    0.3    0.6    0.6    4.4   4.43   1.18    0.00    0.00
 2002 271    21    18    1.2    0.0    1.2   0.00   4.39    0.3    0.6    0.6    4.4   4.39   1.18    0.00    0.01
 2002 272    22    19    1.2    0.0    1.2   0.00   4.39    0.3    0.6    0.6    4.4   4.39   1.12    0.00    0.01
 2002 273    23    20    1.2    0.0    1.2   0.00   4.35    0.3    0.6    0.6    4.4   4.35   1.22    0.00    0.01
 2002 274    24    21    1.2    0.0    1.2   0.00   4.11    0.4    0.6    0.6    4.1   4.11   1.25    0.00    0.01
 2002 275    25    22    1.3    0.0    1.3   0.00   3.60    0.5    0.8    0.5    3.6   3.60   1.18    0.00    0.01
 2002 276    26    23    1.5    0.0    1.5   0.00   3.55    0.9    1.0    0.5    3.5   3.55   1.28    0.00    0.01
 2002 277    27    24    1.8    0.0    1.8   0.00   3.52    1.2    1.3    0.5    3.5   3.52   1.19    0.00    0.02
 2002 278    28    25    2.1    0.0    2.1   0.00   3.42    1.6    1.7    0.5    3.4   3.42   1.19    0.00    0.02
 2002 279    29    26    2.6    0.0    2.6   0.00   3.47    2.2    2.1    0.5    3.5   3.47   1.20    0.00    0.02
 2002 280    30    27    3.1    0.0    3.1   0.00   3.78    2.8    2.6    0.5    3.8   3.78   1.16    0.00    0.03
 2002 281    31    28    3.4    0.0    3.4   0.00   3.86    3.2    2.9    0.5    3.9   3.86   1.16    0.00    0.03
 2002 282    32    29    3.6    0.0    3.6   0.00   3.82    3.5    3.1    0.5    3.8   3.82   1.15    0.00    0.04
 2002 283    33    30    3.9    0.0    3.9   0.00   3.80    3.8    3.4    0.5    3.8   3.80   1.15    0.00    0.04
 2002 284    34    31    4.1    0.0    4.1   0.00   3.56    4.1    3.6    0.5    3.6   3.56   1.15    0.00    0.05
 2002 285    35    32    4.7    0.0    4.7   0.00   3.22    5.1    4.2    0.5    3.2   3.22   1.27    0.00    0.05
 2002 286    36    33    5.8    0.0    5.8   0.00   3.08    6.7    5.3    0.4    3.1   3.08   1.29    0.00    0.06
 2002 287    37    34    7.3    0.0    7.3   0.00   3.07    8.7    6.9    0.4    3.1   3.07   1.27    0.00    0.07
 2002 288    38    35    9.3    0.0    9.3   0.00   3.34   10.4    8.8    0.5    3.3   3.34   1.10    0.00    0.08
 2002 289    39    36   10.8    0.0   10.8   0.00   3.47   12.3   10.4    0.5    3.5   3.47   1.16    0.00    0.10
 2002 290    40    37   11.9    0.0   11.9   0.00   3.44   15.0   11.4    0.5    3.4   3.44   1.36    0.00    0.11
 2002 291    41    38   15.2    0.0   15.2   0.00   3.78   18.9   14.6    0.5    3.8   3.78   1.27    0.00    0.13
 2002 292    42    39   17.1    0.0   17.1   0.00   3.68   20.2   16.5    0.5    3.7   3.68   1.09    0.00    0.16
 2002 293    43    40   18.7    0.0   18.7   0.00   3.57   22.0   18.2    0.5    3.6   3.57   1.10    0.00    0.18
 2002 294    44    41   19.3    0.0   19.3   0.00   3.62   24.7   18.8    0.5    3.6   3.62   1.42    0.00    0.20
 2002 295    45    42   19.9    0.0   19.9   0.00   3.56   26.2   19.3    0.5    3.6   3.56   1.33    0.00    0.23
 2002 296    46    43   21.1    0.0   21.1   0.00   3.52   28.3   20.5    0.6    3.5   3.52   1.25    0.00    0.27
 2002 297    47    44   23.7    0.0   23.7   0.00   3.48   31.9   23.1    0.6    3.5   3.48   1.21    0.00    0.31
 2002 298    48    45   26.5    0.0   26.5   0.00   3.45   34.2   25.7    0.8    3.4   3.45   1.11    0.00    0.36
 2002 299    49    46   30.1    0.0   30.1   0.00   3.41   39.6   29.1    1.0    3.4   3.41   1.19    0.00    0.40
 2002 300    50    47   33.2    0.0   33.2   0.00   3.36   41.7   31.9    1.4    3.4   3.36   1.07    0.00    0.46
 2002 301    51    48   35.4    0.0   35.4   0.00   3.32   45.7   33.8    1.7    3.3   3.32   1.16    0.00    0.51
 2002 302    52    49   36.9    0.0   36.9   0.00   3.29   47.7   35.0    1.9    3.3   3.29   1.14    0.00    0.56
 2002 303    53    50   38.8    0.0   38.8   0.00   3.28   49.6   36.6    2.2    3.3   3.28   1.10    0.00    0.62
 2002 304    54    51   41.1    0.0   41.1   0.00   3.21   54.3   38.4    2.6    3.2   3.21   1.16    0.00    0.68
 2002 305    55    52   44.1    0.0   44.1   0.00   3.20   59.2   40.8    3.3    3.2   3.20   1.17    0.00    0.76
 2002 306    56    53   48.0    0.0   48.0   0.00   3.17   63.9   43.8    4.1    3.2   3.17   1.15    0.00    0.84
 2002 307    57    54   50.4    0.0   50.4   0.00   3.16   65.7   45.7    4.8    3.2   3.16   1.09    0.00    0.92
 2002 308    58    55   52.4    0.0   52.4   0.00   3.16   69.2   47.1    5.2    3.2   3.16   1.13    0.00    1.00
 2002 309    59    56   53.5    0.0   53.5   0.00   3.12   72.9   47.9    5.6    3.1   3.12   1.15    0.00    1.09
 2002 310    60    57   55.1    0.0   55.1   0.00   3.05   76.1   48.9    6.3    3.1   3.05   1.12    0.00    1.20
 2002 311    61    58   57.0    0.0   57.0   0.00   2.93   78.7   49.7    7.2    2.9   2.93   1.08    0.00    1.31
 2002 312    62    59   58.6    0.0   58.6   0.00   2.76   80.9   50.2    8.5    2.8   2.76   1.04    0.00    1.42
 2002 313    63    60   60.4    0.0   60.4   0.00   2.66   82.9   50.8    9.5    2.7   2.66   1.04    0.00    1.54
 2002 314    64    61   61.6    0.0   61.6   0.00   2.61   84.4   51.4   10.2    2.6   2.61   1.01    0.00    1.66
 2002 315    65    62   62.8    0.0   62.8   0.00   2.52   85.8   51.7   11.2    2.5   2.52   1.02    0.00    1.78
 2002 316    66    63   63.9    0.0   63.9   0.00   2.40   87.2   51.6   12.3    2.4   2.40   0.96    0.00    1.90
 2002 317    67    64   64.8    0.0   64.8   0.00   2.25   88.5   51.2   13.6    2.3   2.25   0.92    0.00    2.02
 2002 318    68    65   65.7    0.0   65.7   0.00   2.10   89.5   50.5   15.2    2.1   2.10   0.91    0.00    2.14
 2002 319    69    66   66.6    0.0   66.6   0.00   1.97   90.5   49.9   16.6    2.0   1.97   0.91    0.00    2.27
 2002 320    70    67   67.5    0.0   67.5   0.00   1.84   91.6   49.2   18.3    1.8   1.84   0.88    0.00    2.39
 2002 321    71    68   68.3    0.0   68.3   0.00   1.78   92.5   49.0   19.3    1.8   1.78   0.89    0.00    2.52
 2002 322    72    69   69.0    0.0   69.0   0.00   1.60   93.4   50.1   18.9    1.6   1.60   0.89    0.00    2.64
 2002 323    73    70   91.8    0.0   91.8   0.00   1.99  118.3   65.4   26.4    2.0   1.99   0.96    0.00    2.77
 2002 324    74    71  106.2    0.0  106.2   0.00   2.23  134.0   74.6   31.6    2.2   2.23   1.01    0.00    2.91
 2002 325    75    72  122.4    0.0  122.4   0.00   2.42  152.1   83.9   38.5    2.4   2.42   1.05    0.00    3.05
 2002 326    76    73  130.1    0.0  130.1   0.00   2.45  161.7   87.2   42.9    2.5   2.45   1.06    0.00    3.20
 2002 327    77    74  133.5    0.0  133.5   0.00   2.36  165.6   86.6   46.8    2.4   2.36   1.05    0.00    3.37
 2002 328    78    75  134.7    0.0  134.7   0.00   2.25  166.9   84.9   49.8    2.2   2.25   1.05    0.00    3.53
 2002 329    79    76  135.8    0.0  135.8   0.00   2.20  168.0   84.3   51.5    2.2   2.20   1.05    0.00    3.70
 2002 330    80    77  137.0    0.0  137.0   0.00   2.13  169.4   83.1   53.9    2.1   2.13   1.03    0.00    3.86
 2002 331    81    78  138.5    0.0  138.5   0.00   2.07  170.9   82.3   56.2    2.1   2.07   1.03    0.00    4.03
 2002 332    82    79  140.1    0.0  140.1   0.00   2.04  172.6   82.0   58.1    2.0   2.04   1.03    0.00    4.19
 2002 333    83    80  141.5    0.0  141.5   0.00   2.02  174.2   81.8   59.7    2.0   2.02   1.04    0.00    4.36
 2002 334    84    81  142.2    0.0  142.2   0.00   1.96  174.9   80.6   61.5    2.0   1.96   1.01    0.00    4.53
 2002 335    85    82  142.7    0.0  142.7   0.00   1.92  175.4   80.0   62.7    1.9   1.92   1.01    0.00    4.70
 2002 336    86    83  143.4    0.0  143.4   0.00   1.88  176.3   79.2   64.1    1.9   1.88   0.97    0.00    4.86
 2002 337    87    84  143.9    0.0  143.9   0.00   1.86  176.9   78.8   65.1    1.9   1.86   0.94    0.00    5.03
 2002 338    88    85  144.3    0.0  144.3   0.00   1.84  177.4   78.4   65.9    1.8   1.84   0.93    0.00    5.20
 2002 339    89    86  144.7    0.0  144.7   0.00   1.81  177.9   77.8   66.9    1.8   1.81   0.91    0.00    5.37
 2002 340    90    87  145.4    0.0  145.4   0.00   1.96  178.7   83.7   61.6    2.0   1.96   0.92    0.00    5.54
 2002 341    91    88  145.9    0.0  145.9   0.00   1.97  179.4   82.9   63.0    2.0   1.97   0.92    0.00    5.71
 2002 342    92    89  146.6    0.0  146.6   0.00   1.98  180.5   82.3   64.3    2.0   1.98   0.89    0.00    5.88
 2002 343    93    90  147.2    0.0  147.2   0.00   1.98  181.5   81.4   65.8    2.0   1.98   0.87    0.00    6.05
 2002 344    94    91  147.8    0.0  147.8   0.00   1.98  182.5   80.5   67.2    2.0   1.98   0.88    0.00    6.23
 2002 345    95    92  148.2    0.0  148.2   0.00   1.98  183.5   79.3   68.9    2.0   1.98   0.87    0.00    6.40
 2002 346    96    93  148.6    0.0  148.6   0.00   1.98  184.5   78.2   70.5    2.0   1.98   0.86    0.00    6.58
 2002 347    97    94  148.9    0.0  148.9   0.00   1.98  185.4   76.9   72.0    2.0   1.98   0.87    0.00    6.77
 2002 348    98    95  149.1    0.0  149.1   0.00   1.98  186.4   75.4   73.7    2.0   1.98   0.88    0.00    6.95
 2002 349    99    96  149.1    0.0  149.1   0.00   1.97  187.3   73.8   75.3    2.0   1.97   0.90    0.00    7.14
 2002 350   100    97  148.6    0.0  148.6   0.00   1.96  188.3   71.9   76.7    2.0   1.96   0.91    0.00    7.33
 2002 351   101    98  147.4    0.0  147.4   0.00   1.94  189.2   69.8   77.5    1.9   1.94   0.94    0.00    7.53
 2002 352   102    99  147.4    4.0  143.4   1.70   1.89  190.2   67.9   75.5    1.9   1.89   0.94    0.00    7.75
 2002 353   103   100  147.2    7.2  140.1   1.70   1.85  190.8   66.4   73.7    1.8   1.85   0.96    0.00    7.96
 2002 354   104   101  147.5   11.1  136.4   1.70   1.80  191.6   64.6   71.8    1.8   1.80   0.97    0.00    8.18
 2002 355   105   102  148.0   15.1  132.9   1.70   1.75  192.5   63.0   69.9    1.8   1.75   0.96    0.00    8.41
 2002 356   106   103  148.3   19.8  128.6   1.70   1.71  193.3   61.6   67.0    1.7   1.71   0.97    0.00    8.63
 2002 357   107   104  148.6   21.6  127.0   1.70   1.68  194.0   60.2   66.8    1.7   1.68   0.98    0.00    8.86
 2002 358   108   105  148.9   24.3  124.6   1.70   1.64  194.6   59.0   65.6    1.6   1.64   0.97    0.00    9.09
 2002 359   109   106  149.5   27.9  121.6   1.70   1.60  195.5   57.6   64.0    1.6   1.60   0.96    0.00    9.32
 2002 360   110   107  150.1   32.5  117.6   1.70   1.55  196.5   55.7   61.9    1.6   1.55   0.95    0.00    9.55
 2002 361   111   108  150.7   37.1  113.6   1.69   1.50  197.4   53.8   59.8    1.5   1.50   0.94    0.00    9.78
 2002 362   112   109  151.3   41.6  109.7   1.69   1.46  198.3   52.6   57.1    1.5   1.46   0.95    0.00   10.01
 2002 363   113   110  151.9   46.0  105.9   1.68   1.43  199.2   51.5   54.4    1.4   1.43   0.97    0.00   10.25
 2002 364   114   111  152.6   50.4  102.2   1.67   1.38  200.2   49.6   52.6    1.4   1.38   0.97    0.00   10.49
 2002 365   115   112  153.3   54.4   98.9   1.66   1.34  201.0   48.2   50.6    1.3   1.34   0.98    0.00   10.73
 2003 001   116   113  154.1   58.6   95.5   1.65   1.29  202.0   46.3   49.2    1.3   1.29   0.99    0.00   10.97
 2003 002   117   114  154.7   62.5   92.2   1.64   1.23  202.8   44.2   48.0    1.2   1.23   0.99    0.00   11.21
 2003 003   118   115  155.4   66.2   89.2   1.63   1.20  203.7   43.1   46.1    1.2   1.20   0.99    0.00   11.45
 2003 004   119   116  156.1   70.2   85.9   1.62   1.13  204.5   40.7   45.2    1.1   1.13   0.99    0.00   11.69
 2003 005   120   117  156.8   74.0   82.7   1.61   1.09  205.4   39.2   43.5    1.1   1.09   0.98    0.00   11.93
 2003 006   121   118  157.5   77.5   79.9   1.59   1.05  206.2   37.9   42.1    1.1   1.05   0.97    0.00   12.17
 2003 007   122   119  158.2   81.1   77.1   1.58   1.02  207.1   36.5   40.6    1.0   1.02   0.97    0.00   12.42
 2003 008   123   120  158.9   84.6   74.3   1.56   0.98  207.9   35.2   39.1    1.0   0.98   0.96    0.00   12.66
 2003 009   124   121  159.5   88.0   71.5   1.55   0.94  208.7   33.9   37.6    0.9   0.94   0.96    0.00   12.91
 2003 010   125   122  160.3   91.4   69.0   1.53   0.92  209.7   33.0   36.0    0.9   0.92   0.97    0.00   13.15
 2003 011   126   123  160.9   94.6   66.3   1.52   0.88  210.5   31.5   34.8    0.9   0.88   0.97    0.00   13.40
 2003 012   127   124  161.7   97.8   63.9   1.50   0.84  211.4   30.3   33.6    0.8   0.84   0.97    0.00   13.65
 2003 013   128   125  162.3  100.6   61.8   1.49   0.81  212.1   29.3   32.5    0.8   0.81   0.96    0.00   13.89
 2003 014   129   126  163.0  103.5   59.5   1.47   0.78  212.9   28.2   31.3    0.8   0.78   0.96    0.00   14.14
 2003 015   130   127  163.7  106.4   57.3   1.45   0.76  213.8   27.1   30.1    0.8   0.76   0.96    0.00   14.39
 2003 016   131   128  164.2  109.2   55.0   1.44   0.72  214.4   26.1   28.9    0.7   0.72   0.96    0.00   14.64
 2003 017   132   129  165.0  111.9   53.1   1.42   0.70  215.4   25.2   28.0    0.7   0.70   0.96    0.00   14.89
 2003 018   133   130  165.7  114.4   51.2   1.41   0.68  216.2   24.3   27.0    0.7   0.68   0.97    0.00   15.14
 2003 019   134   131  166.5  116.9   49.6   1.39   0.65  217.1   23.5   26.1    0.7   0.65   0.97    0.00   15.39
 2003 020   135   132  167.0  119.2   47.8   1.37   0.63  217.7   22.7   25.0    0.6   0.63   0.98    0.00   15.64
 2003 021   136   133  167.9  121.5   46.4   1.36   0.61  218.8   22.1   24.4    0.6   0.61   0.98    0.00   15.90
 2003 022   137   134  168.6  123.7   44.9   1.34   0.60  219.6   21.7   23.3    0.6   0.60   0.99    0.00   16.15
 2003 023   138   135  169.3  125.7   43.6   1.32   0.59  220.4   21.0   22.6    0.6   0.59   0.99    0.00   16.40
 2003 024   139   136  169.3  125.7   43.6   1.32   0.59  221.2   21.0   22.6    0.6   0.59   0.99    0.00   16.40
 2003 025   140   137  169.3  125.7   43.6   1.32   0.59  221.9   21.0   22.6    0.6   0.59   0.99    0.00   16.40
 2003 026   141   138  169.3  125.7   43.6   1.32   0.59  222.7   21.0   22.6    0.6   0.59   0.99    0.00   16.40
 2003 027   142   139  169.3  125.7   43.6   1.32   0.59  223.5   21.0   22.6    0.6   0.59   0.99    0.00   16.40

*DSSAT Cropping System Model Ver. 4.0.2.000               Aug 12, 2016; 12:55:20

*RUN   4        : UYMZ                    
 MODEL          : MZCER040 - Maize           
 EXPERIMENT     : UYMZ0197 MZ    late to create DSS                             
 TREATMENT  1   : UYMZ                    

@YEAR DOY   DAS   DAP   CNAD   GNAD   VNAD   GN%D   VN%D   NUPC   LNAD   SNAD   LN%D   SN%D   RN%D   SNN0C   SNN1C
 2003 253     3     0    0.0    0.0    0.0   0.00   0.00    0.0    0.0    0.0    0.0   0.00   0.00    0.00    0.00
 2003 254     4     1    0.0    0.0    0.0   0.00   0.00    0.0    0.0    0.0    0.0   0.00   0.00    0.00    0.00
 2003 255     5     2    0.0    0.0    0.0   0.00   0.00    0.0    0.0    0.0    0.0   0.00   0.00    0.00    0.00
 2003 256     6     3    0.0    0.0    0.0   0.00   0.00    0.0    0.0    0.0    0.0   0.00   0.00    0.00    0.00
 2003 257     7     4    0.0    0.0    0.0   0.00   0.00    0.0    0.0    0.0    0.0   0.00   0.00    0.00    0.00
 2003 258     8     5    0.0    0.0    0.0   0.00   0.00    0.0    0.0    0.0    0.0   0.00   0.00    0.00    0.00
 2003 259     9     6    0.0    0.0    0.0   0.00   0.00    0.0    0.0    0.0    0.0   0.00   0.00    0.00    0.00
 2003 260    10     7    0.0    0.0    0.0   0.00   0.00    0.0    0.0    0.0    0.0   0.00   0.00    0.00    0.00
 2003 261    11     8    0.0    0.0    0.0   0.00   0.00    0.0    0.0    0.0    0.0   0.00   0.00    0.00    0.00
 2003 262    12     9    0.0    0.0    0.0   0.00   0.00    0.0    0.0    0.0    0.0   0.00   0.00    0.00    0.00
 2003 263    13    10    0.0    0.0    0.0   0.00   0.00    0.0    0.0    0.0    0.0   0.00   0.00    0.00    0.00
 2003 264    14    11    0.0    0.0    0.0   0.00   0.00    0.0    0.0    0.0    0.0   0.00   0.00    0.00    0.00
 2003 265    15    12    1.2    0.0    1.2   0.00   4.40    0.0    0.6    0.6    4.4   4.40   0.00    0.00    0.00
 2003 266    16    13    1.3    0.0    1.3   0.00   4.54    0.2    0.6    0.6    4.5   4.54   1.08    0.00    0.00
 2003 267    17    14    1.3    0.0    1.3   0.00   4.52    0.2    0.6    0.6    4.5   4.52   1.12    0.00    0.00
 2003 268    18    15    1.3    0.0    1.3   0.00   4.50    0.2    0.6    0.6    4.5   4.50   1.14    0.00    0.00
 2003 269    19    16    1.3    0.0    1.3   0.00   4.49    0.2    0.6    0.6    4.5   4.49   1.12    0.00    0.00
 2003 270    20    17    1.2    0.0    1.2   0.00   4.46    0.2    0.6    0.6    4.5   4.46   1.15    0.00    0.00
 2003 271    21    18    1.2    0.0    1.2   0.00   4.45    0.2    0.6    0.6    4.5   4.45   1.19    0.00    0.00
 2003 272    22    19    1.2    0.0    1.2   0.00   4.44    0.3    0.6    0.6    4.4   4.44   1.26    0.00    0.01
 2003 273    23    20    1.2    0.0    1.2   0.00   4.42    0.3    0.6    0.6    4.4   4.42   1.19    0.00    0.01
 2003 274    24    21    1.2    0.0    1.2   0.00   4.39    0.3    0.6    0.6    4.4   4.39   1.17    0.00    0.01
 2003 275    25    22    1.2    0.0    1.2   0.00   4.36    0.3    0.6    0.6    4.4   4.36   1.18    0.00    0.01
 2003 276    26    23    1.2    0.0    1.2   0.00   3.93    0.3    0.7    0.6    3.9   3.93   1.15    0.00    0.01
 2003 277    27    24    1.3    0.0    1.3   0.00   3.65    0.5    0.8    0.5    3.7   3.65   1.09    0.00    0.01
 2003 278    28    25    1.6    0.0    1.6   0.00   3.51    0.7    1.1    0.5    3.5   3.51   1.14    0.00    0.01
 2003 279    29    26    1.9    0.0    1.9   0.00   3.71    1.3    1.4    0.5    3.7   3.71   1.34    0.00    0.02
 2003 280    30    27    2.2    0.0    2.2   0.00   3.60    1.8    1.7    0.5    3.6   3.60   1.32    0.00    0.02
 2003 281    31    28    2.6    0.0    2.6   0.00   3.55    2.1    2.1    0.5    3.5   3.55   1.14    0.00    0.02
 2003 282    32    29    3.0    0.0    3.0   0.00   3.62    2.9    2.5    0.5    3.6   3.62   1.34    0.00    0.03
 2003 283    33    30    3.5    0.0    3.5   0.00   4.03    3.5    2.9    0.6    4.0   4.03   1.33    0.00    0.03
 2003 284    34    31    3.6    0.0    3.6   0.00   4.01    4.1    3.0    0.6    4.0   4.01   1.50    0.00    0.04
 2003 285    35    32    3.7    0.0    3.7   0.00   3.98    4.5    3.2    0.6    4.0   3.98   1.41    0.00    0.05
 2003 286    36    33    3.9    0.0    3.9   0.00   3.82    4.8    3.3    0.5    3.8   3.82   1.27    0.00    0.06
 2003 287    37    34    4.2    0.0    4.2   0.00   3.59    5.4    3.7    0.5    3.6   3.59   1.23    0.00    0.07
 2003 288    38    35    4.8    0.0    4.8   0.00   3.46    6.3    4.3    0.5    3.5   3.46   1.22    0.00    0.08
 2003 289    39    36    5.6    0.0    5.6   0.00   3.32    7.6    5.1    0.5    3.3   3.32   1.21    0.00    0.09
 2003 290    40    37    6.7    0.0    6.7   0.00   3.29    9.1    6.3    0.5    3.3   3.29   1.18    0.00    0.11
 2003 291    41    38    8.1    0.0    8.1   0.00   3.20   10.6    7.7    0.4    3.2   3.20   1.15    0.00    0.13
 2003 292    42    39   10.0    0.0   10.0   0.00   3.47   13.4    9.6    0.5    3.5   3.47   1.22    0.00    0.15
 2003 293    43    40   11.4    0.0   11.4   0.00   3.60   14.7   10.9    0.5    3.6   3.60   1.13    0.00    0.17
 2003 294    44    41   12.3    0.0   12.3   0.00   3.49   17.0   11.8    0.5    3.5   3.49   1.24    0.00    0.19
 2003 295    45    42   13.7    0.0   13.7   0.00   3.73   19.7   13.2    0.5    3.7   3.73   1.26    0.00    0.22
 2003 296    46    43   14.3    0.0   14.3   0.00   3.38   21.2   13.8    0.5    3.4   3.38   1.21    0.00    0.26
 2003 297    47    44   16.2    0.0   16.2   0.00   3.19   23.5   15.7    0.4    3.2   3.19   1.17    0.00    0.30
 2003 298    48    45   22.0    0.0   22.0   0.00   3.78   29.0   21.5    0.5    3.8   3.78   1.10    0.00    0.34
 2003 299    49    46   23.9    0.0   23.9   0.00   3.68   32.6   23.4    0.5    3.7   3.68   1.18    0.00    0.38
 2003 300    50    47   24.6    0.0   24.6   0.00   3.58   35.5   24.1    0.5    3.6   3.58   1.23    0.00    0.43
 2003 301    51    48   26.3    0.0   26.3   0.00   3.56   38.7   25.7    0.5    3.6   3.56   1.21    0.00    0.49
 2003 302    52    49   28.9    0.0   28.9   0.00   3.53   42.7   28.3    0.6    3.5   3.53   1.19    0.00    0.56
 2003 303    53    50   32.9    0.0   32.9   0.00   3.48   47.8   32.2    0.7    3.5   3.48   1.17    0.00    0.64
 2003 304    54    51   34.8    0.0   34.8   0.00   3.45   49.2   34.0    0.8    3.5   3.45   1.10    0.00    0.72
 2003 305    55    52   36.3    0.0   36.3   0.00   3.44   54.1   35.4    0.9    3.4   3.44   1.20    0.00    0.79
 2003 306    56    53   37.5    0.0   37.5   0.00   3.42   57.3   36.6    1.0    3.4   3.42   1.18    0.00    0.89
 2003 307    57    54   39.0    0.0   39.0   0.00   3.41   60.6   37.9    1.1    3.4   3.41   1.17    0.00    0.99
 2003 308    58    55   41.2    0.0   41.2   0.00   3.38   64.0   39.9    1.2    3.4   3.38   1.15    0.00    1.11
 2003 309    59    56   43.9    0.0   43.9   0.00   3.36   68.7   42.3    1.5    3.4   3.36   1.15    0.00    1.23
 2003 310    60    57   47.3    0.0   47.3   0.00   3.32   73.2   45.3    2.0    3.3   3.32   1.13    0.00    1.36
 2003 311    61    58   51.1    0.0   51.1   0.00   3.28   78.4   48.5    2.6    3.3   3.28   1.13    0.00    1.49
 2003 312    62    59   55.4    0.0   55.4   0.00   3.24   83.2   52.0    3.5    3.2   3.24   1.11    0.00    1.63
 2003 313    63    60   60.4    0.0   60.4   0.00   3.20   88.2   55.8    4.6    3.2   3.20   1.09    0.00    1.78
 2003 314    64    61   65.2    0.0   65.2   0.00   3.16   95.6   59.2    6.0    3.2   3.16   1.13    0.00    1.92
 2003 315    65    62   71.1    0.0   71.1   0.00   3.11  102.0   63.2    7.8    3.1   3.11   1.11    0.00    2.08
 2003 316    66    63   74.2    0.0   74.2   0.00   3.09  104.8   65.3    8.9    3.1   3.09   1.08    0.00    2.24
 2003 317    67    64   76.7    0.0   76.7   0.00   3.07  110.5   66.9    9.8    3.1   3.07   1.13    0.00    2.40
 2003 318    68    65   79.5    0.0   79.5   0.00   3.05  115.8   68.6   10.9    3.0   3.05   1.14    0.00    2.57
 2003 319    69    66   84.3    0.0   84.3   0.00   3.02  121.6   71.5   12.8    3.0   3.02   1.12    0.00    2.76
 2003 320    70    67   87.8    0.0   87.8   0.00   2.98  123.3   73.4   14.4    3.0   2.98   1.07    0.00    2.95
 2003 321    71    68   90.4    0.0   90.4   0.00   2.92  126.9   74.5   16.0    2.9   2.92   1.08    0.00    3.13
 2003 322    72    69   92.6    0.0   92.6   0.00   2.91  129.7   75.6   17.0    2.9   2.91   1.08    0.00    3.32
 2003 323    73    70   97.2    0.0   97.2   0.00   2.90  137.2   78.0   19.2    2.9   2.90   1.11    0.00    3.51
 2003 324    74    71  100.7    0.0  100.7   0.00   2.88  143.3   79.7   21.0    2.9   2.88   1.13    0.00    3.71
 2003 325    75    72  105.2    0.0  105.2   0.00   2.86  149.6   81.8   23.4    2.9   2.86   1.12    0.00    3.93
 2003 326    76    73  113.3    0.0  113.3   0.00   2.82  157.9   85.3   28.0    2.8   2.82   1.10    0.00    4.16
 2003 327    77    74  123.0    0.0  123.0   0.00   2.78  167.4   89.1   33.8    2.8   2.78   1.08    0.00    4.38
 2003 328    78    75  126.1    0.0  126.1   0.00   2.75  169.8   90.2   35.9    2.8   2.75   1.07    0.00    4.61
 2003 329    79    76  133.1    0.0  133.1   0.00   2.72  179.2   92.7   40.3    2.7   2.72   1.10    0.00    4.83
 2003 330    80    77  139.4    0.0  139.4   0.00   2.69  184.3   95.6   43.8    2.7   2.69   1.07    0.00    5.07
 2003 331    81    78  148.8    0.0  148.8   0.00   2.65  195.2   99.1   49.7    2.7   2.65   1.09    0.00    5.30
 2003 332    82    79  154.4    0.0  154.4   0.00   2.62  200.0  100.8   53.6    2.6   2.62   1.07    0.00    5.53
 2003 333    83    80  161.2    0.0  161.2   0.00   2.59  209.6  102.7   58.6    2.6   2.59   1.10    0.00    5.76
 2003 334    84    81  164.9    0.0  164.9   0.00   2.57  211.7  103.4   61.5    2.6   2.57   1.07    0.00    6.01
 2003 335    85    82  168.7    0.0  168.7   0.00   2.51  217.2  103.4   65.3    2.5   2.51   1.08    0.00    6.24
 2003 336    86    83  171.9    0.0  171.9   0.00   2.46  221.0  103.4   68.5    2.5   2.46   1.07    0.00    6.49
 2003 337    87    84  174.4    0.0  174.4   0.00   2.39  224.0  102.6   71.8    2.4   2.39   1.06    0.00    6.74
 2003 338    88    85  176.7    0.0  176.7   0.00   2.34  226.3  102.0   74.7    2.3   2.34   1.07    0.00    6.99
 2003 339    89    86  178.2    0.0  178.2   0.00   2.28  228.2  101.2   77.0    2.3   2.28   1.04    0.00    7.24
 2003 340    90    87  179.6    0.0  179.6   0.00   2.24  230.2  100.6   79.0    2.2   2.24   1.01    0.00    7.49
 2003 341    91    88  181.0    0.0  181.0   0.00   2.19  231.9   99.7   81.3    2.2   2.19   1.01    0.00    7.75
 2003 342    92    89  182.2    0.0  182.2   0.00   2.15  233.3   98.9   83.2    2.1   2.15   1.01    0.00    8.00
 2003 343    93    90  183.0    0.0  183.0   0.00   2.11  234.4   98.3   84.7    2.1   2.11   0.98    0.00    8.26
 2003 344    94    91  183.7    0.0  183.7   0.00   2.07  235.5   97.4   86.4    2.1   2.07   0.96    0.00    8.52
 2003 345    95    92  184.5    0.0  184.5   0.00   2.02  236.5   96.5   88.0    2.0   2.02   0.95    0.00    8.78
 2003 346    96    93  185.4    0.0  185.4   0.00   1.99  237.7   96.0   89.4    2.0   1.99   0.93    0.00    9.04
 2003 347    97    94  186.1    0.0  186.1   0.00   1.95  238.6   95.2   90.9    2.0   1.95   0.92    0.00    9.31
 2003 348    98    95  186.8    0.0  186.8   0.00   1.90  239.6   94.2   92.6    1.9   1.90   0.91    0.00    9.57
 2003 349    99    96  187.6    0.0  187.6   0.00   2.08  240.6  102.0   85.5    2.1   2.08   0.92    0.00    9.84
 2003 350   100    97  188.0    0.0  188.0   0.00   2.09  241.5  101.3   86.7    2.1   2.09   0.90    0.00   10.10
 2003 351   101    98  188.5    0.0  188.5   0.00   2.09  242.7  100.4   88.1    2.1   2.09   0.88    0.00   10.37
 2003 352   102    99  188.9    0.0  188.9   0.00   2.10  243.9   99.4   89.5    2.1   2.10   0.87    0.00   10.64
 2003 353   103   100  189.2    0.0  189.2   0.00   2.09  245.0   98.0   91.2    2.1   2.09   0.88    0.00   10.92
 2003 354   104   101  189.3    0.0  189.3   0.00   2.10  246.1   96.8   92.5    2.1   2.10   0.89    0.00   11.20
 2003 355   105   102  189.3    0.0  189.3   0.00   2.09  247.0   95.1   94.1    2.1   2.09   0.90    0.00   11.48
 2003 356   106   103  188.8    0.0  188.8   0.00   2.09  247.8   93.6   95.2    2.1   2.09   0.91    0.00   11.77
 2003 357   107   104  188.0    0.0  188.0   0.00   2.08  248.7   91.9   96.1    2.1   2.08   0.91    0.00   12.07
 2003 358   108   105  185.8    0.0  185.8   0.00   2.06  249.9   89.4   96.4    2.1   2.06   0.95    0.00   12.37
 2003 359   109   106  183.4    0.0  183.4   0.00   2.03  250.9   86.6   96.9    2.0   2.03   0.98    0.00   12.69
 2003 360   110   107  183.4    0.0  183.4   0.00   2.03  250.9   84.9   98.5    2.0   2.03   0.97    0.00   12.69
 2003 361   111   108  183.4    0.0  183.4   0.00   2.03  250.9   83.5   99.9    2.0   2.03   0.97    0.00   12.69
 2003 362   112   109  183.4    0.0  183.4   0.00   2.04  250.9   82.0  101.5    2.0   2.04   0.97    0.00   12.69
 2003 363   113   110  183.4    2.6  180.8   1.70   2.01  250.9   80.8  100.0    2.0   2.01   0.96    0.00   12.69
 2003 364   114   111  183.4    6.4  177.0   1.70   1.97  250.9   79.1   97.9    2.0   1.97   0.95    0.00   12.69
 2003 365   115   112  175.4    9.6  165.8   1.70   1.84  252.8   74.1   91.7    1.8   1.84   1.08    0.00   13.03
 2004 001   116   113  176.7   12.7  164.0   1.70   1.82  255.0   73.3   90.7    1.8   1.82   1.08    0.00   13.42
 2004 002   117   114  178.1   16.2  161.9   1.70   1.80  257.0   72.4   89.6    1.8   1.80   1.08    0.00   13.81
 2004 003   118   115  179.2   20.7  158.5   1.70   1.76  258.4   70.8   87.7    1.8   1.76   1.07    0.00   14.20
 2004 004   119   116  180.4   25.6  154.8   1.70   1.72  259.6   69.2   85.6    1.7   1.72   1.07    0.00   14.60
 2004 005   120   117  181.3   30.5  150.8   1.71   1.68  260.7   67.4   83.4    1.7   1.68   1.07    0.00   14.99
 2004 006   121   118  182.2   35.4  146.8   1.71   1.63  261.8   65.6   81.2    1.6   1.63   1.07    0.00   15.39
 2004 007   122   119  183.2   40.3  142.9   1.71   1.59  262.8   63.9   79.0    1.6   1.59   1.07    0.00   15.78
 2004 008   123   120  184.0   45.2  138.8   1.71   1.54  263.8   62.0   76.8    1.5   1.54   1.06    0.00   16.18
 2004 009   124   121  185.1   50.1  135.0   1.71   1.50  265.0   60.3   74.6    1.5   1.50   1.06    0.00   16.58
 2004 010   125   122  185.8   55.0  130.9   1.71   1.46  266.0   58.5   72.4    1.5   1.46   1.06    0.00   16.97
 2004 011   126   123  186.8   59.8  126.9   1.71   1.41  267.0   56.7   70.2    1.4   1.41   1.06    0.00   17.37
 2004 012   127   124  187.5   64.6  122.8   1.71   1.37  267.9   54.9   67.9    1.4   1.37   1.06    0.00   17.77
 2004 013   128   125  188.3   69.3  119.0   1.71   1.32  268.8   53.2   65.8    1.3   1.32   1.06    0.00   18.17
 2004 014   129   126  189.1   74.0  115.1   1.70   1.28  269.7   51.4   63.7    1.3   1.28   1.05    0.00   18.57
 2004 015   130   127  189.6   78.1  111.5   1.70   1.24  270.3   49.8   61.7    1.2   1.24   1.05    0.00   18.97
 2004 016   131   128  190.4   81.7  108.7   1.69   1.21  271.2   48.6   60.1    1.2   1.21   1.05    0.00   19.37
 2004 017   132   129  191.1   86.0  105.1   1.68   1.17  272.0   47.0   58.1    1.2   1.17   1.05    0.00   19.77
 2004 018   133   130  191.9   90.4  101.6   1.67   1.14  272.9   45.7   55.9    1.1   1.14   1.06    0.00   20.17
 2004 019   134   131  192.7   94.1   98.6   1.66   1.10  273.7   44.3   54.4    1.1   1.10   1.06    0.00   20.57
 2004 020   135   132  193.5   98.3   95.2   1.66   1.06  274.4   42.6   52.6    1.1   1.06   1.07    0.00   20.97
 2004 021   136   133  194.2  102.3   91.8   1.65   1.02  275.2   41.0   50.8    1.0   1.02   1.07    0.00   21.37
 2004 022   137   134  194.9  106.3   88.6   1.63   0.98  275.9   39.6   49.0    1.0   0.98   1.06    0.00   21.77
 2004 023   138   135  195.6  110.2   85.4   1.62   0.95  276.7   38.2   47.2    0.9   0.95   1.06    0.00   22.17
 2004 024   139   136  196.2  114.0   82.2   1.61   0.91  277.3   36.7   45.5    0.9   0.91   1.06    0.00   22.57
 2004 025   140   137  197.1  117.6   79.5   1.60   0.88  278.4   35.5   44.0    0.9   0.88   1.06    0.00   22.98
 2004 026   141   138  197.8  121.2   76.7   1.58   0.85  279.1   34.3   42.4    0.9   0.85   1.06    0.00   23.38
 2004 027   142   139  198.7  124.6   74.1   1.57   0.82  280.1   33.1   41.0    0.8   0.82   1.06    0.00   23.78
 2004 028   143   140  199.4  127.9   71.5   1.56   0.80  280.8   32.0   39.5    0.8   0.80   1.06    0.00   24.18
 2004 029   144   141  200.2  131.2   68.9   1.54   0.77  281.7   30.8   38.1    0.8   0.77   1.06    0.00   24.58
 2004 030   145   142  200.8  134.5   66.3   1.53   0.74  282.4   29.6   36.7    0.7   0.74   1.06    0.00   24.98
 2004 031   146   143  201.6  137.6   64.0   1.52   0.71  283.2   28.7   35.3    0.7   0.71   1.07    0.00   25.38
 2004 032   147   144  202.3  140.6   61.7   1.50   0.69  283.9   27.6   34.1    0.7   0.69   1.07    0.00   25.78
 2004 033   148   145  203.3  143.4   59.9   1.49   0.67  284.9   26.8   33.1    0.7   0.67   1.07    0.00   26.18
 2004 034   149   146  203.3  143.4   59.9   1.49   0.67  286.0   26.8   33.1    0.7   0.67   1.07    0.00   26.18
 2004 035   150   147  203.3  143.4   59.9   1.49   0.67  287.0   26.8   33.1    0.7   0.67   1.07    0.00   26.18
 2004 036   151   148  203.3  143.4   59.9   1.49   0.67  288.1   26.8   33.1    0.7   0.67   1.07    0.00   26.18

*DSSAT Cropping System Model Ver. 4.0.2.000               Aug 12, 2016; 12:55:20

*RUN   5        : UYMZ                    
 MODEL          : MZCER040 - Maize           
 EXPERIMENT     : UYMZ0197 MZ    late to create DSS                             
 TREATMENT  1   : UYMZ                    

@YEAR DOY   DAS   DAP   CNAD   GNAD   VNAD   GN%D   VN%D   NUPC   LNAD   SNAD   LN%D   SN%D   RN%D   SNN0C   SNN1C
 2004 253     3     0    0.0    0.0    0.0   0.00   0.00    0.0    0.0    0.0    0.0   0.00   0.00    0.00    0.00
 2004 254     4     1    0.0    0.0    0.0   0.00   0.00    0.0    0.0    0.0    0.0   0.00   0.00    0.00    0.00
 2004 255     5     2    0.0    0.0    0.0   0.00   0.00    0.0    0.0    0.0    0.0   0.00   0.00    0.00    0.00
 2004 256     6     3    0.0    0.0    0.0   0.00   0.00    0.0    0.0    0.0    0.0   0.00   0.00    0.00    0.00
 2004 257     7     4    0.0    0.0    0.0   0.00   0.00    0.0    0.0    0.0    0.0   0.00   0.00    0.00    0.00
 2004 258     8     5    0.0    0.0    0.0   0.00   0.00    0.0    0.0    0.0    0.0   0.00   0.00    0.00    0.00
 2004 259     9     6    0.0    0.0    0.0   0.00   0.00    0.0    0.0    0.0    0.0   0.00   0.00    0.00    0.00
 2004 260    10     7    0.0    0.0    0.0   0.00   0.00    0.0    0.0    0.0    0.0   0.00   0.00    0.00    0.00
 2004 261    11     8    0.0    0.0    0.0   0.00   0.00    0.0    0.0    0.0    0.0   0.00   0.00    0.00    0.00
 2004 262    12     9    0.0    0.0    0.0   0.00   0.00    0.0    0.0    0.0    0.0   0.00   0.00    0.00    0.00
 2004 263    13    10    0.0    0.0    0.0   0.00   0.00    0.0    0.0    0.0    0.0   0.00   0.00    0.00    0.00
 2004 264    14    11    0.0    0.0    0.0   0.00   0.00    0.0    0.0    0.0    0.0   0.00   0.00    0.00    0.00
 2004 265    15    12    1.2    0.0    1.2   0.00   4.40    0.0    0.6    0.6    4.4   4.40   0.00    0.00    0.00
 2004 266    16    13    1.3    0.0    1.3   0.00   4.54    0.2    0.6    0.6    4.5   4.54   1.09    0.00    0.00
 2004 267    17    14    1.3    0.0    1.3   0.00   4.52    0.2    0.6    0.6    4.5   4.52   1.12    0.00    0.00
 2004 268    18    15    1.3    0.0    1.3   0.00   4.50    0.2    0.6    0.6    4.5   4.50   1.13    0.00    0.00
 2004 269    19    16    1.3    0.0    1.3   0.00   4.48    0.2    0.6    0.6    4.5   4.48   1.15    0.00    0.00
 2004 270    20    17    1.2    0.0    1.2   0.00   4.45    0.2    0.6    0.6    4.5   4.45   1.16    0.00    0.00
 2004 271    21    18    1.2    0.0    1.2   0.00   4.45    0.2    0.6    0.6    4.5   4.45   1.12    0.00    0.00
 2004 272    22    19    1.2    0.0    1.2   0.00   4.45    0.2    0.6    0.6    4.5   4.45   1.07    0.00    0.00
 2004 273    23    20    1.2    0.0    1.2   0.00   4.39    0.3    0.6    0.6    4.4   4.39   1.27    0.00    0.00
 2004 274    24    21    1.2    0.0    1.2   0.00   4.39    0.3    0.6    0.6    4.4   4.39   1.20    0.00    0.00
 2004 275    25    22    1.2    0.0    1.2   0.00   4.37    0.3    0.6    0.6    4.4   4.37   1.23    0.00    0.01
 2004 276    26    23    1.2    0.0    1.2   0.00   4.34    0.4    0.6    0.6    4.3   4.34   1.23    0.00    0.01
 2004 277    27    24    1.2    0.0    1.2   0.00   4.23    0.4    0.6    0.6    4.2   4.23   1.19    0.00    0.01
 2004 278    28    25    1.2    0.0    1.2   0.00   4.00    0.5    0.7    0.6    4.0   4.00   1.24    0.00    0.01
 2004 279    29    26    1.3    0.0    1.3   0.00   3.78    0.7    0.8    0.5    3.8   3.78   1.22    0.00    0.01
 2004 280    30    27    1.5    0.0    1.5   0.00   3.88    1.0    1.0    0.5    3.9   3.88   1.27    0.00    0.02
 2004 281    31    28    1.7    0.0    1.7   0.00   3.68    1.3    1.1    0.5    3.7   3.68   1.24    0.00    0.02
 2004 282    32    29    1.9    0.0    1.9   0.00   3.62    1.6    1.4    0.5    3.6   3.62   1.19    0.00    0.03
 2004 283    33    30    2.2    0.0    2.2   0.00   3.49    2.1    1.7    0.5    3.5   3.49   1.22    0.00    0.03
 2004 284    34    31    2.7    0.0    2.7   0.00   3.64    2.8    2.2    0.5    3.6   3.64   1.22    0.00    0.04
 2004 285    35    32    3.0    0.0    3.0   0.00   3.67    3.5    2.5    0.5    3.7   3.67   1.26    0.00    0.04
 2004 286    36    33    3.4    0.0    3.4   0.00   3.78    3.7    2.9    0.5    3.8   3.78   1.11    0.00    0.05
 2004 287    37    34    3.8    0.0    3.8   0.00   3.77    4.6    3.2    0.5    3.8   3.77   1.24    0.00    0.06
 2004 288    38    35    4.1    0.0    4.1   0.00   3.71    5.4    3.6    0.5    3.7   3.71   1.26    0.00    0.07
 2004 289    39    36    4.5    0.0    4.5   0.00   3.45    6.1    4.0    0.5    3.4   3.45   1.20    0.00    0.08
 2004 290    40    37    5.3    0.0    5.3   0.00   3.53    6.8    4.8    0.5    3.5   3.53   1.11    0.00    0.10
 2004 291    41    38    6.1    0.0    6.1   0.00   3.61    8.5    5.6    0.5    3.6   3.61   1.26    0.00    0.11
 2004 292    42    39    6.8    0.0    6.8   0.00   3.61    9.4    6.2    0.5    3.6   3.61   1.18    0.00    0.13
 2004 293    43    40    7.5    0.0    7.5   0.00   3.65   11.0    7.0    0.5    3.6   3.65   1.23    0.00    0.15
 2004 294    44    41    8.1    0.0    8.1   0.00   3.68   12.4    7.6    0.5    3.7   3.68   1.22    0.00    0.17
 2004 295    45    42    8.7    0.0    8.7   0.00   3.53   13.8    8.3    0.5    3.5   3.53   1.21    0.00    0.20
 2004 296    46    43    9.7    0.0    9.7   0.00   3.35   15.4    9.2    0.5    3.4   3.35   1.19    0.00    0.23
 2004 297    47    44   11.3    0.0   11.3   0.00   3.56   17.1   10.8    0.5    3.6   3.56   1.13    0.00    0.26
 2004 298    48    45   12.3    0.0   12.3   0.00   3.84   19.6   11.8    0.5    3.8   3.84   1.20    0.00    0.30
 2004 299    49    46   12.5    0.0   12.5   0.00   3.53   20.6   12.0    0.5    3.5   3.53   1.18    0.00    0.34
 2004 300    50    47   13.5    0.0   13.5   0.00   3.42   21.9   13.1    0.5    3.4   3.42   1.14    0.00    0.39
 2004 301    51    48   15.9    0.0   15.9   0.00   3.82   26.1   15.4    0.5    3.8   3.82   1.21    0.00    0.43
 2004 302    52    49   16.9    0.0   16.9   0.00   3.68   27.9   16.4    0.5    3.7   3.68   1.17    0.00    0.49
 2004 303    53    50   18.9    0.0   18.9   0.00   3.56   30.4   18.4    0.5    3.6   3.56   1.14    0.00    0.55
 2004 304    54    51   20.5    0.0   20.5   0.00   3.53   31.6   20.0    0.5    3.5   3.53   1.09    0.00    0.62
 2004 305    55    52   22.5    0.0   22.5   0.00   3.49   35.2   21.9    0.6    3.5   3.49   1.15    0.00    0.68
 2004 306    56    53   24.7    0.0   24.7   0.00   3.46   39.2   24.0    0.7    3.5   3.46   1.17    0.00    0.75
 2004 307    57    54   27.8    0.0   27.8   0.00   3.42   43.4   26.9    0.8    3.4   3.42   1.16    0.00    0.82
 2004 308    58    55   30.7    0.0   30.7   0.00   3.38   45.1   29.6    1.1    3.4   3.38   1.07    0.00    0.91
 2004 309    59    56   33.2    0.0   33.2   0.00   3.35   47.8   31.9    1.3    3.3   3.35   1.08    0.00    0.99
 2004 310    60    57   34.1    0.0   34.1   0.00   3.33   49.7   32.7    1.4    3.3   3.33   1.11    0.00    1.06
 2004 311    61    58   35.1    0.0   35.1   0.00   3.33   54.0   33.6    1.5    3.3   3.33   1.20    0.00    1.15
 2004 312    62    59   36.6    0.0   36.6   0.00   3.30   57.2   34.8    1.7    3.3   3.30   1.18    0.00    1.25
 2004 313    63    60   38.8    0.0   38.8   0.00   3.27   59.6   36.7    2.1    3.3   3.27   1.12    0.00    1.36
 2004 314    64    61   40.9    0.0   40.9   0.00   3.24   61.1   38.4    2.5    3.2   3.24   1.08    0.00    1.47
 2004 315    65    62   42.6    0.0   42.6   0.00   3.21   63.1   39.8    2.8    3.2   3.21   1.08    0.00    1.57
 2004 316    66    63   44.5    0.0   44.5   0.00   3.19   66.6   41.2    3.3    3.2   3.19   1.12    0.00    1.68
 2004 317    67    64   46.9    0.0   46.9   0.00   3.16   70.1   43.1    3.9    3.2   3.16   1.12    0.00    1.80
 2004 318    68    65   49.3    0.0   49.3   0.00   3.14   73.9   44.8    4.5    3.1   3.14   1.12    0.00    1.92
 2004 319    69    66   52.4    0.0   52.4   0.00   3.11   77.1   47.0    5.3    3.1   3.11   1.10    0.00    2.05
 2004 320    70    67   56.4    0.0   56.4   0.00   3.08   83.0   49.8    6.6    3.1   3.08   1.12    0.00    2.17
 2004 321    71    68   60.5    0.0   60.5   0.00   3.05   87.4   52.4    8.0    3.0   3.05   1.10    0.00    2.31
 2004 322    72    69   63.8    0.0   63.8   0.00   3.02   93.7   54.6    9.3    3.0   3.02   1.14    0.00    2.45
 2004 323    73    70   66.8    0.0   66.8   0.00   3.00   99.0   56.4   10.4    3.0   3.00   1.14    0.00    2.61
 2004 324    74    71   69.4    0.0   69.4   0.00   2.98  103.0   57.9   11.5    3.0   2.98   1.13    0.00    2.77
 2004 325    75    72   72.3    0.0   72.3   0.00   2.96  107.4   59.6   12.7    3.0   2.96   1.12    0.00    2.95
 2004 326    76    73   75.8    0.0   75.8   0.00   2.93  113.2   61.5   14.2    2.9   2.93   1.13    0.00    3.13
 2004 327    77    74   80.6    0.0   80.6   0.00   2.90  119.5   64.1   16.5    2.9   2.90   1.12    0.00    3.32
 2004 328    78    75   87.1    0.0   87.1   0.00   2.87  126.7   67.3   19.7    2.9   2.87   1.10    0.00    3.52
 2004 329    79    76   90.0    0.0   90.0   0.00   2.83  128.3   68.6   21.5    2.8   2.83   1.07    0.00    3.72
 2004 330    80    77   95.7    0.0   95.7   0.00   2.79  133.9   71.1   24.6    2.8   2.79   1.07    0.00    3.91
 2004 331    81    78  102.2    0.0  102.2   0.00   2.76  141.7   73.8   28.4    2.8   2.76   1.09    0.00    4.11
 2004 332    82    79  109.3    0.0  109.3   0.00   2.73  148.2   79.7   29.6    2.7   2.73   1.07    0.00    4.31
 2004 333    83    80  118.0    0.0  118.0   0.00   2.70  156.9   83.8   34.2    2.7   2.70   1.07    0.00    4.51
 2004 334    84    81  126.0    0.0  126.0   0.00   2.67  166.9   86.9   39.1    2.7   2.67   1.10    0.00    4.71
 2004 335    85    82  132.5    0.0  132.5   0.00   2.64  175.1   89.1   43.5    2.6   2.64   1.10    0.00    4.92
 2004 336    86    83  139.5    0.0  139.5   0.00   2.61  183.1   91.1   48.4    2.6   2.61   1.10    0.00    5.13
 2004 337    87    84  147.7    0.0  147.7   0.00   2.57  191.8   93.1   54.6    2.6   2.57   1.09    0.00    5.36
 2004 338    88    85  155.8    0.0  155.8   0.00   2.53  199.6   94.8   61.0    2.5   2.53   1.08    0.00    5.58
 2004 339    89    86  162.1    0.0  162.1   0.00   2.49  205.7   95.9   66.2    2.5   2.49   1.07    0.00    5.80
 2004 340    90    87  165.7    0.0  165.7   0.00   2.43  210.7   95.7   70.1    2.4   2.43   1.08    0.00    6.02
 2004 341    91    88  169.7    0.0  169.7   0.00   2.38  214.9   95.6   74.1    2.4   2.38   1.07    0.00    6.25
 2004 342    92    89  173.8    0.0  173.8   0.00   2.37  218.6   96.6   77.2    2.4   2.37   1.07    0.00    6.48
 2004 343    93    90  176.8    0.0  176.8   0.00   2.31  221.7   96.0   80.8    2.3   2.31   1.07    0.00    6.71
 2004 344    94    91  179.0    0.0  179.0   0.00   2.26  224.5   95.5   83.5    2.3   2.26   1.06    0.00    6.93
[...]
 2010 014   129   126  152.1   45.9  106.2   1.60   1.30  200.2   49.6   56.6    1.3   1.30   0.86    0.00   12.32
 2010 015   130   127  152.9   49.2  103.7   1.59   1.27  201.5   48.4   55.3    1.3   1.27   0.86    0.00   12.56
 2010 016   131   128  153.6   52.8  100.9   1.58   1.24  202.7   47.1   53.8    1.2   1.24   0.86    0.00   12.81
 2010 017   132   129  154.3   56.6   97.7   1.57   1.20  203.7   45.6   52.1    1.2   1.20   0.86    0.00   13.05
 2010 018   133   130  154.9   60.3   94.6   1.56   1.16  204.6   44.2   50.4    1.2   1.16   0.86    0.00   13.30
 2010 019   134   131  155.4   64.0   91.4   1.55   1.12  205.3   42.7   48.7    1.1   1.12   0.87    0.00   13.55
 2010 020   135   132  156.0   67.2   88.7   1.54   1.09  206.2   41.4   47.3    1.1   1.09   0.87    0.00   13.79
 2010 021   136   133  156.8   70.3   86.5   1.53   1.06  207.4   40.4   46.1    1.1   1.06   0.87    0.00   14.04
 2010 022   137   134  157.5   73.5   84.0   1.52   1.03  208.5   39.2   44.8    1.0   1.03   0.86    0.00   14.30
 2010 023   138   135  158.3   76.7   81.5   1.50   1.00  209.6   38.1   43.5    1.0   1.00   0.86    0.00   14.55
 2010 024   139   136  158.9   80.1   78.9   1.49   0.97  210.5   36.8   42.0    1.0   0.97   0.86    0.00   14.81
 2010 025   140   137  159.6   83.3   76.3   1.48   0.94  211.5   35.6   40.7    0.9   0.94   0.86    0.00   15.06
 2010 026   141   138  160.3   86.5   73.8   1.47   0.90  212.5   34.4   39.3    0.9   0.90   0.86    0.00   15.32
 2010 027   142   139  161.0   89.6   71.4   1.46   0.87  213.5   33.3   38.0    0.9   0.87   0.87    0.00   15.58
 2010 028   143   140  161.6   92.6   69.0   1.44   0.85  214.5   32.2   36.8    0.8   0.85   0.87    0.00   15.84
 2010 029   144   141  162.3   95.6   66.8   1.43   0.82  215.4   31.2   35.6    0.8   0.82   0.87    0.00   16.10
 2010 030   145   142  163.0   98.4   64.5   1.42   0.79  216.3   30.1   34.4    0.8   0.79   0.87    0.00   16.37
 2010 031   146   143  163.6  101.2   62.4   1.41   0.76  217.2   29.1   33.2    0.8   0.76   0.88    0.00   16.63
 2010 032   147   144  164.2  104.0   60.2   1.39   0.74  218.1   28.3   31.9    0.7   0.74   0.88    0.00   16.90
 2010 033   148   145  164.7  106.7   58.1   1.38   0.73  218.8   27.7   30.3    0.7   0.73   0.89    0.00   17.17
 2010 034   149   146  165.4  109.4   56.0   1.37   0.70  219.7   26.6   29.3    0.7   0.70   0.90    0.00   17.43
 2010 035   150   147  165.8  111.8   54.0   1.36   0.68  220.3   26.1   27.9    0.7   0.68   0.90    0.00   17.70
 2010 036   151   148  166.2  114.0   52.2   1.34   0.67  220.8   25.6   26.6    0.7   0.67   0.91    0.00   17.97
 2010 037   152   149  166.5  116.4   50.1   1.33   0.66  221.3   25.1   25.0    0.7   0.66   0.92    0.00   18.24
 2010 038   153   150  166.5  116.4   50.1   1.33   0.66  221.7   25.1   25.0    0.7   0.66   0.92    0.00   18.24
 2010 039   154   151  166.5  116.4   50.1   1.33   0.66  222.1   25.1   25.0    0.7   0.66   0.92    0.00   18.24
 2010 040   155   152  166.5  116.4   50.1   1.33   0.66  222.5   25.1   25.0    0.7   0.66   0.92    0.00   18.24
 2010 041   156   153  166.5  116.4   50.1   1.33   0.66  222.9   25.1   25.0    0.7   0.66   0.92    0.00   18.24

*DSSAT Cropping System Model Ver. 4.0.2.000               Aug 12, 2016; 12:55:20

*RUN  11        : UYMZ                    
 MODEL          : MZCER040 - Maize           
 EXPERIMENT     : UYMZ0197 MZ    late to create DSS                             
 TREATMENT  1   : UYMZ                    

@YEAR DOY   DAS   DAP   CNAD   GNAD   VNAD   GN%D   VN%D   NUPC   LNAD   SNAD   LN%D   SN%D   RN%D   SNN0C   SNN1C
 2010 253     3     0    0.0    0.0    0.0   0.00   0.00    0.0    0.0    0.0    0.0   0.00   0.00    0.00    0.00
 2010 254     4     1    0.0    0.0    0.0   0.00   0.00    0.0    0.0    0.0    0.0   0.00   0.00    0.00    0.00
 2010 255     5     2    0.0    0.0    0.0   0.00   0.00    0.0    0.0    0.0    0.0   0.00   0.00    0.00    0.00
 2010 256     6     3    0.0    0.0    0.0   0.00   0.00    0.0    0.0    0.0    0.0   0.00   0.00    0.00    0.00
 2010 257     7     4    0.0    0.0    0.0   0.00   0.00    0.0    0.0    0.0    0.0   0.00   0.00    0.00    0.00
 2010 258     8     5    0.0    0.0    0.0   0.00   0.00    0.0    0.0    0.0    0.0   0.00   0.00    0.00    0.00
 2010 259     9     6    0.0    0.0    0.0   0.00   0.00    0.0    0.0    0.0    0.0   0.00   0.00    0.00    0.00
 2010 260    10     7    0.0    0.0    0.0   0.00   0.00    0.0    0.0    0.0    0.0   0.00   0.00    0.00    0.00
 2010 261    11     8    0.0    0.0    0.0   0.00   0.00    0.0    0.0    0.0    0.0   0.00   0.00    0.00    0.00
 2010 262    12     9    0.0    0.0    0.0   0.00   0.00    0.0    0.0    0.0    0.0   0.00   0.00    0.00    0.00
 2010 263    13    10    0.0    0.0    0.0   0.00   0.00    0.0    0.0    0.0    0.0   0.00   0.00    0.00    0.00
 2010 264    14    11    1.2    0.0    1.2   0.00   4.40    0.0    0.6    0.6    4.4   4.40   0.00    0.00    0.00
 2010 265    15    12    1.3    0.0    1.3   0.00   4.53    0.2    0.6    0.6    4.5   4.53   1.10    0.00    0.00
 2010 266    16    13    1.3    0.0    1.3   0.00   4.53    0.2    0.6    0.6    4.5   4.53   1.08    0.00    0.00
 2010 267    17    14    1.3    0.0    1.3   0.00   4.50    0.2    0.6    0.6    4.5   4.50   1.15    0.00    0.00
 2010 268    18    15    1.3    0.0    1.3   0.00   4.49    0.2    0.6    0.6    4.5   4.49   1.18    0.00    0.00
 2010 269    19    16    1.3    0.0    1.3   0.00   4.49    0.2    0.6    0.6    4.5   4.49   1.14    0.00    0.00
 2010 270    20    17    1.3    0.0    1.3   0.00   4.49    0.2    0.6    0.6    4.5   4.49   1.11    0.00    0.00
 2010 271    21    18    1.3    0.0    1.3   0.00   4.49    0.2    0.6    0.6    4.5   4.49   1.05    0.00    0.00
 2010 272    22    19    1.3    0.0    1.3   0.00   4.49    0.2    0.6    0.6    4.5   4.49   1.01    0.00    0.00
 2010 273    23    20    1.2    0.0    1.2   0.00   4.39    0.3    0.6    0.6    4.4   4.39   1.19    0.00    0.00
 2010 274    24    21    1.2    0.0    1.2   0.00   4.38    0.3    0.6    0.6    4.4   4.38   1.26    0.00    0.00
 2010 275    25    22    1.2    0.0    1.2   0.00   4.37    0.4    0.6    0.6    4.4   4.37   1.29    0.00    0.01
 2010 276    26    23    1.2    0.0    1.2   0.00   4.35    0.4    0.6    0.6    4.4   4.35   1.27    0.00    0.01
 2010 277    27    24    1.2    0.0    1.2   0.00   3.99    0.5    0.7    0.6    4.0   3.99   1.20    0.00    0.01
 2010 278    28    25    1.3    0.0    1.3   0.00   3.80    0.6    0.8    0.5    3.8   3.80   1.20    0.00    0.01
 2010 279    29    26    1.5    0.0    1.5   0.00   3.60    0.9    1.0    0.5    3.6   3.60   1.17    0.00    0.02
 2010 280    30    27    1.8    0.0    1.8   0.00   3.79    1.1    1.2    0.5    3.8   3.79   1.11    0.00    0.02
 2010 281    31    28    2.0    0.0    2.0   0.00   3.73    1.5    1.5    0.5    3.7   3.73   1.24    0.00    0.02
 2010 282    32    29    2.2    0.0    2.2   0.00   3.78    1.9    1.7    0.5    3.8   3.78   1.20    0.00    0.02
 2010 283    33    30    2.5    0.0    2.5   0.00   3.83    2.4    2.0    0.5    3.8   3.83   1.28    0.00    0.03
 2010 284    34    31    2.8    0.0    2.8   0.00   3.80    2.9    2.2    0.5    3.8   3.80   1.25    0.00    0.04
 2010 285    35    32    3.0    0.0    3.0   0.00   3.61    3.5    2.5    0.5    3.6   3.61   1.25    0.00    0.04
 2010 286    36    33    3.5    0.0    3.5   0.00   3.50    4.1    3.0    0.5    3.5   3.50   1.22    0.00    0.05
 2010 287    37    34    4.1    0.0    4.1   0.00   3.61    4.6    3.6    0.5    3.6   3.61   1.11    0.00    0.06
 2010 288    38    35    4.7    0.0    4.7   0.00   3.88    5.6    4.1    0.5    3.9   3.88   1.20    0.00    0.07
 2010 289    39    36    4.9    0.0    4.9   0.00   3.75    5.7    4.4    0.5    3.8   3.75   1.09    0.00    0.08
 2010 290    40    37    5.4    0.0    5.4   0.00   3.77    6.8    4.8    0.5    3.8   3.77   1.22    0.00    0.09
 2010 291    41    38    5.8    0.0    5.8   0.00   3.69    7.5    5.3    0.5    3.7   3.69   1.21    0.00    0.10
 2010 292    42    39    6.3    0.0    6.3   0.00   3.65    8.5    5.8    0.5    3.6   3.65   1.20    0.00    0.12
 2010 293    43    40    7.0    0.0    7.0   0.00   3.50    9.5    6.5    0.5    3.5   3.50   1.19    0.00    0.13
 2010 294    44    41    8.0    0.0    8.0   0.00   3.41   10.9    7.5    0.5    3.4   3.41   1.18    0.00    0.15
 2010 295    45    42    9.2    0.0    9.2   0.00   3.44   12.4    8.7    0.5    3.4   3.44   1.15    0.00    0.17
 2010 296    46    43   10.5    0.0   10.5   0.00   3.57   14.7   10.0    0.5    3.6   3.57   1.21    0.00    0.20
 2010 297    47    44   11.6    0.0   11.6   0.00   3.57   15.9   11.1    0.5    3.6   3.57   1.16    0.00    0.22
 2010 298    48    45   12.6    0.0   12.6   0.00   3.77   18.0   12.1    0.5    3.8   3.77   1.21    0.00    0.25
 2010 299    49    46   13.0    0.0   13.0   0.00   3.57   19.4   12.5    0.5    3.6   3.57   1.20    0.00    0.28
 2010 300    50    47   13.9    0.0   13.9   0.00   3.39   20.8   13.4    0.5    3.4   3.39   1.16    0.00    0.32
 2010 301    51    48   17.5    0.0   17.5   0.00   3.78   25.6   17.0    0.5    3.8   3.78   1.19    0.00    0.36
 2010 302    52    49   18.4    0.0   18.4   0.00   3.68   26.1   17.9    0.5    3.7   3.68   1.10    0.00    0.41
 2010 303    53    50   19.4    0.0   19.4   0.00   3.58   29.4   18.9    0.5    3.6   3.58   1.21    0.00    0.45
 2010 304    54    51   21.3    0.0   21.3   0.00   3.54   32.4   20.7    0.5    3.5   3.54   1.19    0.00    0.51
 2010 305    55    52   23.0    0.0   23.0   0.00   3.51   35.5   22.4    0.5    3.5   3.51   1.19    0.00    0.57
 2010 306    56    53   24.8    0.0   24.8   0.00   3.48   38.7   24.2    0.6    3.5   3.48   1.18    0.00    0.64
 2010 307    57    54   27.3    0.0   27.3   0.00   3.44   42.4   26.6    0.7    3.4   3.44   1.16    0.00    0.71
 2010 308    58    55   31.0    0.0   31.0   0.00   3.40   46.1   30.0    0.9    3.4   3.40   1.12    0.00    0.79
 2010 309    59    56   33.8    0.0   33.8   0.00   3.36   51.1   32.7    1.2    3.4   3.36   1.16    0.00    0.88
 2010 310    60    57   36.4    0.0   36.4   0.00   3.33   55.3   34.9    1.4    3.3   3.33   1.16    0.00    0.97
 2010 311    61    58   40.3    0.0   40.3   0.00   3.29   60.4   38.3    2.0    3.3   3.29   1.14    0.00    1.07
 2010 312    62    59   45.1    0.0   45.1   0.00   3.25   66.4   42.3    2.8    3.2   3.25   1.13    0.00    1.17
 2010 313    63    60   46.5    0.0   46.5   0.00   3.27   67.6   43.5    3.0    3.3   3.27   1.11    0.00    1.29
 2010 314    64    61   47.6    0.0   47.6   0.00   3.21   72.1   44.3    3.3    3.2   3.21   1.17    0.00    1.40
 2010 315    65    62   49.1    0.0   49.1   0.00   3.20   75.5   45.5    3.6    3.2   3.20   1.16    0.00    1.53
 2010 316    66    63   50.9    0.0   50.9   0.00   3.18   78.9   46.9    4.0    3.2   3.18   1.14    0.00    1.66
 2010 317    67    64   53.1    0.0   53.1   0.00   3.16   83.3   48.6    4.5    3.2   3.16   1.14    0.00    1.81
 2010 318    68    65   55.7    0.0   55.7   0.00   3.14   86.3   50.5    5.2    3.1   3.14   1.11    0.00    1.96
 2010 319    69    66   59.0    0.0   59.0   0.00   3.11   90.4   52.9    6.2    3.1   3.11   1.10    0.00    2.12
 2010 320    70    67   62.3    0.0   62.3   0.00   3.08   95.6   55.1    7.2    3.1   3.08   1.12    0.00    2.28
 2010 321    71    68   65.8    0.0   65.8   0.00   3.05  100.3   57.5    8.4    3.1   3.05   1.11    0.00    2.46
 2010 322    72    69   69.1    0.0   69.1   0.00   3.03  105.7   59.5    9.6    3.0   3.03   1.12    0.00    2.63
 2010 323    73    70   72.5    0.0   72.5   0.00   3.00  107.8   61.6   10.9    3.0   3.00   1.08    0.00    2.82
 2010 324    74    71   77.6    0.0   77.6   0.00   2.97  114.2   64.7   13.0    3.0   2.97   1.09    0.00    3.00
 2010 325    75    72   84.0    0.0   84.0   0.00   2.93  121.3   68.1   15.8    2.9   2.93   1.09    0.00    3.19
 2010 326    76    73   89.0    0.0   89.0   0.00   2.89  127.5   70.7   18.3    2.9   2.89   1.10    0.00    3.38
 2010 327    77    74   94.3    0.0   94.3   0.00   2.86  132.4   73.4   20.9    2.9   2.86   1.08    0.00    3.58
 2010 328    78    75  100.3    0.0  100.3   0.00   2.83  138.1   76.2   24.1    2.8   2.83   1.07    0.00    3.77
 2010 329    79    76  105.3    0.0  105.3   0.00   2.80  146.4   78.4   26.9    2.8   2.80   1.11    0.00    3.97
 2010 330    80    77  112.3    0.0  112.3   0.00   2.76  154.4   81.4   31.0    2.8   2.76   1.10    0.00    4.18
 2010 331    81    78  122.3    0.0  122.3   0.00   2.73  163.2   87.1   35.3    2.7   2.73   1.07    0.00    4.39
 2010 332    82    79  128.6    0.0  128.6   0.00   2.70  169.4   90.0   38.7    2.7   2.70   1.07    0.00    4.60
 2010 333    83    80  133.7    0.0  133.7   0.00   2.68  175.5   92.0   41.6    2.7   2.68   1.08    0.00    4.81
 2010 334    84    81  139.6    0.0  139.6   0.00   2.66  183.9   94.1   45.5    2.7   2.66   1.11    0.00    5.02
 2010 335    85    82  147.2    0.0  147.2   0.00   2.63  192.2   96.4   50.8    2.6   2.63   1.10    0.00    5.24
 2010 336    86    83  155.4    0.0  155.4   0.00   2.59  200.3   98.5   56.9    2.6   2.59   1.08    0.00    5.47
 2010 337    87    84  162.4    0.0  162.4   0.00   2.55  207.5  100.0   62.4    2.5   2.55   1.08    0.00    5.70
 2010 338    88    85  167.7    0.0  167.7   0.00   2.52  214.7  100.9   66.8    2.5   2.52   1.10    0.00    5.93
 2010 339    89    86  171.3    0.0  171.3   0.00   2.45  219.2  100.6   70.7    2.5   2.45   1.09    0.00    6.17
 2010 340    90    87  174.1    0.0  174.1   0.00   2.40  222.9  100.2   73.9    2.4   2.40   1.07    0.00    6.41
 2010 341    91    88  176.5    0.0  176.5   0.00   2.35  226.1   99.6   76.8    2.3   2.35   1.06    0.00    6.66
 2010 342    92    89  179.1    0.0  179.1   0.00   2.30  229.1   99.3   79.8    2.3   2.30   1.06    0.00    6.91
 2010 343    93    90  181.2    0.0  181.2   0.00   2.22  231.6   98.0   83.2    2.2   2.22   1.05    0.00    7.16
 2010 344    94    91  183.3    0.0  183.3   0.00   2.17  234.0   97.3   86.0    2.2   2.17   1.04    0.00    7.41
 2010 345    95    92  185.1    0.0  185.1   0.00   2.11  235.9   96.6   88.5    2.1   2.11   1.04    0.00    7.67
 2010 346    96    93  186.8    0.0  186.8   0.00   2.10  237.8   96.7   90.1    2.1   2.10   1.05    0.00    7.93
 2010 347    97    94  187.9    0.0  187.9   0.00   2.07  239.2   96.4   91.6    2.1   2.07   1.01    0.00    8.18
 2010 348    98    95  188.9    0.0  188.9   0.00   2.03  240.5   95.7   93.2    2.0   2.03   0.99    0.00    8.44
 2010 349    99    96  189.7    0.0  189.7   0.00   2.22  241.6  103.3   86.4    2.2   2.22   0.97    0.00    8.70
 2010 350   100    97  189.9    0.0  189.9   0.00   2.21  242.4  101.9   88.0    2.2   2.21   0.96    0.00    8.96
 2010 351   101    98  190.0    0.0  190.0   0.00   2.20  243.4  100.2   89.8    2.2   2.20   0.95    0.00    9.23
 2010 352   102    99  189.6    0.0  189.6   0.00   2.18  244.4   98.3   91.4    2.2   2.18   0.98    0.00    9.50
 2010 353   103   100  189.6    0.0  189.6   0.00   2.19  244.4   97.1   92.5    2.2   2.19   0.98    0.00    9.50
 2010 354   104   101  189.6    0.0  189.6   0.00   2.18  244.4   95.4   94.2    2.2   2.18   0.98    0.00    9.50
 2010 355   105   102  189.6    0.0  189.6   0.00   2.17  244.4   93.6   96.0    2.2   2.17   0.97    0.00    9.50
 2010 356   106   103  189.6    0.0  189.6   0.00   2.16  244.4   91.8   97.8    2.2   2.16   0.95    0.00    9.50
 2010 357   107   104  189.6    0.0  189.6   0.00   2.16  244.4   89.9   99.7    2.2   2.16   0.93    0.00    9.50
 2010 358   108   105  189.6    0.0  189.6   0.00   2.17  244.4   88.5  101.1    2.2   2.17   0.94    0.00    9.50
 2010 359   109   106  189.6    0.0  189.6   0.00   2.16  244.4   86.5  103.1    2.2   2.16   0.92    0.00    9.50
 2010 360   110   107  189.6    5.1  184.5   1.70   2.10  244.4   84.2  100.3    2.1   2.10   0.91    0.00    9.50
 2010 361   111   108  189.6   10.3  179.3   1.71   2.04  244.4   81.8   97.5    2.0   2.04   0.91    0.00    9.50
 2010 362   112   109  189.6   15.4  174.2   1.71   1.98  244.4   79.5   94.7    2.0   1.98   0.90    0.00    9.50
 2010 363   113   110  189.6   20.5  169.1   1.71   1.93  244.4   77.2   91.9    1.9   1.93   0.89    0.00    9.50
 2010 364   114   111  180.2   25.4  154.8   1.70   1.76  247.0   70.6   84.1    1.8   1.76   1.08    0.00    9.77
 2010 365   115   112  182.4   30.6  151.8   1.70   1.73  249.7   69.3   82.5    1.7   1.73   1.08    0.00   10.11
 2011 001   116   113  183.2   35.7  147.5   1.70   1.68  250.1   67.3   80.2    1.7   1.68   1.07    0.00   10.44
 2011 002   117   114  185.1   40.8  144.2   1.70   1.64  251.5   65.8   78.4    1.6   1.64   1.07    0.00   10.78
 2011 003   118   115  185.1   45.5  139.6   1.70   1.61  251.5   64.4   75.2    1.6   1.61   1.07    0.00   10.78
 2011 004   119   116  188.5   50.6  137.9   1.70   1.58  254.3   63.5   74.4    1.6   1.58   1.07    0.00   11.11
 2011 005   120   117  191.0   55.7  135.2   1.70   1.55  256.4   62.2   73.0    1.6   1.55   1.07    0.00   11.44
 2011 006   121   118  193.4   60.9  132.5   1.70   1.51  259.6   60.5   72.0    1.5   1.51   1.07    0.00   11.77
 2011 007   122   119  194.8   66.3  128.5   1.71   1.46  261.3   58.7   69.9    1.5   1.46   1.06    0.00   12.10
 2011 008   123   120  196.1   71.5  124.6   1.71   1.42  262.8   56.9   67.7    1.4   1.42   1.06    0.00   12.43
 2011 009   124   121  197.1   76.8  120.3   1.71   1.37  264.0   54.9   65.4    1.4   1.37   1.06    0.00   12.77
 2011 010   125   122  198.5   81.9  116.6   1.71   1.33  265.4   53.5   63.1    1.3   1.33   1.07    0.00   13.10
 2011 011   126   123  199.7   87.1  112.6   1.71   1.29  266.5   51.8   60.8    1.3   1.29   1.07    0.00   13.43
 2011 012   127   124  200.6   92.2  108.5   1.71   1.24  267.4   49.7   58.8    1.2   1.24   1.07    0.00   13.77
 2011 013   128   125  201.5   97.1  104.4   1.71   1.19  268.4   47.7   56.8    1.2   1.19   1.07    0.00   14.10
 2011 014   129   126  202.8  102.0  100.9   1.70   1.15  269.8   46.0   54.8    1.1   1.15   1.06    0.00   14.43
 2011 015   130   127  203.9  106.7   97.1   1.70   1.11  271.0   44.3   52.8    1.1   1.11   1.06    0.00   14.77
 2011 016   131   128  204.8  111.5   93.3   1.69   1.06  272.0   42.6   50.7    1.1   1.06   1.06    0.00   15.10
 2011 017   132   129  206.0  116.0   90.0   1.68   1.03  273.2   41.1   48.9    1.0   1.03   1.06    0.00   15.44
 2011 018   133   130  206.9  120.4   86.5   1.67   0.99  274.2   39.5   47.0    1.0   0.99   1.06    0.00   15.77
 2011 019   134   131  208.0  124.7   83.3   1.66   0.95  275.4   38.0   45.3    0.9   0.95   1.06    0.00   16.11
 2011 020   135   132  208.9  128.8   80.1   1.65   0.91  276.4   36.6   43.5    0.9   0.91   1.05    0.00   16.44
 2011 021   136   133  210.0  132.5   77.4   1.64   0.88  277.5   35.3   42.1    0.9   0.88   1.05    0.00   16.78
 2011 022   137   134  210.8  136.5   74.3   1.63   0.85  278.5   33.9   40.4    0.8   0.85   1.05    0.00   17.11
 2011 023   138   135  211.8  140.3   71.5   1.62   0.81  279.5   32.6   38.8    0.8   0.81   1.05    0.00   17.45
 2011 024   139   136  212.6  144.2   68.4   1.60   0.78  280.4   31.2   37.2    0.8   0.78   1.05    0.00   17.78
 2011 025   140   137  213.4  147.8   65.6   1.59   0.75  281.3   29.9   35.7    0.7   0.75   1.05    0.00   18.12
 2011 026   141   138  214.0  151.2   62.8   1.58   0.73  282.0   29.2   33.6    0.7   0.73   1.06    0.00   18.46
 2011 027   142   139  214.0  151.2   62.8   1.58   0.73  282.6   29.2   33.6    0.7   0.73   1.06    0.00   18.46
 2011 028   143   140  214.0  151.2   62.8   1.58   0.73  283.3   29.2   33.6    0.7   0.73   1.06    0.00   18.46
 2011 029   144   141  214.0  151.2   62.8   1.58   0.73  284.0   29.2   33.6    0.7   0.73   1.06    0.00   18.46
