*GROWTH ASPECTS OUTPUT FILE

*DSSAT Cropping System Model Ver. 4.0.2.000               Aug 12, 2016; 12:55:20

*RUN   1        : UYMZ                    
 MODEL          : MZCER040 - Maize           
 EXPERIMENT     : UYMZ0197 MZ    late to create DSS                             
 TREATMENT  1   : UYMZ                    

@YEAR DOY   DAS   DAP   L#SD   GSTD   LAID   LWAD   SWAD   GWAD   RWAD   CWAD   G#AD   GWGD   HIAD   PWAD   P#AD   WSPD   WSGD   NSTD   EWSD   LN%D   SH%D   HIPD   PWDD   PWTD     SLAD   CHTD   CWID   RDPD   RL1D   RL2D   RL3D   RL4D   RL5D   RL6D   RL7D   RL8D   RL9D   RL10   CDAD   LDAD   SDAD   SNW0C   SNW1C
 2000 253     3     0    0.0      0   0.00      0      0      0      0      0      0    0.0  0.000      0      0  0.000  0.000  0.000  0.000   0.00   0.00   0.00      0      0      0.0   0.00   0.00   0.03   0.00   0.00   0.00   0.00   0.00   0.00   0.00   0.00   0.00   0.00      0      0      0       0       0
 2000 254     4     1    0.0      0   0.00      0      0      0      0      0      0    0.0  0.000      0      0  0.000  0.000  0.000  0.000   0.00   0.00   0.00      0      0      0.0   0.00   0.00   0.04   0.00   0.00   0.00   0.00   0.00   0.00   0.00   0.00   0.00   0.00      0      0      0       0       0
 2000 255     5     2    0.0      0   0.00      0      0      0      0      0      0    0.0  0.000      0      0  0.000  0.000  0.000  0.000   0.00   0.00   0.00      0      0      0.0   0.00   0.00   0.06   0.00   0.00   0.00   0.00   0.00   0.00   0.00   0.00   0.00   0.00      0      0      0       0       0
 2000 256     6     3    0.0      0   0.00      0      0      0      0      0      0    0.0  0.000      0      0  0.000  0.000  0.000  0.000   0.00   0.00   0.00      0      0      0.0   0.00   0.00   0.06   0.00   0.00   0.00   0.00   0.00   0.00   0.00   0.00   0.00   0.00      0      0      0       0       0
 2000 257     7     4    0.0      0   0.00      0      0      0      0      0      0    0.0  0.000      0      0  0.000  0.000  0.000  0.000   0.00   0.00   0.00      0      0      0.0   0.00   0.00   0.06   0.00   0.00   0.00   0.00   0.00   0.00   0.00   0.00   0.00   0.00      0      0      0       0       0
 2000 258     8     5    0.0      0   0.00      0      0      0      0      0      0    0.0  0.000      0      0  0.000  0.000  0.000  0.000   0.00   0.00   0.00      0      0      0.0   0.00   0.00   0.06   0.00   0.00   0.00   0.00   0.00   0.00   0.00   0.00   0.00   0.00      0      0      0       0       0
 2000 259     9     6    0.0      0   0.00      0      0      0      0      0      0    0.0  0.000      0      0  0.000  0.000  0.000  0.000   0.00   0.00   0.00      0      0      0.0   0.00   0.00   0.07   0.00   0.00   0.00   0.00   0.00   0.00   0.00   0.00   0.00   0.00      0      0      0       0       0
 2000 260    10     7    0.0      0   0.00      0      0      0      0      0      0    0.0  0.000      0      0  0.000  0.000  0.000  0.000   0.00   0.00   0.00      0      0      0.0   0.00   0.00   0.08   0.00   0.00   0.00   0.00   0.00   0.00   0.00   0.00   0.00   0.00      0      0      0       0       0
 2000 261    11     8    0.0      0   0.00      0      0      0      0      0      0    0.0  0.000      0      0  0.000  0.000  0.000  0.000   0.00   0.00   0.00      0      0      0.0   0.00   0.00   0.09   0.00   0.00   0.00   0.00   0.00   0.00   0.00   0.00   0.00   0.00      0      0      0       0       0
 2000 262    12     9    0.0      0   0.00      0      0      0      0      0      0    0.0  0.000      0      0  0.000  0.000  0.000  0.000   0.00   0.00   0.00      0      0      0.0   0.00   0.00   0.10   0.00   0.00   0.00   0.00   0.00   0.00   0.00   0.00   0.00   0.00      0      0      0       0       0
 2000 263    13    10    0.0      0   0.00      0      0      0      0      0      0    0.0  0.000      0      0  0.000  0.000  0.000  0.000   0.00   0.00   0.00      0      0      0.0   0.00   0.00   0.12   0.00   0.00   0.00   0.00   0.00   0.00   0.00   0.00   0.00   0.00      0      0      0       0       0
 2000 264    14    11    0.0      0   0.00      0      0      0      0      0      0    0.0  0.000      0      0  0.000  0.000  0.000  0.000   0.00   0.00   0.00      0      0      0.0   0.00   0.00   0.13   0.00   0.00   0.00   0.00   0.00   0.00   0.00   0.00   0.00   0.00      0      0      0       0       0
 2000 265    15    12    1.0      1   0.00     14     14      0     14     28      0    0.0  0.000      0      0  0.000  0.000  0.012  0.000   4.40   0.00   0.00      0      0     14.4   0.00   0.00   0.14   0.27   0.11   0.00   0.00   0.00   0.00   0.00   0.00   0.00   0.00      0      0      0       0       0
 2000 266    16    13    2.0      1   0.00     14     14      0     14     28      0    0.0  0.000      0      0  0.000  0.000  0.017  0.000   4.54   0.00   0.00      0      0     24.1   0.00   0.00   0.14   0.27   0.12   0.00   0.00   0.00   0.00   0.00   0.00   0.00   0.00      0      0      0       0       0
 2000 267    17    14    2.0      1   0.01     14     14      0     15     28      0    0.0  0.000      0      0  0.000  0.000  0.000  0.000   4.54   0.00   0.00      0      0     36.1   0.00   0.00   0.15   0.27   0.12   0.00   0.00   0.00   0.00   0.00   0.00   0.00   0.00      0      0      0       0       0
 2000 268    18    15    2.0      1   0.01     14     14      0     15     28      0    0.0  0.000      0      0  0.000  0.000  0.000  0.000   4.52   0.00   0.00      0      0     38.9   0.00   0.00   0.15   0.26   0.13   0.00   0.00   0.00   0.00   0.00   0.00   0.00   0.00      0      0      0       0       0
 2000 269    19    16    2.0      1   0.00     14     14      0     15     28      0    0.0  0.000      0      0  0.000  0.000  0.000  0.000   4.51   0.00   0.00      0      0     35.1   0.00   0.00   0.16   0.26   0.14   0.00   0.00   0.00   0.00   0.00   0.00   0.00   0.00      0      0      0       0       0
 2000 270    20    17    2.0      1   0.00     14     14      0     16     28      0    0.0  0.000      0      0  0.000  0.000  0.000  0.000   4.51   0.00   0.00      0      0     33.9   0.00   0.00   0.16   0.27   0.14   0.00   0.00   0.00   0.00   0.00   0.00   0.00   0.00      0      0      0       0       0
 2000 271    21    18    2.0      1   0.01     14     14      0     17     28      0    0.0  0.000      0      0  0.000  0.000  0.000  0.000   4.51   0.00   0.00      0      0     51.0   0.00   0.00   0.17   0.27   0.16   0.00   0.00   0.00   0.00   0.00   0.00   0.00   0.00      0      0      0       0       0
 2000 272    22    19    3.0      1   0.01     14     14      0     18     28      0    0.0  0.000      0      0  0.000  0.000  0.000  0.000   4.45   0.00   0.00      0      0     75.6   0.00   0.00   0.18   0.27   0.17   0.01   0.00   0.00   0.00   0.00   0.00   0.00   0.00      0      0      0       0       0
 2000 273    23    20    3.0      1   0.01     14     14      0     20     28      0    0.0  0.000      0      0  0.000  0.000  0.000  0.000   4.42   0.00   0.00      0      0    103.6   0.00   0.00   0.19   0.28   0.19   0.01   0.00   0.00   0.00   0.00   0.00   0.00   0.00      0      0      0       0       0
 2000 274    24    21    3.0      1   0.02     14     14      0     22     28      0    0.0  0.000      0      0  0.000  0.000  0.000  0.000   4.39   0.00   0.00      0      0    134.0   0.00   0.00   0.20   0.28   0.21   0.03   0.00   0.00   0.00   0.00   0.00   0.00   0.00      0      0      0       0       0
 2000 275    25    22    4.0      1   0.03     14     14      0     25     28      0    0.0  0.000      0      0  0.000  0.000  0.000  0.000   4.36   0.00   0.00      0      0    239.1   0.00   0.00   0.22   0.28   0.23   0.04   0.00   0.00   0.00   0.00   0.00   0.00   0.00      0      0      0       0       1
 2000 276    26    23    4.0      1   0.04     14     14      0     27     28      0    0.0  0.000      0      0  0.000  0.000  0.000  0.383   4.34   0.00   0.00      0      0    292.0   0.00   0.00   0.23   0.27   0.24   0.05   0.00   0.00   0.00   0.00   0.00   0.00   0.00      0      0      0       0       1
 2000 277    27    24    4.0      1   0.05     14     14      0     31     28      0    0.0  0.000      0      0  0.000  0.000  0.000  0.458   4.25   0.00   0.00      0      0    332.1   0.00   0.00   0.23   0.25   0.25   0.08   0.00   0.00   0.00   0.00   0.00   0.00   0.00      0      0      0       0       1
 2000 278    28    25    5.0      1   0.06     18     14      0     37     32      0    0.0  0.000      0      0  0.000  0.000  0.000  0.231   3.85   0.00   0.00      0      0    320.5   0.00   0.00   0.24   0.24   0.28   0.12   0.00   0.00   0.00   0.00   0.00   0.00   0.00      0      0      0       0       1
 2000 279    29    26    5.0      1   0.07     21     14      0     46     35      0    0.0  0.000      0      0  0.000  0.000  0.000  0.078   3.86   0.00   0.00      0      0    310.7   0.00   0.00   0.25   0.24   0.34   0.19   0.00   0.00   0.00   0.00   0.00   0.00   0.00      0      0      0       0       1
 2000 280    30    27    5.0      1   0.07     25     14      0     57     39      0    0.0  0.000      0      0  0.000  0.000  0.000  0.033   3.89   0.00   0.00      0      0    300.1   0.00   0.00   0.25   0.25   0.40   0.27   0.00   0.00   0.00   0.00   0.00   0.00   0.00      0      0      0       0       1
 2000 281    31    28    5.0      1   0.09     30     14      0     69     44      0    0.0  0.000      0      0  0.000  0.000  0.000  0.000   3.70   0.00   0.00      0      0    289.4   0.00   0.00   0.26   0.27   0.48   0.37   0.00   0.00   0.00   0.00   0.00   0.00   0.00      0      0      0       0       2
 2000 282    32    29    5.0      1   0.11     38     14      0     84     52      0    0.0  0.000      0      0  0.000  0.000  0.000  0.000   3.58   0.00   0.00      0      0    277.6   0.00   0.00   0.27   0.30   0.57   0.50   0.00   0.00   0.00   0.00   0.00   0.00   0.00      0      0      0       0       2
 2000 283    33    30    6.0      1   0.12     44     14      0     87     58      0    0.0  0.000      0      0  0.000  0.000  0.000  0.000   3.74   0.00   0.00      0      0    269.8   0.00   0.00   0.28   0.31   0.54   0.49   0.00   0.00   0.00   0.00   0.00   0.00   0.00      0      0      0       0       2
 2000 284    34    31    6.0      1   0.13     51     14      0    107     65      0    0.0  0.000      0      0  0.000  0.000  0.000  0.000   3.78   0.00   0.00      0      0    263.3   0.00   0.00   0.28   0.49   0.61   0.60   0.00   0.00   0.00   0.00   0.00   0.00   0.00      0      0      0       0       3
 2000 285    35    32    6.0      1   0.15     58     14      0    132     72      0    0.0  0.000      0      0  0.000  0.000  0.000  0.108   3.74   0.00   0.00      0      0    256.5   0.00   0.00   0.29   0.71   0.69   0.76   0.00   0.00   0.00   0.00   0.00   0.00   0.00      0      0      0       0       3
 2000 286    36    33    6.0      1   0.19     76     14      0    151     90      0    0.0  0.000      0      0  0.000  0.000  0.000  0.020   3.32   0.00   0.00      0      0    242.9   0.00   0.00   0.31   0.89   0.76   0.90   0.00   0.00   0.00   0.00   0.00   0.00   0.00      0      0      0       0       4
 2000 287    37    34    7.0      1   0.21     90     14      0    179    104      0    0.0  0.000      0      0  0.000  0.000  0.000  0.000   3.58   0.00   0.00      0      0    234.8   0.00   0.00   0.31   1.15   0.87   1.10   0.01   0.00   0.00   0.00   0.00   0.00   0.00      0      0      0       0       5
 2000 288    38    35    7.0      1   0.24    103     14      0    184    117      0    0.0  0.000      0      0  0.000  0.000  0.000  0.000   3.62   0.00   0.00      0      0    228.2   0.00   0.00   0.32   1.19   0.89   1.14   0.01   0.00   0.00   0.00   0.00   0.00   0.00      0      0      0       0       6
 2000 289    39    36    7.0      1   0.26    117     14      0    192    131      0    0.0  0.000      0      0  0.000  0.000  0.000  0.000   3.65   0.00   0.00      0      0    222.4   0.00   0.00   0.33   1.26   0.92   1.19   0.01   0.00   0.00   0.00   0.00   0.00   0.00      0      0      0       0       7
 2000 290    40    37    7.0      1   0.30    137     14      0    204    151      0    0.0  0.000      0      0  0.000  0.000  0.000  0.000   3.50   0.00   0.00      0      0    215.2   0.00   0.00   0.33   1.36   0.99   1.26   0.02   0.00   0.00   0.00   0.00   0.00   0.00      0      0      0       0       8
 2000 291    41    38    8.0      1   0.33    161     14      0    217    175      0    0.0  0.000      0      0  0.000  0.000  0.000  0.000   3.48   0.00   0.00      0      0    208.3   0.00   0.00   0.35   1.47   1.06   1.35   0.03   0.00   0.00   0.00   0.00   0.00   0.00      0      0      0       0       9
 2000 292    42    39    8.0      1   0.38    188     14      0    222    202      0    0.0  0.000      0      0  0.000  0.000  0.000  0.000   3.45   0.00   0.00      0      0    201.7   0.00   0.00   0.36   1.51   1.09   1.37   0.04   0.00   0.00   0.00   0.00   0.00   0.00      0      0      0       0      10
 2000 293    43    40    8.0      1   0.42    213     14      0    247    227      0    0.0  0.000      0      0  0.000  0.000  0.000  0.000   3.53   0.00   0.00      0      0    196.4   0.00   0.00   0.38   1.67   1.23   1.51   0.07   0.00   0.00   0.00   0.00   0.00   0.00      0      0      0       0      11
 2000 294    44    41    8.0      1   0.47    250     14      0    252    264      0    0.0  0.000      0      0  0.000  0.000  0.000  0.000   3.39   0.00   0.00      0      0    190.1   0.00   0.00   0.39   1.71   1.26   1.53   0.07   0.00   0.00   0.00   0.00   0.00   0.00      0      0      0       0      12
 2000 295    45    42    9.0      1   0.54    292     14      0    300    306      0    0.0  0.000      0      0  0.000  0.000  0.000  0.049   3.37   0.00   0.00      0      0    184.0   0.00   0.00   0.41   2.03   1.54   1.79   0.16   0.00   0.00   0.00   0.00   0.00   0.00      0      0      0       0      13
 2000 296    46    43    9.0      2   0.58    294     14      0    328    308      0    0.0  0.000      0      0  0.000  0.000  0.000  0.280   3.86   0.00   0.00      0      0    196.1   0.00   0.00   0.43   2.05   1.60   1.84   0.20   0.00   0.00   0.00   0.00   0.00   0.00      0      0      0       0      15
 2000 297    47    44    9.0      2   0.62    320     14      0    345    334      0    0.0  0.000      0      0  0.000  0.000  0.002  0.222   3.59   0.00   0.00      0      0    192.7   0.00   0.00   0.44   2.04   1.63   1.85   0.22   0.00   0.00   0.00   0.00   0.00   0.00      0      0      0       0      16
 2000 298    48    45   10.0      2   0.67    354     14      0    359    368      0    0.0  0.000      0      0  0.000  0.000  0.000  0.201   3.47   0.00   0.00      0      0    188.7   0.00   0.00   0.45   2.06   1.67   1.88   0.25   0.00   0.00   0.00   0.00   0.00   0.00      0      0      0       0      18
 2000 299    49    46   10.0      2   0.71    383     14      0    404    397      0    0.0  0.000      0      0  0.000  0.000  0.000  0.435   3.78   0.00   0.00      0      0    185.6   0.00   0.00   0.47   2.03   1.79   2.02   0.34   0.01   0.00   0.00   0.00   0.00   0.00      0      0      0       0      20
 2000 300    50    47   10.0      3   0.75    414     14      0    441    428      0    0.0  0.000      0      0  0.000  0.000  0.022  0.498   3.68   0.00   0.00      0      0    181.1   0.00   0.00   0.48   1.94   1.87   2.12   0.41   0.03   0.00   0.00   0.00   0.00   0.00      0      0      0       0      22
 2000 301    51    48   11.0      3   0.82    463     14      0    548    478      0    0.0  0.000      0      0  0.000  0.000  0.022  0.215   3.57   0.00   0.00      0      0    177.1   0.00   0.00   0.50   1.97   2.32   2.68   0.65   0.10   0.00   0.00   0.00   0.00   0.00      0      0      0       0      24
 2000 302    52    49   11.0      3   0.87    497     15      0    671    512      0    0.0  0.000      0      0  0.000  0.000  0.022  0.021   3.54   0.00   0.00      0      0    174.4   0.00   0.00   0.51   2.05   2.85   3.36   0.93   0.21   0.00   0.00   0.00   0.00   0.00      0      0      0       0      27
 2000 303    53    50   11.0      3   0.90    522     15      0    795    538      0    0.0  0.000      0      0  0.000  0.000  0.022  0.004   3.55   0.00   0.00      0      0    172.5   0.00   0.00   0.51   2.17   3.39   4.00   1.23   0.34   0.00   0.00   0.00   0.00   0.00      0      0      0       0      30
 2000 304    54    51   11.0      3   0.98    580     17      0    919    597      0    0.0  0.000      0      0  0.000  0.000  0.022  0.003   3.50   0.00   0.00      0      0    168.9   0.00   0.00   0.52   2.30   3.92   4.00   1.52   0.49   0.00   0.00   0.00   0.00   0.00      0      0      0       0      34
 2000 305    55    52   11.0      3   1.07    650     20      0   1035    669      0    0.0  0.000      0      0  0.000  0.000  0.022  0.003   3.46   0.00   0.00      0      0    165.2   0.00   0.00   0.54   2.43   4.00   4.00   1.81   0.66   0.00   0.00   0.00   0.00   0.00      0      0      0       0      39
 2000 306    56    53   12.0      3   1.19    736     25      0   1034    761      0    0.0  0.000      0      0  0.000  0.000  0.022  0.002   3.43   0.00   0.00      0      0    161.2   0.00   0.00   0.55   2.41   3.99   3.99   1.80   0.66   0.00   0.00   0.00   0.00   0.00      0      0      0       0      44
 2000 307    57    54   12.0      3   1.28    813     31      0   1123    843      0    0.0  0.000      0      0  0.000  0.000  0.022  0.000   3.40   0.00   0.00      0      0    158.1   0.00   0.00   0.57   2.45   4.00   4.00   2.03   0.84   0.00   0.00   0.00   0.00   0.00      0      0      0       0      49
 2000 308    58    55   12.0      3   1.37    878     37      0   1285    915      0    0.0  0.000      0      0  0.000  0.000  0.022  0.000   3.37   0.00   0.00      0      0    155.5   0.00   0.00   0.58   2.51   4.00   4.00   2.47   1.22   0.00   0.00   0.00   0.00   0.00      0      0      0       0      55
 2000 309    59    56   12.0      3   1.44    943     44      0   1374    987      0    0.0  0.000      0      0  0.000  0.000  0.022  0.000   3.35   0.00   0.00      0      0    153.2   0.00   0.00   0.59   2.52   4.00   4.00   2.72   1.47   0.00   0.00   0.00   0.00   0.00      0      0      0       0      61
 2000 310    60    57   13.0      3   1.53   1016     54      0   1535   1071      0    0.0  0.000      0      0  0.000  0.000  0.022  0.000   3.32   0.00   0.00      0      0    150.8   0.00   0.00   0.60   2.53   4.00   4.00   3.19   1.96   0.00   0.00   0.00   0.00   0.00      0      0      0       0      68
 2000 311    61    58   13.0      3   1.64   1106     69      0   1670   1175      0    0.0  0.000      0      0  0.000  0.000  0.022  0.000   3.29   0.00   0.00      0      0    148.3   0.00   0.00   0.61   2.54   4.00   4.00   3.61   2.44   0.00   0.00   0.00   0.00   0.00      0      0      0       0      76
 2000 312    62    59   13.0      3   1.75   1198     88      0   1698   1286      0    0.0  0.000      0      0  0.000  0.000  0.022  0.000   3.25   0.00   0.00      0      0    145.8   0.00   0.00   0.62   2.51   4.00   4.00   3.68   2.54   0.01   0.00   0.00   0.00   0.00      0      0      0       0      84
 2000 313    63    60   14.0      3   1.87   1307    114      0   1749   1421      0    0.0  0.000      0      0  0.000  0.000  0.022  0.000   3.22   0.00   0.00      0      0    143.3   0.00   0.00   0.64   2.48   4.00   4.00   3.82   2.72   0.04   0.00   0.00   0.00   0.00      0      0      0       0      93
 2000 314    64    61   14.0      3   1.97   1397    139      0   1755   1536      0    0.0  0.000      0      0  0.000  0.000  0.022  0.000   3.19   0.00   0.00      0      0    141.3   0.00   0.00   0.65   2.45   3.97   3.98   3.83   2.74   0.05   0.00   0.00   0.00   0.00      0      0      0       0     101
 2000 315    65    62   14.0      3   2.07   1488    168      0   1894   1656      0    0.0  0.000      0      0  0.000  0.000  0.022  0.001   3.16   0.00   0.00      0      0    139.4   0.00   0.00   0.66   2.45   4.00   4.00   4.00   3.33   0.21   0.00   0.00   0.00   0.00      0      0      0       0     110
 2000 316    66    63   14.0      3   2.19   1592    207      0   2007   1799      0    0.0  0.000      0      0  0.000  0.000  0.022  0.002   3.12   0.00   0.00      0      0    137.5   0.00   0.00   0.68   2.47   3.99   3.99   4.00   3.88   0.43   0.00   0.00   0.00   0.00      0      0      0       0     120
 2000 317    67    64   15.0      3   2.32   1711    258      0   2106   1968      0    0.0  0.000      0      0  0.000  0.000  0.022  0.002   3.08   0.00   0.00      0      0    135.4   0.00   0.00   0.69   2.48   3.99   3.99   4.00   4.00   0.65   0.00   0.00   0.00   0.00      0      0      0       0     130
 2000 318    68    65   15.0      3   2.40   1792    295      0   2215   2087      0    0.0  0.000      0      0  0.000  0.000  0.022  0.001   3.06   0.00   0.00      0      0    134.0   0.00   0.00   0.70   2.51   4.00   4.00   4.00   4.00   0.93   0.00   0.00   0.00   0.00      0      0      0       0     140
 2000 319    69    66   15.0      3   2.43   1827    313      0   2350   2140      0    0.0  0.000      0      0  0.000  0.000  0.022  0.000   3.07   0.00   0.00      0      0    133.2   0.00   0.00   0.71   2.56   4.00   4.00   4.00   4.00   1.30   0.00   0.00   0.00   0.00      0      0      0       0     151
 2000 320    70    67   15.0      3   2.44   1858    329      0   2467   2187      0    0.0  0.000      0      0  0.000  0.000  0.022  0.000   3.06   0.00   0.00      0      0    131.5   0.00   0.00   0.71   2.61   4.00   4.00   4.00   4.00   1.65   0.00   0.00   0.00   0.00      0      0      0       0     163
 2000 321    71    68   15.0      3   2.50   1918    361      0   2682   2280      0    0.0  0.000      0      0  0.000  0.000  0.022  0.000   3.02   0.00   0.00      0      0    130.5   0.00   0.00   0.72   2.72   4.00   4.00   4.00   4.00   2.31   0.00   0.00   0.00   0.00      0      0      0       0     175
 2000 322    72    69   16.0      3   2.59   2005    412      0   2875   2417      0    0.0  0.000      0      0  0.000  0.000  0.022  0.000   2.96   0.00   0.00      0      0    129.2   0.00   0.00   0.73   2.83   4.00   4.00   4.00   4.00   2.97   0.00   0.00   0.00   0.00      0      0      0       0     189
 2000 323    73    70   16.0      3   2.69   2106    478      0   3055   2584      0    0.0  0.000      0      0  0.000  0.000  0.022  0.000   2.97   0.00   0.00      0      0    127.9   0.00   0.00   0.74   4.00   4.00   4.00   4.00   4.00   3.20   0.00   0.00   0.00   0.00      0      0      0       0     203
 2000 324    74    71   16.0      3   2.82   2229    566      0   3201   2795      0    0.0  0.000      0      0  0.000  0.000  0.022  0.000   2.94   0.00   0.00      0      0    126.4   0.00   0.00   0.76   4.00   4.00   4.00   4.00   4.00   3.28   0.00   0.00   0.00   0.00      0      0      0       0     218
 2000 325    75    72   16.0      3   2.89   2303    624      0   3418   2928      0    0.0  0.000      0      0  0.000  0.000  0.022  0.000   2.91   0.00   0.00      0      0    125.5   0.00   0.00   0.76   4.00   4.00   4.00   4.00   4.00   3.41   0.00   0.00   0.00   0.00      0      0      0       0     234
 2000 326    76    73   17.0      3   2.98   2395    701      0   3607   3096      0    0.0  0.000      0      0  0.000  0.000  0.022  0.000   2.89   0.00   0.00      0      0    124.4   0.00   0.00   0.78   4.00   4.00   4.00   4.00   4.00   3.53   0.00   0.00   0.00   0.00      0      0      0       0     251
 2000 327    77    74   17.0      3   3.11   2524    820      0   3692   3344      0    0.0  0.000      0      0  0.000  0.000  0.022  0.000   2.86   0.00   0.00      0      0    123.0   0.00   0.00   0.79   4.00   4.00   4.00   4.00   4.00   3.58   0.00   0.00   0.00   0.00      0      0      0       0     270
 2000 328    78    75   17.0      3   3.26   2683    983      0   3757   3666      0    0.0  0.000      0      0  0.000  0.000  0.022  0.000   2.82   0.00   0.00      0      0    121.6   0.00   0.00   0.81   4.00   4.00   4.00   3.99   4.00   3.60   0.00   0.00   0.00   0.00      0      0      0       0     288
 2000 329    79    76   18.0      3   3.34   2768   1077      0   3808   3845      0    0.0  0.000      0      0  0.000  0.000  0.022  0.000   2.79   0.00   0.00      0      0    120.6   0.00   0.00   0.82   4.00   4.00   4.00   3.99   4.00   3.62   0.00   0.00   0.00   0.00      0      0      0       0     307
 2000 330    80    77   18.0      3   3.41   2848   1168      0   3993   4016      0    0.0  0.000      0      0  0.000  0.000  0.022  0.000   2.77   0.00   0.00      0      0    119.8   0.00   0.00   0.83   4.00   4.00   4.00   4.00   4.00   3.73   0.00   0.00   0.00   0.00      0      0      0       0     326
 2000 331    81    78   18.0      3   3.52   2968   1318      0   4140   4286      0    0.0  0.000      0      0  0.000  0.000  0.022  0.000   2.74   0.00   0.00      0      0    118.7   0.00   0.00   0.84   4.00   4.00   4.00   4.00   4.00   3.82   0.00   0.00   0.00   0.00      0      0      0       0     346
 2000 332    82    79   18.0      3   3.67   3119   1389      0   4132   4508      0    0.0  0.000      0      0  0.000  0.000  0.022  0.000   2.71   0.00   0.00      0      0    117.5   0.00   0.00   0.86   4.00   4.00   4.00   3.98   3.98   3.81   0.00   0.00   0.00   0.00      0      0      0       0     366
 2000 333    83    80   19.0      3   3.73   3198   1466      0   4120   4664      0    0.0  0.000      0      0  0.000  0.000  0.022  0.000   2.68   0.00   0.00      0      0    116.8   0.00   0.00   0.87   4.00   4.00   4.00   3.96   3.96   3.79   0.00   0.00   0.00   0.00      0      0      0       0     387
 2000 334    84    81   19.0      3   3.84   3312   1603      0   4122   4915      0    0.0  0.000      0      0  0.000  0.000  0.022  0.000   2.66   0.00   0.00      0      0    115.8   0.00   0.00   0.88   4.00   4.00   4.00   3.95   3.95   3.79   0.00   0.00   0.00   0.00      0      0      0       0     408
 2000 335    85    82   19.0      3   3.92   3406   1736      0   4291   5142      0    0.0  0.000      0      0  0.000  0.000  0.022  0.000   2.64   0.00   0.00      0      0    115.0   0.00   0.00   0.89   4.00   4.00   4.00   3.98   3.99   3.96   0.00   0.00   0.00   0.00      0      0      0       0     428
 2000 336    86    83   19.0      3   3.99   3490   1867      0   4423   5357      0    0.0  0.000      0      0  0.000  0.000  0.022  0.000   2.62   0.00   0.00      0      0    114.3   0.00   0.00   0.90   4.00   4.00   4.00   3.99   4.00   4.00   0.00   0.00   0.00   0.00      0      0      0       0     450
 2000 337    87    84   20.0      3   4.08   3593   2049      0   4565   5641      0    0.0  0.000      0      0  0.000  0.000  0.022  0.000   2.53   0.00   0.00      0      0    113.5   0.00   0.00   0.91   4.00   4.00   4.00   4.00   4.00   4.00   0.00   0.00   0.00   0.00      0      0      0       0     472
 2000 338    88    85   20.0      3   4.16   3690   2238      0   4598   5928      0    0.0  0.000      0      0  0.000  0.000  0.022  0.000   2.44   0.00   0.00      0      0    112.8   0.00   0.00   0.92   4.00   4.00   4.00   4.00   4.00   4.00   0.10   0.00   0.00   0.00      0      0      0       0     495
 2000 339    89    86   20.0      3   4.22   3765   2395      0   4588   6160      0    0.0  0.000      0      0  0.000  0.000  0.022  0.000   2.39   0.00   0.00      0      0    112.2   0.00   0.00   0.93   4.00   4.00   4.00   3.99   3.99   4.00   0.14   0.00   0.00   0.00      0      0      0       0     518
 2000 340    90    87   21.0      3   4.27   3832   2545      0   4745   6377      0    0.0  0.000      0      0  0.000  0.000  0.023  0.000   2.34   0.00   0.00      0      0    111.6   0.00   0.00   0.94   4.00   4.00   4.00   4.00   4.00   4.00   0.85   0.00   0.00   0.00      0      0      0       0     541
 2000 341    91    88   21.0      3   4.34   3918   2747      0   4853   6665      0    0.0  0.000      0      0  0.000  0.000  0.025  0.000   2.28   0.00   0.00      0      0    110.9   0.00   0.00   0.95   4.00   4.00   4.00   4.00   4.00   4.00   1.52   0.00   0.00   0.00      0      0      0       0     564
 2000 342    92    89   21.0      3   4.42   4014   2993      0   4917   7008      0    0.0  0.000      0      0  0.000  0.000  0.025  0.000   2.19   0.00   0.00      0      0    110.1   0.00   0.00   0.97   4.00   4.00   4.00   4.00   4.00   4.00   2.06   0.00   0.00   0.00      0      0      0       0     589
 2000 343    93    90   22.0      3   4.50   4110   3253      0   4912   7363      0    0.0  0.000      0      0  0.000  0.000  0.027  0.000   2.12   0.00   0.00      0      0    109.4   0.00   0.00   0.98   4.00   4.00   4.00   3.99   3.99   3.99   2.17   0.00   0.00   0.00      0      0      0       0     613
 2000 344    94    91   22.0      3   4.57   4205   3527      0   5016   7732      0    0.0  0.000      0      0  0.000  0.000  0.029  0.000   2.04   0.00   0.00      0      0    108.6   0.00   0.00   1.00   4.00   4.00   4.00   4.00   4.00   4.00   3.03   0.00   0.00   0.00      0      0      0       0     638
 2000 345    95    92   22.0      3   4.62   4284   3756      0   5081   8040      0    0.0  0.000      0      0  0.000  0.000  0.032  0.000   1.98   0.00   0.00      0      0    107.9   0.00   0.00   1.02   4.00   4.00   4.00   4.00   4.00   4.00   3.62   0.00   0.00   0.00      0      0      0       0     663
 2000 346    96    93   22.0      3   4.67   4365   3989      0   5073   8354      0    0.0  0.000      0      0  0.000  0.000  0.036  0.000   1.92   0.00   0.00      0      0    107.1   0.00   0.00   1.03   4.00   4.00   4.00   3.99   3.99   3.99   3.72   0.00   0.00   0.00      0      0      0       0     688
 2000 347    97    94   22.0      3   4.73   4451   4235      0   5113   8687      0    0.0  0.000      0      0  0.000  0.000  0.038  0.000   1.86   0.00   0.00      0      0    106.2   0.00   0.00   1.05   4.00   4.00   4.00   4.00   4.00   4.00   4.00   0.00   0.00   0.00      0      0      0       0     714
 2000 348    98    95   22.0      3   4.79   4552   4522      0   5176   9075      0    0.0  0.000      0      0  0.000  0.000  0.040  0.000   1.80   0.00   0.00      0      0    105.3   0.00   0.00   1.07   4.00   4.00   4.00   4.00   4.00   4.00   4.00   0.00   0.00   0.00      0      0      0       0     739
 2000 349    99    96   22.0      4   4.76   4507   3860      0   5211   9356      0    0.0  0.000    988      0  0.000  0.000  0.043  0.000   1.96   0.00   0.11      0    988    105.7   0.00   0.00   1.08   4.00   4.00   4.00   4.00   4.00   4.00   4.00   0.00   0.00   0.00      0      0      0       0     765
 2000 350   100    97   22.0      4   4.74   4459   3939      0   5266   9584      0    0.0  0.000   1186      0  0.000  0.000  0.046  0.112   1.97   0.00   0.12      0   1186    106.2   0.00   0.00   1.09   4.00   4.00   4.00   4.00   4.00   4.00   4.00   0.05   0.00   0.00      0      0      0       0     791
 2000 351   101    98   22.0      4   4.71   4409   3982      0   5488   9682      0    0.0  0.000   1291      0  0.000  0.000  0.031  0.041   1.98   0.00   0.13      0   1291    106.8   0.00   0.00   1.10   4.00   4.00   4.00   4.00   4.00   4.00   4.00   0.27   0.00   0.00      0      0      0       0     817
 2000 352   102    99   22.0      4   4.68   4357   4036      0   5680   9822      0    0.0  0.000   1428      0  0.000  0.000  0.030  0.003   1.99   0.00   0.15      0   1428    107.4   0.00   0.00   1.10   4.00   4.00   4.00   4.00   4.00   4.00   4.00   0.56   0.00   0.00      0      0      0       0     845
 2000 353   103   100   22.0      4   4.66   4303   4112      0   5842  10032      0    0.0  0.000   1618      0  0.000  0.000  0.027  0.000   2.00   0.00   0.16      0   1618    108.2   0.00   0.00   1.11   4.00   4.00   4.00   4.00   4.00   4.00   4.00   0.90   0.00   0.00      0      0      0       0     873
 2000 354   104   101   22.0      4   4.63   4245   4175      0   5970  10194      0    0.0  0.000   1774      0  0.000  0.000  0.025  0.000   2.01   0.00   0.17      0   1774    109.1   0.00   0.00   1.12   4.00   4.00   4.00   4.00   4.00   4.00   4.00   1.25   0.00   0.00      0      0      0       0     903
 2000 355   105   102   22.0      4   4.61   4185   4249      0   6109  10394      0    0.0  0.000   1960      0  0.000  0.000  0.023  0.000   2.01   0.00   0.19      0   1960    110.1   0.00   0.00   1.13   4.00   4.00   4.00   4.00   4.00   4.00   4.00   1.68   0.00   0.00      0      0      0       0     932
 2000 356   106   103   22.0      4   4.59   4123   4300      0   6087  10512      0    0.0  0.000   2089      0  0.000  0.000  0.022  0.000   2.02   0.00   0.20      0   2089    111.2   0.00   0.00   1.14   4.00   4.00   4.00   3.99   3.99   3.98   3.99   1.70   0.00   0.00      0      0      0       0     963
 2000 357   107   104   22.0      4   4.56   4058   4386      0   6202  10745      0    0.0  0.000   2302      0  0.000  0.000  0.022  0.000   2.01   0.00   0.21      0   2302    112.5   0.00   0.00   1.15   4.00   4.00   4.00   4.00   4.00   4.00   4.00   2.19   0.00   0.00      0      0      0       0     993
 2000 358   108   105   22.0      4   4.54   3990   4443      0   6198  10877      0    0.0  0.000   2445      0  0.000  0.000  0.022  0.000   2.01   0.00   0.22      0   2445    113.9   0.00   0.00   1.15   4.00   4.00   4.00   4.00   4.00   4.00   3.99   2.27   0.00   0.00      0      0      0       0    1024
 2000 359   109   106   22.0      4   4.52   3920   4505      0   6345  11026      0    0.0  0.000   2600      0  0.000  0.000  0.022  0.000   2.01   0.00   0.24      0   2600    115.4   0.00   0.00   1.16   4.00   4.00   4.00   4.00   4.00   4.00   4.00   2.91   0.00   0.00      0      0      0       0    1055
 2000 360   110   107   22.0      4   4.50   3846   4605      0   6420  11302      0    0.0  0.000   2851      0  0.000  0.000  0.022  0.000   1.99   0.00   0.25      0   2851    117.1   0.00   0.00   1.17   4.00   4.00   4.00   4.00   4.00   4.00   4.00   3.29   0.00   0.00      0      0      0       0    1087
 2000 361   111   108   22.0      4   4.49   3768   4721      0   6497  11627      0    0.0  0.000   3139      0  0.000  0.000  0.022  0.000   1.94   0.00   0.27      0   3139    119.1   0.00   0.00   1.19   4.00   4.00   4.00   4.00   4.00   4.00   4.00   3.71   0.00   0.00      0      0      0       0    1119
 2000 362   112   109   22.0      5   4.47   3768   4588    320   6464  11814   4267    7.5  0.027   3459      7  0.000  0.000  0.000  0.000   1.91   9.25   0.29      0   3459    118.6   0.00   0.00   1.19   4.00   4.00   4.00   4.00   4.00   4.00   4.00   3.71   0.00   0.00      0      0      0       0    1119
 2000 363   113   110   22.0      5   4.45   3768   4611    602   6444  12120   4267   14.1  0.050   3741      7  0.000  0.000  0.000  0.093   1.85  16.10   0.31      0   3741    118.2   0.00   0.00   1.20   4.00   4.00   4.00   3.99   3.99   3.99   3.99   3.74   0.00   0.00      0      0      0       0    1151
 2000 364   114   111   22.0      5   4.44   3768   4646    856   6429  12409   4267   20.1  0.069   3995      7  0.000  0.000  0.000  0.104   1.80  21.43   0.32      0   3995    117.7   0.00   0.00   1.20   4.00   4.00   4.00   3.99   3.98   3.98   3.97   3.79   0.00   0.00      0      0      0       0    1184
 2000 365   115   112   22.0      5   4.42   3768   4721   1120   6483  12747   4267   26.2  0.088   4259      7  0.000  0.000  0.000  0.035   1.75  26.30   0.33      0   4259    117.3   0.00   0.00   1.21   4.00   4.00   4.00   4.00   4.00   4.00   4.00   4.00   0.00   0.00      0      0      0       0    1216
 2000 366   116   113   22.0      5   4.41   3768   4721   1440   6528  13067   4267   33.8  0.110   4579      7  0.000  0.000  0.000  0.003   1.70  31.45   0.35      0   4579    116.9   0.00   0.00   1.22   4.00   4.00   4.00   4.00   4.00   4.00   4.00   4.00   0.00   0.00      0      0      0       0    1248
 2001 001   117   114   22.0      5   4.39   3768   4721   1760   6576  13387   4267   41.3  0.131   4899      7  0.000  0.000  0.000  0.000   1.65  35.93   0.37      0   4899    116.5   0.00   0.00   1.23   4.00   4.00   4.00   4.00   4.00   4.00   4.00   4.00   0.00   0.00      0      0      0       0    1281
 2001 002   118   115   22.0      5   4.38   3768   4721   2080   6619  13707   4267   48.8  0.152   5219      7  0.000  0.000  0.003  0.000   1.59  39.86   0.38      0   5219    116.2   0.00   0.00   1.24   4.00   4.00   4.00   4.00   4.00   4.00   4.00   4.00   0.00   0.00      0      0      0       0    1314
 2001 003   119   116   22.0      5   4.36   3768   4721   2400   6661  14027   4267   56.2  0.171   5539      7  0.000  0.000  0.011  0.000   1.54  43.33   0.39      0   5539    115.8   0.00   0.00   1.25   4.00   4.00   4.00   4.00   4.00   4.00   4.00   4.00   0.00   0.00      0      0      0       0    1347
 2001 004   120   117   22.0      5   4.35   3768   4721   2720   6647  14347   4267   63.8  0.190   5859      7  0.000  0.000  0.017  0.000   1.49  46.43   0.41      0   5859    115.5   0.00   0.00   1.25   4.00   4.00   4.00   4.00   4.00   3.99   3.99   4.00   0.00   0.00      0      0      0       0    1380
 2001 005   121   118   22.0      5   4.34   3768   4721   3040   6685  14667   4267   71.2  0.207   6179      7  0.000  0.000  0.024  0.000   1.43  49.20   0.42      0   6179    115.1   0.00   0.00   1.25   4.00   4.00   4.00   4.00   4.00   4.00   4.00   4.00   0.00   0.00      0      0      0       0    1413
 2001 006   122   119   22.0      5   4.32   3768   4721   3360   6716  14987   4267   78.8  0.224   6499      7  0.000  0.000  0.031  0.000   1.39  51.70   0.43      0   6499    114.7   0.00   0.00   1.25   4.00   4.00   4.00   4.00   4.00   4.00   4.00   4.00   0.00   0.00      0      0      0       0    1447
 2001 007   123   120   22.0      5   4.30   3768   4629   3680   6683  15216   4267   86.2  0.242   6819      7  0.000  0.000  0.040  0.000   1.35  53.97   0.45      0   6819    114.1   0.00   0.00   1.25   4.00   4.00   4.00   4.00   4.00   4.00   4.00   4.00   0.00   0.00      0      0      0       0    1480
 2001 008   124   121   22.0      5   4.27   3768   4665   4000   6668  15572   4267   93.8  0.257   7139      7  0.000  0.000  0.051  0.000   1.30  56.03   0.46      0   7139    113.4   0.00   0.00   1.25   4.00   4.00   4.00   4.00   4.00   4.00   3.99   4.00   0.00   0.00      0      0      0       0    1514
 2001 009   125   122   22.0      5   4.24   3768   4721   4320   6680  15947   4267  101.2  0.271   7459      7  0.000  0.000  0.055  0.199   1.24  57.92   0.47      0   7459    112.6   0.00   0.00   1.25   4.00   4.00   4.00   4.00   4.00   4.00   4.00   4.00   0.00   0.00      0      0      0       0    1547
 2001 010   126   123   22.0      5   4.21   3768   4652   4559   6647  16118   4267  106.9  0.283   7698      7  0.000  0.000  0.071  0.260   1.22  59.23   0.48      0   7698    111.6   0.00   0.00   1.25   4.00   4.00   4.00   4.00   4.00   4.00   4.00   4.00   0.00   0.00      0      0      0       0    1581
 2001 011   127   124   22.0      5   4.16   3768   4721   4757   6715  16384   4267  111.5  0.290   7896      7  0.000  0.000  0.082  0.131   1.18  60.25   0.48      0   7896    110.5   0.00   0.00   1.25   4.00   4.00   4.00   4.00   4.00   4.00   4.00   4.00   0.00   0.00      0      0      0       0    1614
 2001 012   128   125   22.0      5   4.12   3768   4721   4929   6786  16556   4267  115.5  0.298   8068      7  0.000  0.000  0.084  0.043   1.17  61.09   0.49      0   8068    109.3   0.00   0.00   1.25   4.00   4.00   4.00   4.00   4.00   4.00   4.00   4.00   0.00   0.00      0      0      0       0    1647
 2001 013   129   126   22.0      5   4.07   3768   4721   5193   6795  16820   4267  121.7  0.309   8332      7  0.000  0.000  0.088  0.014   1.13  62.33   0.50      0   8332    108.1   0.00   0.00   1.25   4.00   4.00   4.00   4.00   4.00   4.00   4.00   4.00   0.00   0.00      0      0      0       0    1681
 2001 014   130   127   22.0      5   4.03   3768   4714   5513   6761  17134   4267  129.2  0.322   8652      7  0.000  0.000  0.094  0.122   1.09  63.72   0.50      0   8652    106.8   0.00   0.00   1.25   4.00   4.00   4.00   4.00   4.00   4.00   4.00   4.00   0.00   0.00      0      0      0       0    1715
 2001 015   131   128   22.0      5   3.97   3768   4721   5833   6764  17460   4267  136.7  0.334   8972      7  0.000  0.000  0.105  0.076   1.05  65.01   0.51      0   8972    105.4   0.00   0.00   1.25   4.00   4.00   4.00   4.00   4.00   4.00   4.00   3.99   0.00   0.00      0      0      0       0    1749
 2001 016   132   129   22.0      5   3.92   3768   4721   6153   6754  17780   4267  144.2  0.346   9292      7  0.000  0.000  0.116  0.042   1.01  66.22   0.52      0   9292    103.9   0.00   0.00   1.25   4.00   4.00   4.00   4.00   4.00   4.00   4.00   3.98   0.00   0.00      0      0      0       0    1783
 2001 017   133   130   22.0      5   3.85   3768   4664   6473   6720  18044   4267  151.7  0.359   9612      7  0.000  0.000  0.127  0.046   0.98  67.34   0.53      0   9612    102.3   0.00   0.00   1.25   4.00   4.00   4.00   4.00   4.00   4.00   4.00   3.98   0.00   0.00      0      0      0       0    1817
 2001 018   134   131   22.0      5   3.79   3768   4564   6793   6687  18263   4267  159.2  0.372   9932      7  0.000  0.000  0.139  0.062   0.95  68.40   0.54      0   9932    100.5   0.00   0.00   1.25   4.00   4.00   4.00   4.00   4.00   4.00   4.00   3.98   0.00   0.00      0      0      0       0    1850
 2001 019   135   132   22.0      5   3.72   3768   4506   7105   6653  18518   4267  166.5  0.384  10244      7  0.000  0.000  0.148  0.049   0.92  69.36   0.55      0  10244     98.6   0.00   0.00   1.25   4.00   4.00   4.00   4.00   4.00   4.00   4.00   3.98   0.00   0.00      0      0      0       0    1884
 2001 020   136   133   22.0      5   3.64   3768   4637   7359   6686  18903   4267  172.5  0.389  10497      7  0.000  0.000  0.155  0.016   0.88  70.10   0.56      0  10497     96.7   0.00   0.00   1.25   4.00   4.00   4.00   4.00   4.00   4.00   4.00   3.99   0.00   0.00      0      0      0       0    1917
 2001 021   137   134   22.0      5   3.57   3768   4721   7597   6722  19224   4267  178.0  0.395  10735      7  0.000  0.000  0.159  0.000   0.86  70.76   0.56      0  10735     94.8   0.00   0.00   1.25   4.00   4.00   4.00   4.00   4.00   4.00   4.00   4.00   0.00   0.00      0      0      0       0    1950
 2001 022   138   135   22.0      5   3.49   3768   4659   7889   6688  19455   4267  184.9  0.406  11028      7  0.000  0.000  0.172  0.000   0.83  71.54   0.57      0  11028     92.7   0.00   0.00   1.25   4.00   4.00   4.00   4.00   4.00   4.00   4.00   4.00   0.00   0.00      0      0      0       0    1984
 2001 023   139   136   22.0      5   3.40   3768   4721   8209   6699  19837   4267  192.4  0.414  11348      7  0.000  0.000  0.186  0.000   0.80  72.34   0.57      0  11348     90.2   0.00   0.00   1.25   4.00   4.00   4.00   4.00   4.00   4.00   4.00   3.99   0.00   0.00      0      0      0       0    2017
 2001 024   140   137   22.0      5   3.28   3768   4721   8529   6706  20157   4267  199.9  0.423  11668      7  0.000  0.000  0.194  0.000   0.77  73.10   0.58      0  11668     87.0   0.00   0.00   1.25   4.00   4.00   4.00   4.00   4.00   4.00   4.00   3.99   0.00   0.00      0      0      0       0    2051
 2001 025   141   138   22.0      5   3.14   3768   4721   8849   6701  20477   4267  207.4  0.432  11988      7  0.000  0.000  0.225  0.000   0.74  73.82   0.59      0  11988     83.3   0.00   0.00   1.25   4.00   4.00   4.00   4.00   4.00   4.00   4.00   3.98   0.00   0.00      0      0      0       0    2085
 2001 026   142   139   22.0      5   2.98   3768   4721   9169   6670  20797   4267  214.9  0.441  12308      7  0.000  0.000  0.257  0.000   0.71  74.50   0.59      0  12308     79.2   0.00   0.00   1.25   3.99   3.99   3.99   3.98   3.98   3.98   3.98   3.96   0.00   0.00      0      0      0       0    2118
 2001 027   143   140   22.0      5   2.85   3768   4536   9489   6637  20933   4267  222.4  0.453  12628      7  0.000  0.000  0.292  0.000   0.70  75.14   0.60      0  12628     75.5   0.00   0.00   1.25   3.99   3.99   3.99   3.98   3.98   3.98   3.98   3.96   0.00   0.00      0      0      0       0    2151
 2001 028   144   141   22.0      5   2.73   3768   4392   9746   6604  21044   4267  228.4  0.463  12884      7  0.000  0.000  0.331  0.030   0.69  75.64   0.61      0  12884     72.6   0.00   0.00   1.25   3.99   3.99   3.99   3.98   3.98   3.98   3.98   3.96   0.00   0.00      0      0      0       0    2185
 2001 029   145   142   22.0      5   2.62   3768   4449   9989   6600  21345   4267  234.1  0.468  13128      7  0.000  0.000  0.327  0.010   0.67  76.09   0.62      0  13128     69.7   0.00   0.00   1.25   4.00   4.00   4.00   4.00   4.00   3.99   3.98   3.95   0.00   0.00      0      0      0       0    2218
 2001 030   146   143   22.0      5   2.50   3768   4495  10271   6589  21673   4267  240.7  0.474  13410      7  0.000  0.000  0.322  0.000   0.65  76.59   0.62      0  13410     66.2   0.00   0.00   1.25   4.00   4.00   4.00   4.00   4.00   4.00   3.98   3.94   0.00   0.00      0      0      0       0    2251
 2001 031   147   144   22.0      5   2.33   3768   4495  10591   6557  21992   4267  248.2  0.482  13730      7  0.000  0.000  0.350  0.000   0.63  77.14   0.62      0  13730     61.8   0.00   0.00   1.25   4.00   4.00   4.00   4.00   4.00   4.00   3.98   3.94   0.00   0.00      0      0      0       0    2284
 2001 032   148   145   22.0      5   2.14   3768   4379  10911   6524  22197   4267  255.7  0.492  14050      7  0.000  0.000  0.397  0.000   0.62  77.66   0.63      0  14050     56.7   0.00   0.00   1.25   4.00   4.00   4.00   4.00   4.00   4.00   3.98   3.94   0.00   0.00      0      0      0       0    2316
 2001 033   149   146   22.0      5   2.14   3768   4379  10911   6524  22197   4267  255.7  0.492  14050      7  0.000  0.000  0.397  0.000   0.62  77.66   0.63      0  14050     56.7   0.00   0.00   1.25   4.00   4.00   4.00   4.00   4.00   4.00   3.98   3.94   0.00   0.00      0      0      0       0    2316
 2001 034   150   147   22.0      5   2.14   3768   4379  10911   6524  22197   4267  255.7  0.492  14050      7  0.000  0.000  0.397  0.000   0.62  77.66   0.63      0  14050     56.7   0.00   0.00   1.25   4.00   4.00   4.00   4.00   4.00   4.00   3.98   3.94   0.00   0.00      0      0      0       0    2316
 2001 035   151   148   22.0      5   2.14   3768   4379  10911   6524  22197   4267  255.7  0.492  14050      7  0.000  0.000  0.397  0.000   0.62  77.66   0.63      0  14050     56.7   0.00   0.00   1.25   4.00   4.00   4.00   4.00   4.00   4.00   3.98   3.94   0.00   0.00      0      0      0       0    2316
 2001 036   152   149   22.0      5   2.14   3768   4379  10911   6524  22197   4267  255.7  0.492  14050      7  0.000  0.000  0.397  0.000   0.62  77.66   0.63      0  14050     56.7   0.00   0.00   1.25   4.00   4.00   4.00   4.00   4.00   4.00   3.98   3.94   0.00   0.00      0      0      0       0    2316

*DSSAT Cropping System Model Ver. 4.0.2.000               Aug 12, 2016; 12:55:20

*RUN   2        : UYMZ                    
 MODEL          : MZCER040 - Maize           
 EXPERIMENT     : UYMZ0197 MZ    late to create DSS                             
 TREATMENT  1   : UYMZ                    

@YEAR DOY   DAS   DAP   L#SD   GSTD   LAID   LWAD   SWAD   GWAD   RWAD   CWAD   G#AD   GWGD   HIAD   PWAD   P#AD   WSPD   WSGD   NSTD   EWSD   LN%D   SH%D   HIPD   PWDD   PWTD     SLAD   CHTD   CWID   RDPD   RL1D   RL2D   RL3D   RL4D   RL5D   RL6D   RL7D   RL8D   RL9D   RL10   CDAD   LDAD   SDAD   SNW0C   SNW1C
 2001 253     3     0    0.0      0   0.00      0      0      0      0      0      0    0.0  0.000      0      0  0.000  0.000  0.000  0.000   0.00   0.00   0.00      0      0      0.0   0.00   0.00   0.03   0.00   0.00   0.00   0.00   0.00   0.00   0.00   0.00   0.00   0.00      0      0      0       0       0
 2001 254     4     1    0.0      0   0.00      0      0      0      0      0      0    0.0  0.000      0      0  0.000  0.000  0.000  0.000   0.00   0.00   0.00      0      0      0.0   0.00   0.00   0.03   0.00   0.00   0.00   0.00   0.00   0.00   0.00   0.00   0.00   0.00      0      0      0       0       0
 2001 255     5     2    0.0      0   0.00      0      0      0      0      0      0    0.0  0.000      0      0  0.000  0.000  0.000  0.000   0.00   0.00   0.00      0      0      0.0   0.00   0.00   0.04   0.00   0.00   0.00   0.00   0.00   0.00   0.00   0.00   0.00   0.00      0      0      0       0       0
 2001 256     6     3    0.0      0   0.00      0      0      0      0      0      0    0.0  0.000      0      0  0.000  0.000  0.000  0.000   0.00   0.00   0.00      0      0      0.0   0.00   0.00   0.05   0.00   0.00   0.00   0.00   0.00   0.00   0.00   0.00   0.00   0.00      0      0      0       0       0
 2001 257     7     4    0.0      0   0.00      0      0      0      0      0      0    0.0  0.000      0      0  0.000  0.000  0.000  0.000   0.00   0.00   0.00      0      0      0.0   0.00   0.00   0.06   0.00   0.00   0.00   0.00   0.00   0.00   0.00   0.00   0.00   0.00      0      0      0       0       0
 2001 258     8     5    0.0      0   0.00      0      0      0      0      0      0    0.0  0.000      0      0  0.000  0.000  0.000  0.000   0.00   0.00   0.00      0      0      0.0   0.00   0.00   0.06   0.00   0.00   0.00   0.00   0.00   0.00   0.00   0.00   0.00   0.00      0      0      0       0       0
 2001 259     9     6    0.0      0   0.00      0      0      0      0      0      0    0.0  0.000      0      0  0.000  0.000  0.000  0.000   0.00   0.00   0.00      0      0      0.0   0.00   0.00   0.06   0.00   0.00   0.00   0.00   0.00   0.00   0.00   0.00   0.00   0.00      0      0      0       0       0
 2001 260    10     7    0.0      0   0.00      0      0      0      0      0      0    0.0  0.000      0      0  0.000  0.000  0.000  0.000   0.00   0.00   0.00      0      0      0.0   0.00   0.00   0.06   0.00   0.00   0.00   0.00   0.00   0.00   0.00   0.00   0.00   0.00      0      0      0       0       0
 2001 261    11     8    0.0      0   0.00      0      0      0      0      0      0    0.0  0.000      0      0  0.000  0.000  0.000  0.000   0.00   0.00   0.00      0      0      0.0   0.00   0.00   0.08   0.00   0.00   0.00   0.00   0.00   0.00   0.00   0.00   0.00   0.00      0      0      0       0       0
 2001 262    12     9    0.0      0   0.00      0      0      0      0      0      0    0.0  0.000      0      0  0.000  0.000  0.000  0.000   0.00   0.00   0.00      0      0      0.0   0.00   0.00   0.09   0.00   0.00   0.00   0.00   0.00   0.00   0.00   0.00   0.00   0.00      0      0      0       0       0
 2001 263    13    10    0.0      0   0.00      0      0      0      0      0      0    0.0  0.000      0      0  0.000  0.000  0.000  0.000   0.00   0.00   0.00      0      0      0.0   0.00   0.00   0.11   0.00   0.00   0.00   0.00   0.00   0.00   0.00   0.00   0.00   0.00      0      0      0       0       0
 2001 264    14    11    1.0      1   0.00     14     14      0     14     28      0    0.0  0.000      0      0  0.000  0.000  0.012  0.000   4.40   0.00   0.00      0      0     22.6   0.00   0.00   0.12   0.28   0.08   0.00   0.00   0.00   0.00   0.00   0.00   0.00   0.00      0      0      0       0       0
 2001 265    15    12    2.0      1   0.01     14     14      0     14     28      0    0.0  0.000      0      0  0.000  0.000  0.016  0.000   4.53   0.00   0.00      0      0     43.0   0.00   0.00   0.13   0.28   0.09   0.00   0.00   0.00   0.00   0.00   0.00   0.00   0.00      0      0      0       0       0
 2001 266    16    13    2.0      1   0.01     14     14      0     15     28      0    0.0  0.000      0      0  0.000  0.000  0.000  0.000   4.50   0.00   0.00      0      0     64.6   0.00   0.00   0.14   0.29   0.09   0.00   0.00   0.00   0.00   0.00   0.00   0.00   0.00      0      0      0       0       0
 2001 267    17    14    3.0      1   0.01     14     14      0     16     28      0    0.0  0.000      0      0  0.000  0.000  0.000  0.000   4.47   0.00   0.00      0      0     94.3   0.00   0.00   0.16   0.30   0.11   0.00   0.00   0.00   0.00   0.00   0.00   0.00   0.00      0      0      0       0       0
 2001 268    18    15    3.0      1   0.02     14     14      0     17     28      0    0.0  0.000      0      0  0.000  0.000  0.000  0.000   4.45   0.00   0.00      0      0    110.5   0.00   0.00   0.16   0.31   0.12   0.00   0.00   0.00   0.00   0.00   0.00   0.00   0.00      0      0      0       0       0
 2001 269    19    16    3.0      1   0.02     14     14      0     18     28      0    0.0  0.000      0      0  0.000  0.000  0.000  0.000   4.43   0.00   0.00      0      0    124.5   0.00   0.00   0.17   0.32   0.13   0.00   0.00   0.00   0.00   0.00   0.00   0.00   0.00      0      0      0       0       0
 2001 270    20    17    3.0      1   0.02     14     14      0     19     28      0    0.0  0.000      0      0  0.000  0.000  0.000  0.194   4.42   0.00   0.00      0      0    133.1   0.00   0.00   0.18   0.31   0.13   0.00   0.00   0.00   0.00   0.00   0.00   0.00   0.00      0      0      0       0       0
 2001 271    21    18    4.0      1   0.03     14     14      0     20     28      0    0.0  0.000      0      0  0.000  0.000  0.000  0.143   4.40   0.00   0.00      0      0    194.1   0.00   0.00   0.19   0.31   0.14   0.01   0.00   0.00   0.00   0.00   0.00   0.00   0.00      0      0      0       0       0
 2001 272    22    19    4.0      1   0.04     14     14      0     22     28      0    0.0  0.000      0      0  0.000  0.000  0.000  0.241   4.37   0.00   0.00      0      0    265.1   0.00   0.00   0.20   0.30   0.16   0.02   0.00   0.00   0.00   0.00   0.00   0.00   0.00      0      0      0       0       1
 2001 273    23    20    4.0      1   0.05     14     14      0     25     28      0    0.0  0.000      0      0  0.000  0.000  0.000  0.304   4.35   0.00   0.00      0      0    329.2   0.00   0.00   0.21   0.28   0.17   0.03   0.00   0.00   0.00   0.00   0.00   0.00   0.00      0      0      0       0       1
 2001 274    24    21    4.0      1   0.05     16     14      0     26     30      0    0.0  0.000      0      0  0.000  0.000  0.000  0.512   4.08   0.00   0.00      0      0    335.5   0.00   0.00   0.22   0.25   0.17   0.04   0.00   0.00   0.00   0.00   0.00   0.00   0.00      0      0      0       0       1
 2001 275    25    22    5.0      1   0.06     18     14      0     29     32      0    0.0  0.000      0      0  0.000  0.000  0.000  0.418   3.94   0.00   0.00      0      0    324.8   0.00   0.00   0.22   0.24   0.17   0.05   0.00   0.00   0.00   0.00   0.00   0.00   0.00      0      0      0       0       1
 2001 276    26    23    5.0      1   0.07     22     14      0     31     36      0    0.0  0.000      0      0  0.000  0.000  0.000  0.327   3.84   0.00   0.00      0      0    312.7   0.00   0.00   0.23   0.22   0.18   0.06   0.00   0.00   0.00   0.00   0.00   0.00   0.00      0      0      0       0       1
 2001 277    27    24    5.0      1   0.08     27     14      0     36     41      0    0.0  0.000      0      0  0.000  0.000  0.000  0.294   3.72   0.00   0.00      0      0    299.6   0.00   0.00   0.24   0.21   0.20   0.10   0.00   0.00   0.00   0.00   0.00   0.00   0.00      0      0      0       0       1
 2001 278    28    25    5.0      1   0.10     34     14      0     46     48      0    0.0  0.000      0      0  0.000  0.000  0.000  0.107   3.66   0.00   0.00      0      0    286.8   0.00   0.00   0.25   0.20   0.26   0.19   0.00   0.00   0.00   0.00   0.00   0.00   0.00      0      0      0       0       1
 2001 279    29    26    6.0      1   0.11     42     14      0     56     56      0    0.0  0.000      0      0  0.000  0.000  0.000  0.063   3.62   0.00   0.00      0      0    274.8   0.00   0.00   0.26   0.20   0.31   0.27   0.00   0.00   0.00   0.00   0.00   0.00   0.00      0      0      0       0       2
 2001 280    30    27    6.0      1   0.13     48     14      0     59     62      0    0.0  0.000      0      0  0.000  0.000  0.000  0.277   3.75   0.00   0.00      0      0    266.6   0.00   0.00   0.27   0.19   0.31   0.29   0.00   0.00   0.00   0.00   0.00   0.00   0.00      0      0      0       0       2
 2001 281    31    28    6.0      1   0.15     56     14      0     68     70      0    0.0  0.000      0      0  0.000  0.000  0.000  0.196   3.69   0.00   0.00      0      0    258.3   0.00   0.00   0.28   0.18   0.34   0.36   0.00   0.00   0.00   0.00   0.00   0.00   0.00      0      0      0       0       2
 2001 282    32    29    6.0      1   0.16     64     14      0     78     78      0    0.0  0.000      0      0  0.000  0.000  0.000  0.167   3.74   0.00   0.00      0      0    251.7   0.00   0.00   0.29   0.18   0.38   0.45   0.00   0.00   0.00   0.00   0.00   0.00   0.00      0      0      0       0       3
 2001 283    33    30    7.0      1   0.19     77     14      0    103     91      0    0.0  0.000      0      0  0.000  0.000  0.000  0.078   3.55   0.00   0.00      0      0    242.4   0.00   0.00   0.30   0.47   0.45   0.62   0.00   0.00   0.00   0.00   0.00   0.00   0.00      0      0      0       0       3
 2001 284    34    31    7.0      1   0.22     92     14      0    134    106      0    0.0  0.000      0      0  0.000  0.000  0.000  0.000   3.51   0.00   0.00      0      0    233.6   0.00   0.00   0.31   0.82   0.54   0.84   0.00   0.00   0.00   0.00   0.00   0.00   0.00      0      0      0       0       3
 2001 285    35    32    7.0      1   0.24    107     14      0    150    121      0    0.0  0.000      0      0  0.000  0.000  0.000  0.000   3.58   0.00   0.00      0      0    226.5   0.00   0.00   0.31   1.00   0.59   0.95   0.00   0.00   0.00   0.00   0.00   0.00   0.00      0      0      0       0       4
 2001 286    36    33    7.0      1   0.28    126     14      0    181    140      0    0.0  0.000      0      0  0.000  0.000  0.000  0.000   3.52   0.00   0.00      0      0    219.2   0.00   0.00   0.32   1.35   0.69   1.16   0.02   0.00   0.00   0.00   0.00   0.00   0.00      0      0      0       0       5
 2001 287    37    34    8.0      1   0.32    149     14      0    213    163      0    0.0  0.000      0      0  0.000  0.000  0.000  0.000   3.44   0.00   0.00      0      0    211.4   0.00   0.00   0.33   1.70   0.79   1.37   0.04   0.00   0.00   0.00   0.00   0.00   0.00      0      0      0       0       6
 2001 288    38    35    8.0      1   0.35    173     14      0    218    187      0    0.0  0.000      0      0  0.000  0.000  0.000  0.000   3.50   0.00   0.00      0      0    205.2   0.00   0.00   0.35   1.73   0.82   1.39   0.04   0.00   0.00   0.00   0.00   0.00   0.00      0      0      0       0       7
 2001 289    39    36    8.0      1   0.40    202     14      0    229    216      0    0.0  0.000      0      0  0.000  0.000  0.000  0.000   3.44   0.00   0.00      0      0    198.6   0.00   0.00   0.36   1.78   0.88   1.43   0.05   0.00   0.00   0.00   0.00   0.00   0.00      0      0      0       0       8
 2001 290    40    37    9.0      1   0.43    221     14      0    267    235      0    0.0  0.000      0      0  0.000  0.000  0.000  0.436   3.64   0.00   0.00      0      0    194.9   0.00   0.00   0.38   1.92   1.06   1.54   0.09   0.00   0.00   0.00   0.00   0.00   0.00      0      0      0       0       9
 2001 291    41    38    9.0      1   0.48    254     14      0    299    268      0    0.0  0.000      0      0  0.000  0.000  0.000  0.222   3.44   0.00   0.00      0      0    189.3   0.00   0.00   0.40   2.06   1.23   1.65   0.13   0.00   0.00   0.00   0.00   0.00   0.00      0      0      0       0      10
 2001 292    42    39    9.0      2   0.56    282     14      0    357    296      0    0.0  0.000      0      0  0.000  0.000  0.000  0.065   3.52   0.00   0.00      0      0    197.9   0.00   0.00   0.42   2.39   1.57   1.92   0.22   0.00   0.00   0.00   0.00   0.00   0.00      0      0      0       0      12
 2001 293    43    40   10.0      2   0.65    339     14      0    405    353      0    0.0  0.000      0      0  0.000  0.000  0.001  0.003   3.26   0.00   0.00      0      0    190.4   0.00   0.00   0.44   2.67   1.85   2.15   0.30   0.00   0.00   0.00   0.00   0.00   0.00      0      0      0       0      14
 2001 294    44    41   10.0      2   0.70    373     14      0    487    387      0    0.0  0.000      0      0  0.000  0.000  0.000  0.000   3.49   0.00   0.00      0      0    186.7   0.00   0.00   0.45   3.18   2.36   2.56   0.46   0.00   0.00   0.00   0.00   0.00   0.00      0      0      0       0      16
 2001 295    45    42   10.0      2   0.74    405     14      0    596    419      0    0.0  0.000      0      0  0.000  0.000  0.000  0.000   3.78   0.00   0.00      0      0    183.5   0.00   0.00   0.46   3.84   3.02   3.10   0.69   0.00   0.00   0.00   0.00   0.00   0.00      0      0      0       0      18
 2001 296    46    43   10.0      3   0.80    446     14      0    701    460      0    0.0  0.000      0      0  0.000  0.000  0.022  0.000   3.68   0.00   0.00      0      0    178.5   0.00   0.00   0.47   4.00   3.62   3.58   0.90   0.02   0.00   0.00   0.00   0.00   0.00      0      0      0       0      21
 2001 297    47    44   11.0      3   0.88    508     14      0    798    522      0    0.0  0.000      0      0  0.000  0.000  0.022  0.000   3.57   0.00   0.00      0      0    174.0   0.00   0.00   0.48   4.00   4.00   4.00   1.09   0.07   0.00   0.00   0.00   0.00   0.00      0      0      0       0      25
 2001 298    48    45   11.0      3   1.00    591     16      0    895    607      0    0.0  0.000      0      0  0.000  0.000  0.022  0.000   3.52   0.00   0.00      0      0    169.0   0.00   0.00   0.50   4.00   4.00   4.00   1.28   0.14   0.00   0.00   0.00   0.00   0.00      0      0      0       0      29
 2001 299    49    46   11.0      3   1.10    667     18      0    905    685      0    0.0  0.000      0      0  0.000  0.000  0.022  0.009   3.48   0.00   0.00      0      0    165.0   0.00   0.00   0.52   3.77   3.81   3.81   1.23   0.15   0.00   0.00   0.00   0.00   0.00      0      0      0       0      33
 2001 300    50    47   12.0      3   1.21    753     22      0    905    775      0    0.0  0.000      0      0  0.000  0.000  0.022  0.010   3.44   0.00   0.00      0      0    161.1   0.00   0.00   0.53   3.52   3.58   3.60   1.16   0.14   0.00   0.00   0.00   0.00   0.00      0      0      0       0      38
 2001 301    51    48   12.0      3   1.27    800     25      0    929    825      0    0.0  0.000      0      0  0.000  0.000  0.022  0.548   3.40   0.00   0.00      0      0    158.9   0.00   0.00   0.55   3.29   3.45   3.52   1.16   0.18   0.00   0.00   0.00   0.00   0.00      0      0      0       0      42
 2001 302    52    49   12.0      3   1.33    847     29      0    954    877      0    0.0  0.000      0      0  0.000  0.000  0.022  0.548   3.36   0.00   0.00      0      0    156.9   0.00   0.00   0.56   3.08   3.32   3.46   1.15   0.23   0.00   0.00   0.00   0.00   0.00      0      0      0       0      47
 2001 303    53    50   12.0      3   1.41    909     36      0   1102    946      0    0.0  0.000      0      0  0.000  0.000  0.022  0.218   3.33   0.00   0.00      0      0    154.6   0.00   0.00   0.58   2.97   3.67   4.00   1.48   0.59   0.00   0.00   0.00   0.00   0.00      0      0      0       0      52
 2001 304    54    51   13.0      3   1.49    981     46      0   1262   1027      0    0.0  0.000      0      0  0.000  0.000  0.022  0.020   3.30   0.00   0.00      0      0    152.1   0.00   0.00   0.59   2.93   4.00   4.00   1.89   1.07   0.00   0.00   0.00   0.00   0.00      0      0      0       0      57
 2001 305    55    52   13.0      3   1.58   1055     58      0   1426   1113      0    0.0  0.000      0      0  0.000  0.000  0.022  0.008   3.28   0.00   0.00      0      0    149.8   0.00   0.00   0.60   2.92   4.00   4.00   2.38   1.69   0.00   0.00   0.00   0.00   0.00      0      0      0       0      63
 2001 306    56    53   13.0      3   1.66   1124     70      0   1564   1194      0    0.0  0.000      0      0  0.000  0.000  0.022  0.000   3.25   0.00   0.00      0      0    147.8   0.00   0.00   0.61   2.95   4.00   4.00   2.88   2.37   0.00   0.00   0.00   0.00   0.00      0      0      0       0      71
 2001 307    57    54   13.0      3   1.74   1193     85      0   1738   1277      0    0.0  0.000      0      0  0.000  0.000  0.022  0.000   3.22   0.00   0.00      0      0    145.9   0.00   0.00   0.62   2.96   4.00   4.00   3.55   3.29   0.08   0.00   0.00   0.00   0.00      0      0      0       0      78
 2001 308    58    55   14.0      3   1.83   1272    104      0   1908   1376      0    0.0  0.000      0      0  0.000  0.000  0.022  0.001   3.19   0.00   0.00      0      0    143.9   0.00   0.00   0.63   3.01   4.00   4.00   4.00   4.00   0.25   0.00   0.00   0.00   0.00      0      0      0       0      87
 2001 309    59    56   14.0      3   1.95   1378    134      0   2044   1512      0    0.0  0.000      0      0  0.000  0.000  0.022  0.003   3.15   0.00   0.00      0      0    141.6   0.00   0.00   0.64   3.05   4.00   4.00   4.00   4.00   0.48   0.00   0.00   0.00   0.00      0      0      0       0      97
 2001 310    60    57   14.0      3   2.08   1496    174      0   2054   1670      0    0.0  0.000      0      0  0.000  0.000  0.022  0.004   3.13   0.00   0.00      0      0    139.3   0.00   0.00   0.66   3.02   3.96   3.96   4.00   4.00   0.51   0.00   0.00   0.00   0.00      0      0      0       0     107
 2001 311    61    58   15.0      3   2.16   1569    202      0   2066   1771      0    0.0  0.000      0      0  0.000  0.000  0.022  0.004   3.10   0.00   0.00      0      0    137.8   0.00   0.00   0.67   3.00   3.93   3.93   4.00   4.00   0.56   0.00   0.00   0.00   0.00      0      0      0       0     117
 2001 312    62    59   15.0      3   2.24   1646    234      0   2164   1880      0    0.0  0.000      0      0  0.000  0.000  0.022  0.133   3.06   0.00   0.00      0      0    136.3   0.00   0.00   0.68   3.04   3.96   3.96   4.00   4.00   0.85   0.00   0.00   0.00   0.00      0      0      0       0     127
 2001 313    63    60   15.0      3   2.32   1719    267      0   2276   1986      0    0.0  0.000      0      0  0.000  0.000  0.022  0.244   3.02   0.00   0.00      0      0    134.9   0.00   0.00   0.69   3.00   3.88   3.88   3.92   4.00   1.22   0.00   0.00   0.00   0.00      0      0      0       0     138
 2001 314    64    61   15.0      3   2.41   1806    313      0   2292   2119      0    0.0  0.000      0      0  0.000  0.000  0.022  0.300   2.97   0.00   0.00      0      0    133.5   0.00   0.00   0.71   2.85   3.67   3.67   3.70   3.84   1.25   0.00   0.00   0.00   0.00      0      0      0       0     150
 2001 315    65    62   16.0      3   2.50   1893    364      0   2479   2257      0    0.0  0.000      0      0  0.000  0.000  0.022  0.207   2.86   0.00   0.00      0      0    132.1   0.00   0.00   0.72   2.95   3.74   3.74   3.65   4.00   2.00   0.00   0.00   0.00   0.00      0      0      0       0     161
 2001 316    66    63   16.0      3   2.62   2011    442      0   2624   2452      0    0.0  0.000      0      0  0.000  0.000  0.022  0.062   2.72   0.00   0.00      0      0    130.4   0.00   0.00   0.73   3.08   3.86   3.86   3.66   4.00   2.64   0.00   0.00   0.00   0.00      0      0      0       0     173
 2001 317    67    64   16.0      3   2.72   2108    512      0   2620   2621      0    0.0  0.000      0      0  0.000  0.000  0.022  0.029   2.63   0.00   0.00      0      0    129.1   0.00   0.00   0.75   3.05   3.82   3.82   3.62   3.95   2.64   0.00   0.00   0.00   0.00      0      0      0       0     187
 2001 318    68    65   17.0      3   2.84   2225    606      0   2692   2830      0    0.0  0.000      0      0  0.000  0.000  0.024  0.005   2.49   0.00   0.00      0      0    127.5   0.00   0.00   0.76   3.16   3.92   3.92   3.65   3.97   2.99   0.00   0.00   0.00   0.00      0      0      0       0     200
 2001 319    69    66   17.0      3   2.94   2330    698      0   2849   3028      0    0.0  0.000      0      0  0.000  0.000  0.028  0.000   2.38   0.00   0.00      0      0    126.2   0.00   0.00   0.77   3.44   4.00   4.00   3.76   4.00   3.67   0.00   0.00   0.00   0.00      0      0      0       0     213
 2001 320    70    67   17.0      3   3.00   2401    764      0   3014   3165      0    0.0  0.000      0      0  0.000  0.000  0.034  0.000   2.31   0.00   0.00      0      0    125.0   0.00   0.00   0.78   3.79   4.00   4.00   3.90   4.00   4.00   0.00   0.00   0.00   0.00      0      0      0       0     227
 2001 321    71    68   17.0      3   3.06   2476    837      0   3199   3313      0    0.0  0.000      0      0  0.000  0.000  0.041  0.000   2.24   0.00   0.00      0      0    123.8   0.00   0.00   0.79   4.00   4.00   4.00   4.00   4.00   4.00   0.00   0.00   0.00   0.00      0      0      0       0     242
 2001 322    72    69   18.0      3   3.16   2587    956      0   3346   3543      0    0.0  0.000      0      0  0.000  0.000  0.044  0.000   2.12   0.00   0.00      0      0    122.2   0.00   0.00   0.80   4.00   4.00   4.00   4.00   4.00   4.00   0.00   0.00   0.00   0.00      0      0      0       0     258
 2001 323    73    70   18.0      3   3.28   2716   1107      0   3405   3823      0    0.0  0.000      0      0  0.000  0.000  0.048  0.000   2.75   0.00   0.00      0      0    120.6   0.00   0.00   0.82   4.00   4.00   4.00   3.99   3.99   4.00   0.00   0.00   0.00   0.00      0      0      0       0     275
 2001 324    74    71   18.0      3   3.52   2962   1358      0   3427   4320      0    0.0  0.000      0      0  0.000  0.000  0.022  0.000   2.71   0.00   0.00      0      0    118.7   0.00   0.00   0.84   4.00   3.99   3.99   3.98   3.97   3.98   0.00   0.00   0.00   0.00      0      0      0       0     292
 2001 325    75    72   19.0      3   3.61   3064   1503      0   3424   4567      0    0.0  0.000      0      0  0.000  0.000  0.022  0.000   2.67   0.00   0.00      0      0    117.8   0.00   0.00   0.86   4.00   3.98   3.98   3.96   3.96   3.96   0.00   0.00   0.00   0.00      0      0      0       0     309
 2001 326    76    73   19.0      3   3.74   3207   1748      0   3440   4955      0    0.0  0.000      0      0  0.000  0.000  0.022  0.000   2.63   0.00   0.00      0      0    116.7   0.00   0.00   0.87   4.00   3.97   3.97   3.94   3.94   3.94   0.00   0.00   0.00   0.00      0      0      0       0     326
 2001 327    77    74   20.0      3   3.87   3348   2031      0   3480   5380      0    0.0  0.000      0      0  0.000  0.000  0.022  0.000   2.56   0.00   0.00      0      0    115.6   0.00   0.00   0.89   4.00   3.97   3.97   3.93   3.93   3.93   0.00   0.00   0.00   0.00      0      0      0       0     344
 2001 328    78    75   20.0      3   3.91   3398   2138      0   3471   5536      0    0.0  0.000      0      0  0.000  0.000  0.022  0.000   2.52   0.00   0.00      0      0    115.1   0.00   0.00   0.90   3.98   4.00   3.96   3.91   3.91   3.91   0.00   0.00   0.00   0.00      0      0      0       0     361
 2001 329    79    76   20.0      3   3.95   3446   2244      0   3530   5690      0    0.0  0.000      0      0  0.000  0.000  0.022  0.000   2.48   0.00   0.00      0      0    114.5   0.00   0.00   0.91   4.00   4.00   3.99   3.92   3.91   3.91   0.04   0.00   0.00   0.00      0      0      0       0     378
 2001 330    80    77   20.0      3   3.98   3492   2354      0   3521   5846      0    0.0  0.000      0      0  0.000  0.000  0.022  0.286   2.43   0.00   0.00      0      0    114.0   0.00   0.00   0.92   3.76   3.76   3.80   3.68   3.67   3.67   0.05   0.00   0.00   0.00      0      0      0       0     396
 2001 331    81    78   21.0      3   4.04   3563   2530      0   3670   6093      0    0.0  0.000      0      0  0.000  0.000  0.022  0.138   2.35   0.00   0.00      0      0    113.4   0.00   0.00   0.93   3.93   3.93   4.00   3.67   3.65   3.63   0.62   0.00   0.00   0.00      0      0      0       0     414
 2001 332    82    79   21.0      3   4.09   3623   2685      0   3851   6308      0    0.0  0.000      0      0  0.000  0.000  0.023  0.054   2.30   0.00   0.00      0      0    112.8   0.00   0.00   0.94   4.00   4.00   4.00   3.78   3.74   3.69   1.54   0.00   0.00   0.00      0      0      0       0     432
 2001 333    83    80   21.0      3   4.12   3673   2822      0   3997   6495      0    0.0  0.000      0      0  0.000  0.000  0.025  0.140   2.25   0.00   0.00      0      0    112.2   0.00   0.00   0.95   4.00   4.00   4.00   3.89   3.84   3.76   2.35   0.00   0.00   0.00      0      0      0       0     451
 2001 334    84    81   21.0      3   4.14   3710   2926      0   3993   6636      0    0.0  0.000      0      0  0.000  0.000  0.027  0.113   2.22   0.00   0.00      0      0    111.7   0.00   0.00   0.96   4.00   4.00   4.00   3.88   3.83   3.75   2.42   0.00   0.00   0.00      0      0      0       0     471
 2001 335    85    82   22.0      3   4.18   3766   3086      0   4159   6852      0    0.0  0.000      0      0  0.000  0.000  0.029  0.069   2.17   0.00   0.00      0      0    111.0   0.00   0.00   0.97   4.00   4.00   4.00   4.00   3.96   3.85   3.35   0.00   0.00   0.00      0      0      0       0     491
 2001 336    86    83   22.0      3   4.22   3823   3257      0   4303   7080      0    0.0  0.000      0      0  0.000  0.000  0.029  0.027   2.11   0.00   0.00      0      0    110.4   0.00   0.00   0.98   4.00   4.00   4.00   4.00   4.00   3.94   4.00   0.00   0.00   0.00      0      0      0       0     512
 2001 337    87    84   22.0      3   4.25   3871   3400      0   4293   7271      0    0.0  0.000      0      0  0.000  0.000  0.031  0.009   2.07   0.00   0.00      0      0    109.8   0.00   0.00   0.99   4.00   4.00   4.00   3.99   3.99   3.93   4.00   0.00   0.00   0.00      0      0      0       0     534
 2001 338    88    85   22.0      3   4.28   3917   3537      0   4281   7453      0    0.0  0.000      0      0  0.000  0.000  0.033  0.004   2.04   0.00   0.00      0      0    109.2   0.00   0.00   1.00   4.00   4.00   4.00   3.98   3.98   3.91   4.00   0.00   0.00   0.00      0      0      0       0     555
 2001 339    89    86   22.0      3   4.31   3977   3714      0   4292   7691      0    0.0  0.000      0      0  0.000  0.000  0.034  0.002   1.99   0.00   0.00      0      0    108.5   0.00   0.00   1.01   4.00   4.00   4.00   3.99   3.98   3.92   4.00   0.00   0.00   0.00      0      0      0       0     576
 2001 340    90    87   22.0      3   4.36   4039   3899      0   4360   7939      0    0.0  0.000      0      0  0.000  0.000  0.035  0.000   1.94   0.00   0.00      0      0    107.8   0.00   0.00   1.02   4.00   4.00   4.00   4.00   4.00   3.96   4.00   0.00   0.00   0.00      0      0      0       0     598
 2001 341    91    88   22.0      3   4.40   4109   4104      0   4457   8212      0    0.0  0.000      0      0  0.000  0.000  0.037  0.000   1.88   0.00   0.00      0      0    107.1   0.00   0.00   1.03   4.00   4.00   4.00   4.00   4.00   4.00   4.00   0.00   0.00   0.00      0      0      0       0     620
 2001 342    92    89   22.0      3   4.41   4145   4212      0   4642   8357      0    0.0  0.000      0      0  0.000  0.000  0.040  0.000   1.86   0.00   0.00      0      0    106.5   0.00   0.00   1.04   4.00   4.00   4.00   4.00   4.00   4.00   4.00   0.00   0.00   0.00      0      0      0       0     642
 2001 343    93    90   22.0      3   4.42   4175   4300      0   4857   8475      0    0.0  0.000      0      0  0.000  0.000  0.044  0.000   1.84   0.00   0.00      0      0    105.8   0.00   0.00   1.04   4.00   4.00   4.00   4.00   4.00   4.00   4.00   0.00   0.00   0.00      0      0      0       0     665
 2001 344    94    91   22.0      3   4.44   4225   4446      0   5017   8670      0    0.0  0.000      0      0  0.000  0.000  0.045  0.000   1.81   0.00   0.00      0      0    105.1   0.00   0.00   1.05   4.00   4.00   4.00   4.00   4.00   4.00   4.00   0.00   0.00   0.00      0      0      0       0     689
 2001 345    95    92   22.0      4   4.41   4182   3756      0   5128   8814      0    0.0  0.000    876      0  0.000  0.000  0.045  0.000   1.98   0.00   0.10      0    876    105.5   0.00   0.00   1.06   4.00   4.00   4.00   4.00   4.00   4.00   4.00   0.00   0.00   0.00      0      0      0       0     715
 2001 346    96    93   22.0      4   4.39   4136   3835      0   5158   9042      0    0.0  0.000   1071      0  0.000  0.000  0.045  0.000   1.98   0.00   0.12      0   1071    106.1   0.00   0.00   1.08   4.00   4.00   4.00   4.00   4.00   4.00   4.00   0.00   0.00   0.00      0      0      0       0     740
 2001 347    97    94   22.0      4   4.37   4087   3924      0   5168   9306      0    0.0  0.000   1295      0  0.000  0.000  0.029  0.000   1.98   0.00   0.14      0   1295    107.0   0.00   0.00   1.09   4.00   4.00   4.00   4.00   4.00   4.00   4.00   0.00   0.00   0.00      0      0      0       0     766
 2001 348    98    95   22.0      4   4.36   4035   4010      0   5218   9555      0    0.0  0.000   1509      0  0.000  0.000  0.027  0.000   1.97   0.00   0.16      0   1509    108.0   0.00   0.00   1.10   4.00   4.00   4.00   4.00   4.00   4.00   4.00   0.16   0.00   0.00      0      0      0       0     792
 2001 349    99    96   22.0      4   4.34   3981   4084      0   5332   9760      0    0.0  0.000   1695      0  0.000  0.000  0.026  0.000   1.98   0.00   0.17      0   1695    109.1   0.00   0.00   1.11   4.00   4.00   4.00   4.00   4.00   4.00   4.00   0.53   0.00   0.00      0      0      0       0     818
 2001 350   100    97   22.0      4   4.33   3924   4152      0   5431   9941      0    0.0  0.000   1865      0  0.000  0.000  0.024  0.000   1.98   0.00   0.19      0   1865    110.4   0.00   0.00   1.12   4.00   4.00   4.00   4.00   4.00   4.00   4.00   0.93   0.00   0.00      0      0      0       0     845
 2001 351   101    98   22.0      4   4.32   3864   4226      0   5584  10138      0    0.0  0.000   2049      0  0.000  0.000  0.022  0.000   1.98   0.00   0.20      0   2049    111.8   0.00   0.00   1.13   4.00   4.00   4.00   4.00   4.00   4.00   4.00   1.55   0.00   0.00      0      0      0       0     872
 2001 352   102    99   22.0      4   4.31   3801   4300      0   5734  10336      0    0.0  0.000   2234      0  0.000  0.000  0.022  0.000   1.98   0.00   0.22      0   2234    113.3   0.00   0.00   1.14   4.00   4.00   4.00   4.00   4.00   4.00   4.00   2.21   0.00   0.00      0      0      0       0     900
 2001 353   103   100   22.0      4   4.30   3736   4387      0   5738  10575      0    0.0  0.000   2452      0  0.000  0.000  0.022  0.000   1.98   0.00   0.23      0   2452    115.0   0.00   0.00   1.15   4.00   4.00   4.00   4.00   4.00   4.00   4.00   2.34   0.00   0.00      0      0      0       0     928
[...]
 2010 332    82    79   18.0      3   3.69   3331   1431      0   3880   4762      0    0.0  0.000      0      0  0.000  0.000  0.022  0.000   2.70   0.00   0.00      0      0    110.8   0.00   0.00   0.84   4.00   4.00   4.00   4.00   4.00   0.86   0.00   0.00   0.00   0.00      0      0      0       0     410
 2010 333    83    80   19.0      3   3.78   3431   1553      0   3929   4983      0    0.0  0.000      0      0  0.000  0.000  0.022  0.000   2.68   0.00   0.00      0      0    110.1   0.00   0.00   0.85   4.00   4.00   4.00   4.00   4.00   0.90   0.00   0.00   0.00   0.00      0      0      0       0     429
 2010 334    84    81   19.0      3   3.88   3540   1711      0   4064   5251      0    0.0  0.000      0      0  0.000  0.000  0.022  0.000   2.66   0.00   0.00      0      0    109.5   0.00   0.00   0.86   4.00   4.00   4.00   4.00   4.00   1.02   0.00   0.00   0.00   0.00      0      0      0       0     449
 2010 335    85    82   19.0      3   3.99   3672   1936      0   4164   5608      0    0.0  0.000      0      0  0.000  0.000  0.022  0.000   2.63   0.00   0.00      0      0    108.7   0.00   0.00   0.87   4.00   4.00   4.00   4.00   4.00   1.12   0.00   0.00   0.00   0.00      0      0      0       0     469
 2010 336    86    83   20.0      3   4.11   3808   2202      0   4208   6010      0    0.0  0.000      0      0  0.000  0.000  0.022  0.000   2.59   0.00   0.00      0      0    108.0   0.00   0.00   0.89   4.00   4.00   4.00   4.00   4.00   1.18   0.00   0.00   0.00   0.00      0      0      0       0     490
 2010 337    87    84   20.0      3   4.21   3921   2447      0   4242   6367      0    0.0  0.000      0      0  0.000  0.000  0.022  0.000   2.55   0.00   0.00      0      0    107.3   0.00   0.00   0.91   4.00   4.00   4.00   4.00   4.00   1.24   0.00   0.00   0.00   0.00      0      0      0       0     511
 2010 338    88    85   20.0      3   4.28   4009   2653      0   4343   6662      0    0.0  0.000      0      0  0.000  0.000  0.022  0.000   2.52   0.00   0.00      0      0    106.8   0.00   0.00   0.92   4.00   4.00   4.00   4.00   4.00   1.44   0.03   0.00   0.00   0.00      0      0      0       0     532
 2010 339    89    86   21.0      3   4.36   4100   2880      0   4465   6980      0    0.0  0.000      0      0  0.000  0.000  0.022  0.000   2.45   0.00   0.00      0      0    106.2   0.00   0.00   0.94   4.00   4.00   4.00   4.00   4.00   1.80   0.12   0.00   0.00   0.00      0      0      0       0     554
 2010 340    90    87   21.0      3   4.41   4176   3079      0   4600   7255      0    0.0  0.000      0      0  0.000  0.000  0.022  0.000   2.40   0.00   0.00      0      0    105.7   0.00   0.00   0.95   4.00   4.00   4.00   4.00   4.00   2.22   0.31   0.00   0.00   0.00      0      0      0       0     576
 2010 341    91    88   21.0      3   4.47   4247   3275      0   4740   7522      0    0.0  0.000      0      0  0.000  0.000  0.022  0.000   2.35   0.00   0.00      0      0    105.2   0.00   0.00   0.96   4.00   4.00   4.00   4.00   4.00   2.66   0.61   0.00   0.00   0.00      0      0      0       0     599
 2010 342    92    89   22.0      3   4.51   4313   3464      0   4778   7778      0    0.0  0.000      0      0  0.000  0.000  0.022  0.000   2.30   0.00   0.00      0      0    104.6   0.00   0.00   0.97   4.00   4.00   4.00   4.00   4.00   2.81   0.77   0.00   0.00   0.00      0      0      0       0     623
 2010 343    93    90   22.0      3   4.59   4413   3748      0   4867   8161      0    0.0  0.000      0      0  0.000  0.000  0.022  0.000   2.22   0.00   0.00      0      0    103.9   0.00   0.00   0.99   4.00   4.00   4.00   4.00   4.00   3.08   1.17   0.00   0.00   0.00      0      0      0       0     647
 2010 344    94    91   22.0      3   4.64   4491   3969      0   4925   8459      0    0.0  0.000      0      0  0.000  0.000  0.022  0.000   2.17   0.00   0.00      0      0    103.2   0.00   0.00   1.00   4.00   4.00   4.00   4.00   4.00   3.21   1.51   0.00   0.00   0.00      0      0      0       0     671
 2010 345    95    92   22.0      3   4.68   4567   4185      0   4916   8751      0    0.0  0.000      0      0  0.000  0.000  0.024  0.000   2.11   0.00   0.00      0      0    102.5   0.00   0.00   1.02   4.00   4.00   4.00   3.99   3.99   3.21   1.58   0.00   0.00   0.00      0      0      0       0     696
 2010 346    96    93   22.0      3   4.69   4605   4293      0   4909   8898      0    0.0  0.000      0      0  0.000  0.000  0.026  0.000   2.10   0.00   0.00      0      0    101.9   0.00   0.00   1.02   4.00   4.00   4.00   3.99   3.98   3.21   1.66   0.00   0.00   0.00      0      0      0       0     720
 2010 347    97    94   22.0      3   4.44   4648   4415      0   5112   9063      0    0.0  0.000      0      0  0.000  0.000  0.028  0.000   2.07   0.00   0.00      0      0     95.5   0.00   0.00   1.03   4.00   4.00   4.00   4.00   4.00   3.35   2.70   0.00   0.00   0.00      0      0      0       0     745
 2010 348    98    95   22.0      3   4.47   4706   4579      0   5278   9285      0    0.0  0.000      0      0  0.000  0.000  0.029  0.000   2.03   0.00   0.00      0      0     95.1   0.00   0.00   1.04   4.00   4.00   4.00   4.00   4.00   3.47   3.51   0.00   0.00   0.00      0      0      0       0     770
 2010 349    99    96   22.0      4   4.46   4660   3898      0   5401   9531      0    0.0  0.000    973      0  0.000  0.000  0.029  0.000   2.22   0.00   0.10      0    973     95.6   0.00   0.00   1.05   4.00   4.00   4.00   4.00   4.00   3.57   4.00   0.00   0.00   0.00      0      0      0       0     797
 2010 350   100    97   22.0      4   4.44   4611   3985      0   5524   9789      0    0.0  0.000   1192      0  0.000  0.000  0.029  0.000   2.21   0.00   0.12      0   1192     96.3   0.00   0.00   1.07   4.00   4.00   4.00   4.00   4.00   3.67   4.00   0.00   0.00   0.00      0      0      0       0     824
 2010 351   101    98   22.0      4   4.43   4559   4084      0   5630  10083      0    0.0  0.000   1440      0  0.000  0.000  0.022  0.000   2.20   0.00   0.14      0   1440     97.1   0.00   0.00   1.09   4.00   4.00   4.00   4.00   4.00   3.77   4.00   0.00   0.00   0.00      0      0      0       0     851
 2010 352   102    99   22.0      4   4.41   4502   4185      0   5634  10380      0    0.0  0.000   1692      0  0.000  0.000  0.022  0.000   2.18   0.00   0.16      0   1692     98.0   0.00   0.00   1.10   4.00   4.00   4.00   4.00   4.00   3.78   4.00   0.02   0.00   0.00      0      0      0       0     880
 2010 353   103   100   22.0      4   4.40   4442   4233      0   5613  10488      0    0.0  0.000   1812      0  0.000  0.000  0.022  0.062   2.19   0.00   0.17      0   1812     98.9   0.00   0.00   1.11   4.00   4.00   4.00   3.99   3.99   3.77   3.99   0.03   0.00   0.00      0      0      0       0     880
 2010 354   104   101   22.0      4   4.38   4379   4327      0   5599  10752      0    0.0  0.000   2046      0  0.000  0.000  0.022  0.017   2.18   0.00   0.19      0   2046    100.1   0.00   0.00   1.12   4.00   4.00   4.00   3.98   3.98   3.76   3.99   0.04   0.00   0.00      0      0      0       0     880
 2010 355   105   102   22.0      4   4.37   4312   4419      0   5696  11008      0    0.0  0.000   2277      0  0.000  0.000  0.022  0.000   2.17   0.00   0.21      0   2277    101.3   0.00   0.00   1.13   4.00   4.00   4.00   4.00   4.00   3.80   4.00   0.16   0.00   0.00      0      0      0       0     880
 2010 356   106   103   22.0      4   4.36   4241   4520      0   5800  11290      0    0.0  0.000   2529      0  0.000  0.000  0.022  0.000   2.16   0.00   0.22      0   2529    102.7   0.00   0.00   1.14   4.00   4.00   4.00   4.00   4.00   3.82   4.00   0.26   0.00   0.00      0      0      0       0     880
 2010 357   107   104   22.0      4   4.34   4167   4619      0   5909  11561      0    0.0  0.000   2776      0  0.000  0.000  0.022  0.000   2.16   0.00   0.24      0   2776    104.2   0.00   0.00   1.15   4.00   4.00   4.00   4.00   4.00   3.83   4.00   0.35   0.00   0.00      0      0      0       0     880
 2010 358   108   105   22.0      4   4.33   4089   4667      0   5887  11653      0    0.0  0.000   2897      0  0.000  0.000  0.022  0.000   2.17   0.00   0.25      0   2897    105.9   0.00   0.00   1.16   3.98   4.00   4.00   3.98   3.98   3.82   3.98   0.35   0.00   0.00      0      0      0       0     880
 2010 359   109   106   22.0      4   4.32   4007   4772      0   5969  11937      0    0.0  0.000   3158      0  0.000  0.000  0.022  0.000   2.16   0.00   0.26      0   3158    107.8   0.00   0.00   1.18   4.00   4.00   4.00   3.99   3.99   3.82   4.00   0.44   0.00   0.00      0      0      0       0     880
 2010 360   110   107   22.0      5   4.31   4007   4772    302   6025  12239   4027    7.5  0.025   3460      7  0.000  0.000  0.000  0.006   2.10   8.73   0.28      0   3460    107.5   0.00   0.00   1.19   4.00   4.00   4.00   3.99   3.99   3.81   4.00   0.49   0.00   0.00      0      0      0       0     880
 2010 361   111   108   22.0      5   4.30   4007   4772    604   6074  12541   4027   15.0  0.048   3762      7  0.000  0.000  0.000  0.000   2.04  16.05   0.30      0   3762    107.3   0.00   0.00   1.20   4.00   4.00   4.00   3.99   3.98   3.80   4.00   0.54   0.00   0.00      0      0      0       0     880
 2010 362   112   109   22.0      5   4.29   4007   4772    901   6127  12838   4027   22.4  0.070   4059      7  0.000  0.000  0.000  0.000   1.98  22.20   0.32      0   4059    107.0   0.00   0.00   1.21   4.00   4.00   4.00   4.00   3.97   3.79   4.00   0.59   0.00   0.00      0      0      0       0     880
 2010 363   113   110   22.0      5   4.28   4007   4772   1203   6155  13140   4027   29.9  0.092   4361      7  0.000  0.000  0.000  0.000   1.93  27.59   0.33      0   4361    106.8   0.00   0.00   1.22   4.00   4.00   4.00   4.00   3.97   3.78   3.99   0.62   0.00   0.00      0      0      0       0     880
 2010 364   114   111   22.0      5   4.27   4007   4772   1493   6212  13429   4027   37.1  0.111   4651      7  0.000  0.000  0.000  0.000   1.76  32.10   0.35      0   4651    106.5   0.00   0.00   1.23   4.00   4.00   4.00   4.00   3.97   3.77   3.99   0.67   0.00   0.00      0      0      0       0     910
 2010 365   115   112   22.0      5   4.26   4007   4772   1795   6261  13731   4027   44.6  0.131   4953      7  0.000  0.000  0.000  0.000   1.73  36.24   0.36      0   4953    106.3   0.00   0.00   1.24   4.00   4.00   4.00   4.00   3.98   3.77   3.99   0.72   0.00   0.00      0      0      0       0     941
 2011 001   116   113   22.0      5   4.25   4007   4772   2097   6262  14033   4027   52.1  0.149   5255      7  0.000  0.000  0.000  0.000   1.68  39.90   0.37      0   5255    106.1   0.00   0.00   1.25   4.00   4.00   4.00   4.00   3.97   3.75   3.98   0.75   0.00   0.00      0      0      0       0     973
 2011 002   117   114   22.0      5   4.24   4007   4772   2399   6239  14335   4027   59.6  0.167   5557      7  0.000  0.000  0.000  0.000   1.64  43.17   0.39      0   5557    105.9   0.00   0.00   1.25   4.00   4.00   4.00   3.99   3.95   3.73   3.96   0.76   0.00   0.00      0      0      0       0    1004
 2011 003   118   115   22.0      5   4.23   4007   4685   2671   6208  14522   4027   66.3  0.184   5830      7  0.000  0.000  0.000  0.000   1.61  45.82   0.40      0   5830    105.7   0.00   0.00   1.25   4.00   4.00   4.00   3.99   3.95   3.73   3.96   0.76   0.00   0.00      0      0      0       0    1004
 2011 004   119   116   22.0      5   4.23   4007   4697   2973   6183  14835   4027   73.8  0.200   6132      7  0.000  0.000  0.000  0.000   1.58  48.49   0.41      0   6132    105.5   0.00   0.00   1.25   4.00   4.00   4.00   3.97   3.93   3.71   3.94   0.76   0.00   0.00      0      0      0       0    1035
 2011 005   120   117   22.0      5   4.22   4007   4699   3275   6153  15140   4027   81.3  0.216   6434      7  0.000  0.000  0.000  0.000   1.55  50.91   0.42      0   6434    105.3   0.00   0.00   1.25   3.98   3.98   3.99   3.95   3.91   3.70   3.92   0.76   0.00   0.00      0      0      0       0    1066
 2011 006   121   118   22.0      5   4.21   4007   4772   3577   6202  15514   4027   88.8  0.231   6736      7  0.000  0.000  0.000  0.000   1.51  53.11   0.43      0   6736    105.1   0.00   0.00   1.25   4.00   4.00   4.00   4.00   3.94   3.71   3.92   0.95   0.00   0.00      0      0      0       0    1097
 2011 007   122   119   22.0      5   4.20   4007   4772   3879   6248  15816   4027   96.3  0.245   7038      7  0.000  0.000  0.000  0.000   1.46  55.12   0.44      0   7038    104.9   0.00   0.00   1.25   4.00   4.00   4.00   4.00   3.99   3.75   3.95   1.24   0.00   0.00      0      0      0       0    1128
 2011 008   123   120   22.0      5   4.20   4007   4772   4181   6266  16118   4027  103.8  0.259   7340      7  0.000  0.000  0.000  0.000   1.42  56.97   0.46      0   7340    104.7   0.00   0.00   1.25   4.00   4.00   4.00   4.00   4.00   3.77   3.95   1.41   0.00   0.00      0      0      0       0    1159
 2011 009   124   121   22.0      5   4.19   4007   4772   4483   6289  16420   4027  111.3  0.273   7642      7  0.000  0.000  0.000  0.000   1.37  58.67   0.47      0   7642    104.6   0.00   0.00   1.25   4.00   4.00   4.00   4.00   4.00   3.79   3.96   1.58   0.00   0.00      0      0      0       0    1190
 2011 010   125   122   22.0      5   4.18   4007   4731   4785   6257  16682   4027  118.8  0.287   7944      7  0.000  0.000  0.000  0.000   1.33  60.24   0.48      0   7944    104.4   0.00   0.00   1.25   4.00   4.00   4.00   4.00   4.00   3.79   3.96   1.58   0.00   0.00      0      0      0       0    1222
 2011 011   126   123   22.0      5   4.18   4007   4701   5087   6226  16953   4027  126.3  0.300   8246      7  0.000  0.000  0.000  0.000   1.29  61.70   0.49      0   8246    104.3   0.00   0.00   1.25   4.00   4.00   4.00   4.00   4.00   3.79   3.96   1.58   0.00   0.00      0      0      0       0    1253
 2011 012   127   124   22.0      5   4.14   4007   4742   5389   6215  17296   4027  133.8  0.312   8548      7  0.000  0.000  0.007  0.115   1.24  63.05   0.49      0   8548    103.3   0.00   0.00   1.25   4.00   4.00   4.00   4.00   4.00   3.79   3.96   1.62   0.00   0.00      0      0      0       0    1284
 2011 013   128   125   22.0      5   4.06   4007   4772   5691   6244  17628   4027  141.3  0.323   8850      7  0.000  0.000  0.016  0.046   1.19  64.31   0.50      0   8850    101.4   0.00   0.00   1.25   4.00   4.00   4.00   4.00   4.00   3.82   3.98   1.75   0.00   0.00      0      0      0       0    1315
 2011 014   129   126   22.0      5   3.98   4007   4772   5993   6283  17930   4027  148.8  0.334   9152      7  0.000  0.000  0.031  0.003   1.15  65.49   0.51      0   9152     99.4   0.00   0.00   1.25   4.00   4.00   4.00   4.00   4.00   3.87   4.00   1.88   0.00   0.00      0      0      0       0    1346
 2011 015   130   127   22.0      5   3.88   4007   4772   6295   6327  18232   4027  156.3  0.345   9454      7  0.000  0.000  0.042  0.000   1.11  66.59   0.52      0   9454     96.8   0.00   0.00   1.25   4.00   4.00   4.00   4.00   4.00   3.92   4.00   1.99   0.00   0.00      0      0      0       0    1378
 2011 016   131   128   22.0      5   3.76   4007   4772   6597   6316  18534   4027  163.8  0.356   9756      7  0.000  0.000  0.052  0.000   1.06  67.63   0.53      0   9756     93.9   0.00   0.00   1.25   4.00   4.00   4.00   4.00   4.00   3.92   3.99   2.01   0.00   0.00      0      0      0       0    1409
 2011 017   132   129   22.0      5   3.65   4007   4772   6899   6304  18836   4027  171.3  0.366  10058      7  0.000  0.000  0.065  0.000   1.03  68.60   0.53      0  10058     91.2   0.00   0.00   1.25   4.00   4.00   4.00   4.00   4.00   3.92   3.99   2.02   0.00   0.00      0      0      0       0    1441
 2011 018   133   130   22.0      5   3.54   4007   4772   7201   6325  19138   4027  178.8  0.376  10360      7  0.000  0.000  0.075  0.000   0.99  69.51   0.54      0  10360     88.3   0.00   0.00   1.25   4.00   4.00   4.00   4.00   4.00   3.95   4.00   2.05   0.00   0.00      0      0      0       0    1473
 2011 019   134   131   22.0      5   3.41   4007   4772   7503   6348  19440   4027  186.3  0.386  10662      7  0.000  0.000  0.088  0.000   0.95  70.38   0.55      0  10662     85.1   0.00   0.00   1.25   4.00   4.00   4.00   4.00   4.00   3.99   4.00   2.06   0.00   0.00      0      0      0       0    1504
 2011 020   135   132   22.0      5   3.28   4007   4772   7805   6371  19742   4027  193.8  0.395  10964      7  0.000  0.000  0.100  0.000   0.91  71.19   0.56      0  10964     81.8   0.00   0.00   1.25   4.00   4.00   4.00   4.00   4.00   4.00   4.00   2.07   0.00   0.00      0      0      0       0    1536
 2011 021   136   133   22.0      5   3.17   4007   4772   8084   6395  20021   4027  200.8  0.404  11242      7  0.000  0.000  0.115  0.000   0.88  71.91   0.56      0  11242     79.0   0.00   0.00   1.25   4.00   4.00   4.00   4.00   4.00   4.00   4.00   2.09   0.00   0.00      0      0      0       0    1568
 2011 022   137   134   22.0      5   3.02   4007   4772   8386   6401  20323   4027  208.3  0.413  11544      7  0.000  0.000  0.124  0.000   0.85  72.64   0.57      0  11544     75.3   0.00   0.00   1.25   4.00   4.00   4.00   4.00   4.00   4.00   4.00   2.09   0.00   0.00      0      0      0       0    1600
 2011 023   138   135   22.0      5   2.85   4007   4772   8688   6415  20625   4027  215.8  0.421  11846      7  0.000  0.000  0.138  0.000   0.81  73.34   0.57      0  11846     71.2   0.00   0.00   1.25   4.00   4.00   4.00   4.00   4.00   4.00   4.00   2.10   0.00   0.00      0      0      0       0    1632
 2011 024   139   136   22.0      5   2.65   4007   4772   8990   6406  20927   4027  223.3  0.430  12148      7  0.000  0.000  0.149  0.000   0.78  74.00   0.58      0  12148     66.0   0.00   0.00   1.25   4.00   4.00   4.00   4.00   4.00   4.00   4.00   2.10   0.00   0.00      0      0      0       0    1664
 2011 025   140   137   22.0      5   2.45   4007   4772   9292   6389  21229   4027  230.8  0.438  12450      7  0.000  0.000  0.164  0.000   0.75  74.63   0.59      0  12450     61.1   0.00   0.00   1.25   4.00   4.00   4.00   4.00   4.00   4.00   3.99   2.09   0.00   0.00      0      0      0       0    1696
 2011 026   141   138   22.0      5   2.25   4007   4612   9594   6357  21371   4027  238.3  0.449  12752      7  0.000  0.000  0.179  0.000   0.73  75.23   0.60      0  12752     56.2   0.00   0.00   1.25   4.00   4.00   4.00   4.00   4.00   4.00   3.99   2.09   0.00   0.00      0      0      0       0    1728
 2011 027   142   139   22.0      5   2.25   4007   4612   9594   6357  21371   4027  238.3  0.449  12752      7  0.000  0.000  0.179  0.000   0.73  75.23   0.60      0  12752     56.2   0.00   0.00   1.25   4.00   4.00   4.00   4.00   4.00   4.00   3.99   2.09   0.00   0.00      0      0      0       0    1728
 2011 028   143   140   22.0      5   2.25   4007   4612   9594   6357  21371   4027  238.3  0.449  12752      7  0.000  0.000  0.179  0.000   0.73  75.23   0.60      0  12752     56.2   0.00   0.00   1.25   4.00   4.00   4.00   4.00   4.00   4.00   3.99   2.09   0.00   0.00      0      0      0       0    1728
 2011 029   144   141   22.0      5   2.25   4007   4612   9594   6357  21371   4027  238.3  0.449  12752      7  0.000  0.000  0.179  0.000   0.73  75.23   0.60      0  12752     56.2   0.00   0.00   1.25   4.00   4.00   4.00   4.00   4.00   4.00   3.99   2.09   0.00   0.00      0      0      0       0    1728
