*SOIL WATER DAILY OUTPUT FILE

*DSSAT Cropping System Model Ver. 4.0.2.000               Aug 12, 2016; 12:55:20

*RUN   1        : UYMZ                    
 MODEL          : MZCER040 - Maize           
 EXPERIMENT     : UYMZ0197 MZ    late to create DSS                             
 TREATMENT  1   : UYMZ                    

@YEAR DOY   DAS  SWXD   ROFC   DRNC   PREC  IR#C  IRRC  DTWT   SW1D   SW2D   SW3D   SW4D   SW5D   SW6D   SW7D   SW8D   SW9D   SW10
 2000 250     0   182      0      0      0     0     0   125  0.454  0.542  0.542  0.438  0.431  0.419  0.408  0.395  0.000  0.000
 2000 251     1   179      0      0      0     0     0   125  0.437  0.523  0.538  0.438  0.431  0.419  0.408  0.395  0.000  0.000
 2000 252     2   176      0      0      0     0     0   125  0.430  0.512  0.534  0.437  0.431  0.419  0.408  0.395  0.000  0.000
 2000 253     3   187      0      0     12     0     0   125  0.557  0.552  0.536  0.436  0.431  0.419  0.408  0.395  0.000  0.000
 2000 254     4   221      1      8     58     0     0   125  0.512  0.566  0.569  0.470  0.460  0.447  0.439  0.432  0.000  0.000
 2000 255     5   204      1     23     58     0     0   125  0.496  0.544  0.558  0.457  0.449  0.436  0.427  0.417  0.000  0.000
 2000 256     6   195      1     31     58     0     0   125  0.496  0.531  0.549  0.449  0.442  0.429  0.419  0.408  0.000  0.000
 2000 257     7   214      1     33     80     0     0   125  0.563  0.564  0.564  0.470  0.460  0.437  0.427  0.411  0.000  0.000
 2000 258     8   221      1     36     92     0     0   125  0.544  0.568  0.568  0.470  0.460  0.447  0.439  0.424  0.000  0.000
 2000 259     9   206      1     50     92     0     0   125  0.513  0.557  0.557  0.457  0.449  0.436  0.427  0.413  0.000  0.000
 2000 260    10   194      1     58     92     0     0   125  0.479  0.539  0.551  0.449  0.442  0.429  0.419  0.406  0.000  0.000
 2000 261    11   188      1     63     92     0     0   125  0.478  0.525  0.544  0.445  0.437  0.425  0.415  0.401  0.000  0.000
 2000 262    12   205      1     64    111     0     0   125  0.557  0.565  0.564  0.469  0.447  0.426  0.417  0.402  0.000  0.000
 2000 263    13   220      2     78    145     0     0   125  0.498  0.568  0.568  0.470  0.460  0.447  0.439  0.432  0.000  0.000
 2000 264    14   221      2     83    153     0     0   125  0.540  0.559  0.568  0.470  0.460  0.445  0.439  0.432  0.000  0.000
 2000 265    15   205      2     97    153     0     0   125  0.502  0.552  0.557  0.457  0.449  0.435  0.427  0.417  0.000  0.000
 2000 266    16   193      2    105    153     0     0   125  0.459  0.534  0.550  0.449  0.442  0.428  0.419  0.408  0.000  0.000
 2000 267    17   191      2    107    155     0     0   125  0.499  0.520  0.542  0.447  0.441  0.427  0.420  0.408  0.000  0.000
 2000 268    18   186      2    110    155     0     0   125  0.471  0.521  0.538  0.443  0.437  0.424  0.415  0.403  0.000  0.000
 2000 269    19   182      2    113    155     0     0   125  0.469  0.515  0.534  0.440  0.435  0.422  0.412  0.400  0.000  0.000
 2000 270    20   180      2    113    155     0     0   125  0.469  0.510  0.531  0.440  0.433  0.422  0.411  0.398  0.000  0.000
 2000 271    21   179      2    113    155     0     0   125  0.469  0.507  0.528  0.438  0.433  0.422  0.411  0.398  0.000  0.000
 2000 272    22   178      2    113    155     0     0   125  0.469  0.504  0.526  0.437  0.433  0.422  0.411  0.398  0.000  0.000
 2000 273    23   178      2    113    155     0     0   125  0.469  0.502  0.523  0.436  0.433  0.422  0.411  0.398  0.000  0.000
 2000 274    24   188      2    113    170     0     0   125  0.489  0.566  0.543  0.437  0.433  0.422  0.411  0.398  0.000  0.000
 2000 275    25   184      2    114    170     0     0   125  0.464  0.537  0.543  0.438  0.433  0.422  0.411  0.398  0.000  0.000
 2000 276    26   212      2    115    201     0     0   125  0.553  0.563  0.565  0.470  0.460  0.441  0.424  0.403  0.000  0.000
 2000 277    27   218      2    117    211     0     0   125  0.520  0.568  0.568  0.470  0.460  0.447  0.438  0.413  0.000  0.000
 2000 278    28   201      2    130    211     0     0   125  0.459  0.547  0.557  0.457  0.449  0.436  0.426  0.406  0.000  0.000
 2000 279    29   190      2    138    211     0     0   125  0.443  0.524  0.548  0.449  0.442  0.429  0.419  0.401  0.000  0.000
 2000 280    30   184      2    142    211     0     0   125  0.450  0.513  0.539  0.445  0.437  0.425  0.415  0.399  0.000  0.000
 2000 281    31   180      2    144    211     0     0   125  0.453  0.508  0.534  0.442  0.435  0.423  0.412  0.397  0.000  0.000
 2000 282    32   181      2    144    217     0     0   125  0.485  0.509  0.529  0.439  0.434  0.422  0.412  0.398  0.000  0.000
 2000 283    33   199      2    145    237     0     0   125  0.549  0.567  0.565  0.454  0.440  0.422  0.413  0.399  0.000  0.000
 2000 284    34   189      2    150    237     0     0   125  0.451  0.555  0.555  0.448  0.436  0.421  0.411  0.397  0.000  0.000
 2000 285    35   183      2    152    237     0     0   125  0.436  0.526  0.546  0.444  0.434  0.421  0.411  0.397  0.000  0.000
 2000 286    36   180      2    153    237     0     0   125  0.445  0.512  0.537  0.441  0.433  0.421  0.411  0.397  0.000  0.000
 2000 287    37   178      2    153    237     0     0   125  0.446  0.505  0.530  0.439  0.433  0.421  0.411  0.397  0.000  0.000
 2000 288    38   177      2    153    237     0     0   125  0.448  0.500  0.526  0.438  0.433  0.421  0.411  0.397  0.000  0.000
 2000 289    39   178      2    153    240     0     0   125  0.498  0.497  0.523  0.437  0.433  0.421  0.411  0.397  0.000  0.000
 2000 290    40   184      2    153    248     0     0   125  0.521  0.545  0.519  0.436  0.433  0.421  0.411  0.397  0.000  0.000
 2000 291    41   182      2    153    248     0     0   125  0.509  0.530  0.521  0.435  0.433  0.421  0.411  0.397  0.000  0.000
 2000 292    42   180      2    153    248     0     0   125  0.493  0.521  0.521  0.434  0.432  0.421  0.411  0.397  0.000  0.000
 2000 293    43   192      2    153    263     0     0   125  0.535  0.559  0.555  0.441  0.433  0.422  0.411  0.397  0.000  0.000
 2000 294    44   189      2    154    263     0     0   125  0.511  0.548  0.548  0.441  0.433  0.422  0.411  0.397  0.000  0.000
 2000 295    45   184      2    155    263     0     0   125  0.470  0.531  0.540  0.441  0.433  0.422  0.411  0.397  0.000  0.000
 2000 296    46   217      2    156    299     0     0   125  0.558  0.562  0.564  0.469  0.460  0.447  0.433  0.407  0.000  0.000
 2000 297    47   213      2    159    300     0     0   125  0.531  0.555  0.558  0.463  0.459  0.441  0.438  0.415  0.000  0.000
 2000 298    48   200      2    170    300     0     0   125  0.515  0.542  0.550  0.453  0.448  0.432  0.426  0.407  0.000  0.000
 2000 299    49   220      2    192    346     0     0   125  0.540  0.558  0.563  0.469  0.460  0.447  0.439  0.432  0.000  0.000
 2000 300    50   221      2    205    362     0     0   125  0.529  0.564  0.565  0.469  0.460  0.447  0.439  0.432  0.000  0.000
 2000 301    51   201      2    219    362     0     0   125  0.452  0.543  0.550  0.455  0.448  0.436  0.427  0.417  0.000  0.000
 2000 302    52   188      2    226    362     0     0   125  0.453  0.516  0.535  0.447  0.441  0.429  0.419  0.408  0.000  0.000
 2000 303    53   180      2    230    362     0     0   125  0.430  0.503  0.523  0.440  0.437  0.425  0.415  0.403  0.000  0.000
 2000 304    54   173      2    233    362     0     0   125  0.423  0.488  0.512  0.436  0.434  0.423  0.412  0.400  0.000  0.000
 2000 305    55   168      2    234    362     0     0   125  0.416  0.476  0.502  0.431  0.433  0.421  0.410  0.398  0.000  0.000
 2000 306    56   181      2    234    377     0     0   125  0.562  0.541  0.500  0.428  0.432  0.421  0.410  0.398  0.000  0.000
 2000 307    57   177      2    234    377     0     0   125  0.510  0.528  0.502  0.425  0.430  0.421  0.410  0.398  0.000  0.000
 2000 308    58   171      2    234    377     0     0   125  0.465  0.509  0.496  0.420  0.428  0.421  0.410  0.398  0.000  0.000
 2000 309    59   167      2    234    377     0     0   125  0.457  0.493  0.491  0.416  0.425  0.421  0.410  0.398  0.000  0.000
 2000 310    60   161      2    234    377     0     0   125  0.418  0.479  0.483  0.410  0.422  0.421  0.410  0.398  0.000  0.000
 2000 311    61   156      2    234    377     0     0   125  0.397  0.465  0.475  0.403  0.417  0.421  0.410  0.398  0.000  0.000
 2000 312    62   155      2    234    379     0     0   125  0.431  0.457  0.471  0.400  0.415  0.421  0.410  0.398  0.000  0.000
 2000 313    63   151      2    234    379     0     0   125  0.412  0.451  0.466  0.395  0.411  0.421  0.410  0.398  0.000  0.000
 2000 314    64   150      2    234    379     0     0   125  0.407  0.446  0.463  0.393  0.409  0.420  0.410  0.398  0.000  0.000
 2000 315    65   144      2    234    379     0     0   125  0.390  0.437  0.455  0.386  0.404  0.420  0.410  0.398  0.000  0.000
 2000 316    66   162      2    234    402     0     0   125  0.549  0.555  0.456  0.380  0.398  0.419  0.410  0.398  0.000  0.000
 2000 317    67   157      2    234    402     0     0   125  0.519  0.532  0.460  0.377  0.391  0.418  0.410  0.398  0.000  0.000
 2000 318    68   153      2    234    402     0     0   125  0.508  0.514  0.458  0.374  0.386  0.417  0.410  0.398  0.000  0.000
 2000 319    69   149      2    234    402     0     0   125  0.489  0.500  0.455  0.372  0.382  0.415  0.410  0.398  0.000  0.000
 2000 320    70   145      2    234    402     0     0   125  0.474  0.487  0.450  0.370  0.379  0.412  0.410  0.398  0.000  0.000
 2000 321    71   139      2    234    402     0     0   125  0.450  0.473  0.443  0.367  0.375  0.408  0.410  0.398  0.000  0.000
 2000 322    72   133      2    234    402     0     0   125  0.436  0.459  0.435  0.364  0.372  0.403  0.410  0.398  0.000  0.000
 2000 323    73   126      2    234    402     0     0   125  0.413  0.446  0.427  0.362  0.369  0.396  0.410  0.398  0.000  0.000
 2000 324    74   153      2    234    405     1    31   125  0.549  0.554  0.513  0.359  0.366  0.388  0.409  0.398  0.000  0.000
 2000 325    75   147      2    234    405     1    31   125  0.517  0.532  0.508  0.360  0.364  0.382  0.409  0.398  0.000  0.000
 2000 326    76   140      2    234    405     1    31   125  0.499  0.512  0.496  0.360  0.362  0.378  0.409  0.398  0.000  0.000
 2000 327    77   135      2    234    405     1    31   125  0.482  0.497  0.486  0.360  0.360  0.374  0.408  0.398  0.000  0.000
 2000 328    78   152      2    234    428     1    31   125  0.547  0.552  0.542  0.367  0.358  0.371  0.408  0.398  0.000  0.000
 2000 329    79   149      2    234    428     1    31   125  0.531  0.541  0.531  0.373  0.357  0.369  0.407  0.398  0.000  0.000
 2000 330    80   143      2    234    428     1    31   125  0.517  0.524  0.517  0.371  0.355  0.367  0.407  0.398  0.000  0.000
 2000 331    81   136      2    234    428     1    31   125  0.494  0.507  0.501  0.368  0.354  0.364  0.406  0.398  0.000  0.000
 2000 332    82   133      2    234    428     1    31   125  0.490  0.497  0.494  0.368  0.353  0.363  0.406  0.398  0.000  0.000
 2000 333    83   132      2    234    428     1    31   125  0.496  0.491  0.488  0.368  0.353  0.362  0.405  0.398  0.000  0.000
 2000 334    84   129      2    234    428     1    31   125  0.483  0.485  0.481  0.367  0.352  0.361  0.405  0.398  0.000  0.000
 2000 335    85   123      2    234    428     1    31   125  0.461  0.471  0.467  0.364  0.351  0.359  0.404  0.397  0.000  0.000
 2000 336    86   117      2    234    428     1    31   125  0.445  0.457  0.454  0.361  0.350  0.357  0.404  0.397  0.000  0.000
 2000 337    87   111      2    234    428     1    31   125  0.423  0.440  0.438  0.358  0.348  0.355  0.404  0.397  0.000  0.000
 2000 338    88   150      2    234    442     2    60   125  0.559  0.555  0.557  0.382  0.347  0.354  0.403  0.397  0.000  0.000
 2000 339    89   147      2    234    442     2    60   125  0.544  0.544  0.541  0.393  0.347  0.353  0.403  0.397  0.000  0.000
 2000 340    90   141      2    234    442     2    60   125  0.526  0.533  0.527  0.385  0.347  0.352  0.402  0.397  0.000  0.000
 2000 341    91   135      2    234    442     2    60   125  0.514  0.518  0.513  0.379  0.346  0.351  0.399  0.397  0.000  0.000
 2000 342    92   129      2    234    442     2    60   125  0.499  0.505  0.500  0.374  0.346  0.350  0.394  0.396  0.000  0.000
 2000 343    93   124      2    234    442     2    60   125  0.488  0.494  0.490  0.372  0.345  0.349  0.390  0.396  0.000  0.000
 2000 344    94   117      2    234    442     2    60   125  0.469  0.478  0.475  0.367  0.344  0.348  0.382  0.396  0.000  0.000
 2000 345    95   111      2    234    442     2    60   125  0.456  0.466  0.463  0.364  0.343  0.347  0.376  0.395  0.000  0.000
 2000 346    96   107      2    234    442     2    60   125  0.447  0.456  0.455  0.363  0.343  0.346  0.372  0.395  0.000  0.000
 2000 347    97   101      2    234    442     2    60   125  0.433  0.444  0.443  0.360  0.342  0.345  0.367  0.394  0.000  0.000
 2000 348    98   154      2    234    502     2    60   125  0.552  0.551  0.552  0.466  0.375  0.344  0.361  0.393  0.000  0.000
 2000 349    99   149      2    234    502     2    60   125  0.535  0.539  0.539  0.445  0.393  0.343  0.359  0.393  0.000  0.000
 2000 350   100   153      2    234    511     2    60   125  0.560  0.559  0.551  0.439  0.394  0.343  0.358  0.392  0.000  0.000
 2000 351   101   146      2    234    511     2    60   125  0.542  0.547  0.540  0.427  0.395  0.342  0.355  0.391  0.000  0.000
 2000 352   102   140      2    234    511     2    60   125  0.529  0.537  0.531  0.417  0.386  0.342  0.354  0.390  0.000  0.000
 2000 353   103   133      2    234    511     2    60   125  0.519  0.522  0.520  0.407  0.379  0.341  0.352  0.387  0.000  0.000
 2000 354   104   127      2    234    511     2    60   125  0.508  0.512  0.510  0.398  0.375  0.341  0.351  0.385  0.000  0.000
 2000 355   105   124      2    234    514     2    60   125  0.545  0.506  0.499  0.389  0.372  0.340  0.349  0.381  0.000  0.000
 2000 356   106   126      2    234    518     2    60   125  0.540  0.540  0.497  0.387  0.371  0.340  0.349  0.379  0.000  0.000
 2000 357   107   119      2    234    518     2    60   125  0.524  0.521  0.490  0.379  0.367  0.340  0.348  0.374  0.000  0.000
 2000 358   108   120      2    234    522     2    60   125  0.560  0.531  0.488  0.378  0.366  0.339  0.348  0.371  0.000  0.000
 2000 359   109   114      2    234    522     2    60   125  0.527  0.521  0.481  0.374  0.364  0.339  0.346  0.365  0.000  0.000
 2000 360   110   108      2    234    522     2    60   125  0.505  0.506  0.472  0.369  0.361  0.338  0.345  0.359  0.000  0.000
 2000 361   111   138      2    234    560     2    60   125  0.546  0.549  0.555  0.450  0.368  0.337  0.343  0.352  0.000  0.000
 2000 362   112   155      2    234    579     2    60   125  0.563  0.564  0.564  0.465  0.438  0.339  0.343  0.351  0.000  0.000
 2000 363   113   151      2    234    579     2    60   125  0.546  0.551  0.551  0.449  0.430  0.355  0.342  0.349  0.000  0.000
 2000 364   114   152      2    234    583     2    60   125  0.560  0.560  0.549  0.445  0.429  0.356  0.342  0.347  0.000  0.000
 2000 365   115   145      2    234    583     2    60   125  0.542  0.547  0.539  0.432  0.420  0.360  0.341  0.344  0.000  0.000
 2000 366   116   139      2    234    583     2    60   125  0.527  0.537  0.531  0.423  0.410  0.359  0.340  0.342  0.000  0.000
 2001 001   117   131      2    234    583     2    60   125  0.519  0.523  0.521  0.413  0.400  0.357  0.339  0.339  0.000  0.000
 2001 002   118   124      2    234    583     2    60   125  0.505  0.512  0.511  0.404  0.390  0.356  0.338  0.337  0.000  0.000
 2001 003   119   117      2    234    583     2    60   125  0.492  0.500  0.500  0.394  0.382  0.354  0.337  0.335  0.000  0.000
 2001 004   120   124      2    234    595     2    60   125  0.559  0.557  0.502  0.387  0.378  0.353  0.337  0.334  0.000  0.000
 2001 005   121   117      2    234    595     2    60   125  0.533  0.531  0.500  0.379  0.373  0.352  0.336  0.332  0.000  0.000
 2001 006   122   113      2    234    598     2    60   125  0.546  0.529  0.491  0.373  0.368  0.350  0.335  0.330  0.000  0.000
 2001 007   123   157      3    234    646     2    60   125  0.548  0.561  0.566  0.469  0.454  0.358  0.334  0.330  0.000  0.000
 2001 008   124   153      3    234    646     2    60   125  0.535  0.547  0.550  0.450  0.438  0.376  0.334  0.329  0.000  0.000
 2001 009   125   168      3    234    667     2    60   125  0.561  0.557  0.560  0.462  0.452  0.400  0.333  0.328  0.000  0.000
 2001 010   126   183      3    234    684     2    60   125  0.563  0.566  0.567  0.468  0.459  0.430  0.349  0.328  0.000  0.000
 2001 011   127   177      3    234    684     2    60   125  0.537  0.553  0.553  0.452  0.443  0.415  0.391  0.327  0.000  0.000
 2001 012   128   170      3    234    684     2    60   125  0.528  0.542  0.544  0.441  0.434  0.412  0.392  0.326  0.000  0.000
 2001 013   129   167      3    234    686     2    60   125  0.560  0.537  0.539  0.436  0.429  0.409  0.387  0.327  0.000  0.000
 2001 014   130   184      3    234    707     2    60   125  0.555  0.567  0.565  0.466  0.457  0.417  0.383  0.327  0.000  0.000
 2001 015   131   178      3    234    707     2    60   125  0.536  0.555  0.553  0.449  0.440  0.413  0.403  0.331  0.000  0.000
 2001 016   132   173      3    234    707     2    60   125  0.530  0.544  0.545  0.439  0.431  0.414  0.400  0.331  0.000  0.000
 2001 017   133   173      3    234    711     2    60   125  0.572  0.549  0.545  0.438  0.430  0.411  0.396  0.332  0.000  0.000
 2001 018   134   173      3    234    713     2    60   125  0.561  0.557  0.546  0.438  0.429  0.409  0.393  0.332  0.000  0.000
 2001 019   135   169      3    234    713     2    60   125  0.546  0.549  0.542  0.435  0.428  0.409  0.389  0.332  0.000  0.000
 2001 020   136   163      3    234    713     2    60   125  0.529  0.542  0.537  0.432  0.422  0.403  0.383  0.332  0.000  0.000
 2001 021   137   156      3    234    713     2    60   125  0.524  0.532  0.531  0.426  0.416  0.398  0.378  0.332  0.000  0.000
 2001 022   138   153      3    234    713     2    60   125  0.522  0.527  0.528  0.424  0.414  0.395  0.376  0.332  0.000  0.000
 2001 023   139   146      3    234    713     2    60   125  0.506  0.519  0.520  0.417  0.407  0.389  0.372  0.331  0.000  0.000
 2001 024   140   139      3    234    713     2    60   125  0.493  0.509  0.512  0.411  0.400  0.384  0.368  0.331  0.000  0.000
 2001 025   141   132      3    234    713     2    60   125  0.479  0.499  0.504  0.404  0.393  0.380  0.365  0.330  0.000  0.000
 2001 026   142   136      3    234    723     2    60   125  0.557  0.541  0.500  0.398  0.388  0.377  0.362  0.330  0.000  0.000
 2001 027   143   147      3    234    736     2    60   125  0.558  0.558  0.558  0.405  0.386  0.376  0.361  0.329  0.000  0.000
 2001 028   144   145      3    234    736     2    60   125  0.544  0.549  0.546  0.418  0.385  0.375  0.361  0.329  0.000  0.000
 2001 029   145   139      3    234    736     2    60   125  0.519  0.541  0.535  0.415  0.381  0.373  0.358  0.329  0.000  0.000
 2001 030   146   133      3    234    736     2    60   125  0.508  0.526  0.525  0.408  0.378  0.370  0.356  0.328  0.000  0.000
 2001 031   147   126      3    234    736     2    60   125  0.489  0.513  0.515  0.401  0.375  0.368  0.354  0.327  0.000  0.000
 2001 032   148   122      3    234    736     2    60   125  0.477  0.503  0.508  0.396  0.373  0.366  0.353  0.327  0.000  0.000
 2001 033   149   115      3    234    736     2    60   125  0.449  0.490  0.497  0.388  0.371  0.364  0.351  0.326  0.000  0.000
 2001 034   150   109      3    234    736     2    60   125  0.427  0.478  0.487  0.382  0.368  0.363  0.350  0.325  0.000  0.000
 2001 035   151   102      3    234    736     2    60   125  0.402  0.463  0.476  0.376  0.366  0.360  0.348  0.324  0.000  0.000
 2001 036   152    95      3    234    736     2    60   125  0.379  0.449  0.463  0.372  0.363  0.358  0.346  0.324  0.000  0.000

*DSSAT Cropping System Model Ver. 4.0.2.000               Aug 12, 2016; 12:55:20

*RUN   2        : UYMZ                    
 MODEL          : MZCER040 - Maize           
 EXPERIMENT     : UYMZ0197 MZ    late to create DSS                             
 TREATMENT  1   : UYMZ                    

@YEAR DOY   DAS  SWXD   ROFC   DRNC   PREC  IR#C  IRRC  DTWT   SW1D   SW2D   SW3D   SW4D   SW5D   SW6D   SW7D   SW8D   SW9D   SW10
 2001 250     0   222      1     13     51     0     0   125  0.542  0.568  0.568  0.470  0.460  0.447  0.439  0.432  0.000  0.000
 2001 251     1   203      1     27     51     0     0   125  0.454  0.557  0.557  0.457  0.449  0.436  0.427  0.417  0.000  0.000
 2001 252     2   194      1     36     51     0     0   125  0.478  0.528  0.549  0.449  0.442  0.429  0.419  0.408  0.000  0.000
 2001 253     3   186      1     41     51     0     0   125  0.455  0.521  0.542  0.445  0.437  0.425  0.415  0.403  0.000  0.000
 2001 254     4   182      1     43     51     0     0   125  0.457  0.514  0.537  0.442  0.435  0.423  0.412  0.400  0.000  0.000
 2001 255     5   182      1     44     54     0     0   125  0.493  0.509  0.533  0.439  0.434  0.422  0.412  0.400  0.000  0.000
 2001 256     6   180      1     44     54     0     0   125  0.477  0.511  0.530  0.439  0.433  0.422  0.411  0.398  0.000  0.000
 2001 257     7   179      1     44     54     0     0   125  0.473  0.508  0.527  0.437  0.433  0.422  0.411  0.398  0.000  0.000
 2001 258     8   180      1     44     56     0     0   125  0.495  0.506  0.525  0.436  0.433  0.422  0.411  0.398  0.000  0.000
 2001 259     9   179      1     44     56     0     0   125  0.482  0.507  0.524  0.435  0.433  0.422  0.411  0.398  0.000  0.000
 2001 260    10   178      1     44     56     0     0   125  0.477  0.505  0.522  0.434  0.432  0.422  0.411  0.398  0.000  0.000
 2001 261    11   177      1     44     56     0     0   125  0.475  0.503  0.520  0.434  0.432  0.422  0.411  0.398  0.000  0.000
 2001 262    12   177      1     44     56     0     0   125  0.473  0.501  0.519  0.433  0.432  0.422  0.411  0.398  0.000  0.000
 2001 263    13   176      1     44     56     0     0   125  0.472  0.500  0.517  0.432  0.432  0.422  0.411  0.398  0.000  0.000
 2001 264    14   175      1     44     56     0     0   125  0.471  0.498  0.516  0.431  0.431  0.422  0.411  0.398  0.000  0.000
 2001 265    15   175      1     44     56     0     0   125  0.470  0.496  0.515  0.430  0.431  0.422  0.411  0.398  0.000  0.000
 2001 266    16   174      1     44     56     0     0   125  0.469  0.495  0.513  0.430  0.431  0.422  0.411  0.398  0.000  0.000
 2001 267    17   175      1     44     60     0     0   125  0.495  0.495  0.512  0.429  0.430  0.422  0.411  0.398  0.000  0.000
 2001 268    18   183      1     44     69     0     0   125  0.538  0.549  0.513  0.428  0.430  0.422  0.411  0.398  0.000  0.000
 2001 269    19   181      1     44     69     0     0   125  0.511  0.538  0.520  0.428  0.430  0.422  0.411  0.398  0.000  0.000
 2001 270    20   191      1     44     80     0     0   125  0.557  0.557  0.551  0.433  0.429  0.422  0.411  0.398  0.000  0.000
 2001 271    21   189      1     45     80     0     0   125  0.519  0.551  0.547  0.439  0.431  0.422  0.411  0.398  0.000  0.000
 2001 272    22   221      2     69    140     0     0   125  0.529  0.559  0.568  0.470  0.460  0.447  0.439  0.432  0.000  0.000
 2001 273    23   222      2     87    161     0     0   125  0.548  0.562  0.568  0.470  0.460  0.447  0.439  0.432  0.000  0.000
 2001 274    24   229     11    149    241     0     0    15  0.554  0.576  0.585  0.491  0.460  0.447  0.439  0.432  0.000  0.000
 2001 275    25   222     11    158    244     0     0   125  0.532  0.568  0.568  0.470  0.460  0.447  0.439  0.432  0.000  0.000
 2001 276    26   218     11    163    246     0     0   125  0.540  0.557  0.563  0.465  0.460  0.442  0.439  0.432  0.000  0.000
 2001 277    27   213     11    167    248     0     0   125  0.507  0.554  0.558  0.461  0.457  0.438  0.439  0.430  0.000  0.000
 2001 278    28   198     11    178    248     0     0   125  0.460  0.535  0.551  0.452  0.447  0.430  0.427  0.416  0.000  0.000
 2001 279    29   188     11    184    248     0     0   125  0.442  0.520  0.542  0.446  0.440  0.426  0.419  0.408  0.000  0.000
 2001 280    30   215     11    186    278     0     0   125  0.555  0.566  0.563  0.469  0.460  0.440  0.429  0.411  0.000  0.000
 2001 281    31   201     11    197    278     0     0   125  0.500  0.555  0.554  0.457  0.449  0.432  0.420  0.405  0.000  0.000
 2001 282    32   198     11    199    279     0     0   125  0.503  0.533  0.550  0.453  0.448  0.430  0.423  0.407  0.000  0.000
 2001 283    33   188     11    204    279     0     0   125  0.461  0.525  0.542  0.447  0.441  0.426  0.417  0.402  0.000  0.000
 2001 284    34   183     11    207    279     0     0   125  0.455  0.515  0.535  0.443  0.437  0.423  0.413  0.399  0.000  0.000
 2001 285    35   179     11    209    279     0     0   125  0.454  0.508  0.529  0.440  0.435  0.421  0.411  0.398  0.000  0.000
 2001 286    36   177     11    210    279     0     0   125  0.452  0.501  0.524  0.439  0.433  0.421  0.410  0.398  0.000  0.000
 2001 287    37   175     11    210    279     0     0   125  0.449  0.496  0.519  0.438  0.433  0.421  0.410  0.398  0.000  0.000
 2001 288    38   195     11    210    301     0     0   125  0.554  0.564  0.559  0.444  0.435  0.421  0.411  0.398  0.000  0.000
 2001 289    39   196     11    210    304     0     0   125  0.528  0.567  0.560  0.450  0.438  0.422  0.411  0.398  0.000  0.000
 2001 290    40   208     11    211    321     0     0   125  0.518  0.560  0.565  0.470  0.460  0.435  0.421  0.402  0.000  0.000
 2001 291    41   195     11    220    321     0     0   125  0.475  0.540  0.553  0.457  0.449  0.429  0.416  0.399  0.000  0.000
 2001 292    42   186     11    225    321     0     0   125  0.463  0.521  0.541  0.449  0.442  0.425  0.413  0.398  0.000  0.000
 2001 293    43   188     11    226    328     0     0   125  0.513  0.534  0.532  0.444  0.440  0.424  0.414  0.399  0.000  0.000
 2001 294    44   182     11    228    328     0     0   125  0.470  0.523  0.527  0.440  0.436  0.422  0.412  0.398  0.000  0.000
 2001 295    45   176     11    229    328     0     0   125  0.432  0.507  0.519  0.438  0.434  0.421  0.410  0.398  0.000  0.000
 2001 296    46   172     11    229    328     0     0   125  0.423  0.492  0.511  0.435  0.433  0.421  0.410  0.398  0.000  0.000
 2001 297    47   168     11    229    328     0     0   125  0.415  0.478  0.502  0.431  0.433  0.421  0.410  0.398  0.000  0.000
 2001 298    48   164     11    229    328     0     0   125  0.407  0.465  0.492  0.427  0.432  0.421  0.410  0.398  0.000  0.000
 2001 299    49   207     11    230    373     0     0   125  0.557  0.562  0.564  0.468  0.460  0.430  0.416  0.400  0.000  0.000
 2001 300    50   222     12    259    420     0     0   125  0.548  0.565  0.565  0.469  0.460  0.447  0.439  0.432  0.000  0.000
 2001 301    51   222     12    270    433     0     0   125  0.549  0.565  0.565  0.469  0.460  0.447  0.439  0.432  0.000  0.000
 2001 302    52   222     12    276    441     0     0   125  0.548  0.565  0.565  0.469  0.460  0.447  0.439  0.432  0.000  0.000
 2001 303    53   202     12    290    441     0     0   125  0.485  0.548  0.547  0.453  0.448  0.436  0.427  0.417  0.000  0.000
 2001 304    54   188     12    298    441     0     0   125  0.469  0.520  0.532  0.443  0.440  0.429  0.419  0.408  0.000  0.000
 2001 305    55   179     12    301    441     0     0   125  0.455  0.502  0.520  0.436  0.434  0.425  0.415  0.403  0.000  0.000
 2001 306    56   172     12    303    441     0     0   125  0.433  0.490  0.510  0.430  0.430  0.423  0.412  0.400  0.000  0.000
 2001 307    57   165     12    304    441     0     0   125  0.410  0.478  0.501  0.423  0.424  0.421  0.410  0.398  0.000  0.000
 2001 308    58   160     12    304    441     0     0   125  0.398  0.466  0.491  0.415  0.418  0.421  0.410  0.398  0.000  0.000
 2001 309    59   155     12    304    441     0     0   125  0.389  0.456  0.483  0.407  0.410  0.420  0.410  0.398  0.000  0.000
 2001 310    60   191     12    304    480     0     0   125  0.563  0.562  0.563  0.440  0.411  0.420  0.410  0.398  0.000  0.000
 2001 311    61   194     12    304    485     0     0   125  0.558  0.566  0.566  0.450  0.420  0.419  0.410  0.398  0.000  0.000
 2001 312    62   189     12    306    485     0     0   125  0.530  0.551  0.551  0.440  0.427  0.418  0.410  0.398  0.000  0.000
 2001 313    63   208     12    307    510     0     0   125  0.556  0.558  0.564  0.464  0.455  0.437  0.422  0.403  0.000  0.000
 2001 314    64   215     12    309    521     0     0   125  0.555  0.566  0.566  0.466  0.457  0.443  0.433  0.410  0.000  0.000
 2001 315    65   197     12    320    521     0     0   125  0.517  0.552  0.553  0.444  0.435  0.432  0.423  0.404  0.000  0.000
 2001 316    66   186     12    325    521     0     0   125  0.509  0.532  0.543  0.434  0.425  0.423  0.417  0.400  0.000  0.000
 2001 317    67   182     12    327    521     0     0   125  0.516  0.526  0.537  0.431  0.423  0.420  0.413  0.398  0.000  0.000
 2001 318    68   177     12    327    521     0     0   125  0.505  0.521  0.530  0.427  0.418  0.417  0.411  0.397  0.000  0.000
 2001 319    69   171     12    327    521     0     0   125  0.492  0.512  0.521  0.421  0.412  0.412  0.410  0.397  0.000  0.000
 2001 320    70   166     12    327    521     0     0   125  0.484  0.504  0.514  0.416  0.407  0.407  0.410  0.397  0.000  0.000
 2001 321    71   160     12    327    521     0     0   125  0.474  0.496  0.506  0.410  0.401  0.401  0.410  0.397  0.000  0.000
 2001 322    72   153     12    327    521     0     0   125  0.460  0.488  0.499  0.404  0.395  0.395  0.409  0.397  0.000  0.000
 2001 323    73   148     12    327    521     0     0   125  0.452  0.480  0.492  0.398  0.390  0.390  0.409  0.397  0.000  0.000
 2001 324    74   141     12    327    521     0     0   125  0.437  0.470  0.482  0.390  0.384  0.384  0.409  0.397  0.000  0.000
 2001 325    75   138     12    327    521     0     0   125  0.434  0.463  0.477  0.387  0.382  0.382  0.408  0.397  0.000  0.000
 2001 326    76   132     12    327    521     0     0   125  0.425  0.454  0.468  0.381  0.378  0.379  0.408  0.397  0.000  0.000
 2001 327    77   126     12    327    521     0     0   125  0.414  0.442  0.456  0.375  0.373  0.374  0.407  0.397  0.000  0.000
 2001 328    78   175     12    327    572     0     0   125  0.568  0.563  0.564  0.454  0.384  0.373  0.407  0.397  0.000  0.000
 2001 329    79   172     12    327    572     0     0   125  0.549  0.550  0.551  0.442  0.407  0.372  0.406  0.397  0.000  0.000
 2001 330    80   219     14    330    624     0     0   125  0.563  0.565  0.565  0.466  0.459  0.447  0.439  0.413  0.000  0.000
 2001 331    81   199     14    342    624     0     0   125  0.542  0.552  0.552  0.451  0.439  0.427  0.426  0.406  0.000  0.000
 2001 332    82   188     14    348    624     0     0   125  0.528  0.543  0.543  0.440  0.428  0.416  0.418  0.402  0.000  0.000
 2001 333    83   195     14    348    637     0     0   125  0.569  0.558  0.562  0.453  0.432  0.413  0.412  0.401  0.000  0.000
 2001 334    84   194     14    349    638     0     0   125  0.564  0.557  0.557  0.451  0.436  0.414  0.409  0.400  0.000  0.000
 2001 335    85   185     14    351    638     0     0   125  0.541  0.547  0.548  0.440  0.427  0.413  0.405  0.398  0.000  0.000
 2001 336    86   179     14    351    638     0     0   125  0.530  0.540  0.541  0.434  0.425  0.407  0.400  0.398  0.000  0.000
 2001 337    87   177     14    351    638     0     0   125  0.535  0.535  0.538  0.432  0.423  0.406  0.398  0.398  0.000  0.000
 2001 338    88   176     14    351    639     0     0   125  0.546  0.537  0.535  0.430  0.421  0.404  0.397  0.397  0.000  0.000
 2001 339    89   173     14    351    639     0     0   125  0.533  0.536  0.533  0.428  0.419  0.401  0.394  0.397  0.000  0.000
 2001 340    90   168     14    351    639     0     0   125  0.527  0.530  0.529  0.424  0.414  0.397  0.390  0.397  0.000  0.000
 2001 341    91   163     14    351    639     0     0   125  0.519  0.524  0.523  0.419  0.409  0.392  0.385  0.397  0.000  0.000
 2001 342    92   157     14    351    639     0     0   125  0.512  0.517  0.517  0.414  0.404  0.388  0.381  0.396  0.000  0.000
 2001 343    93   151     14    351    639     0     0   125  0.504  0.510  0.511  0.409  0.399  0.384  0.377  0.396  0.000  0.000
 2001 344    94   145     14    351    639     0     0   125  0.495  0.502  0.504  0.403  0.392  0.381  0.373  0.395  0.000  0.000
 2001 345    95   141     14    351    639     0     0   125  0.488  0.496  0.497  0.397  0.387  0.378  0.371  0.394  0.000  0.000
 2001 346    96   136     14    351    639     0     0   125  0.481  0.489  0.491  0.392  0.384  0.376  0.369  0.394  0.000  0.000
 2001 347    97   132     14    351    639     0     0   125  0.474  0.482  0.485  0.387  0.380  0.374  0.367  0.393  0.000  0.000
 2001 348    98   127     14    351    639     0     0   125  0.464  0.474  0.476  0.382  0.377  0.371  0.365  0.392  0.000  0.000
 2001 349    99   121     14    351    639     0     0   125  0.452  0.464  0.467  0.376  0.373  0.368  0.362  0.391  0.000  0.000
 2001 350   100   115     14    351    639     0     0   125  0.441  0.454  0.458  0.373  0.370  0.366  0.360  0.390  0.000  0.000
 2001 351   101   109     14    351    639     0     0   125  0.425  0.442  0.446  0.368  0.367  0.364  0.357  0.386  0.000  0.000
 2001 352   102   102     14    351    639     0     0   125  0.414  0.429  0.434  0.365  0.364  0.361  0.355  0.381  0.000  0.000
 2001 353   103   129     14    351    639     1    31   125  0.562  0.562  0.491  0.362  0.362  0.359  0.353  0.376  0.000  0.000
 2001 354   104   125     14    351    639     1    31   125  0.543  0.538  0.496  0.362  0.360  0.358  0.352  0.371  0.000  0.000
 2001 355   105   157     14    351    673     1    31   125  0.559  0.559  0.568  0.469  0.380  0.358  0.352  0.369  0.000  0.000
 2001 356   106   151     14    351    673     1    31   125  0.541  0.547  0.548  0.446  0.406  0.356  0.351  0.364  0.000  0.000
 2001 357   107   144     14    351    673     1    31   125  0.527  0.538  0.537  0.433  0.406  0.355  0.349  0.360  0.000  0.000
 2001 358   108   138     14    351    673     1    31   125  0.521  0.527  0.529  0.424  0.398  0.354  0.348  0.355  0.000  0.000
 2001 359   109   131     14    351    673     1    31   125  0.509  0.517  0.519  0.415  0.389  0.353  0.347  0.351  0.000  0.000
 2001 360   110   124     14    351    673     1    31   125  0.496  0.506  0.508  0.405  0.382  0.352  0.346  0.347  0.000  0.000
 2001 361   111   117     14    351    673     1    31   125  0.482  0.494  0.497  0.395  0.377  0.351  0.344  0.344  0.000  0.000
 2001 362   112   110     14    351    673     1    31   125  0.469  0.482  0.486  0.385  0.373  0.350  0.343  0.341  0.000  0.000
 2001 363   113   104     14    351    673     1    31   125  0.456  0.470  0.474  0.378  0.369  0.349  0.342  0.339  0.000  0.000
 2001 364   114   114     14    351    690     1    31   125  0.553  0.550  0.471  0.372  0.366  0.348  0.340  0.337  0.000  0.000
 2001 365   115   109     14    351    690     1    31   125  0.535  0.528  0.472  0.370  0.363  0.347  0.340  0.335  0.000  0.000
 2002 001   116   102     14    351    690     1    31   125  0.507  0.509  0.462  0.365  0.360  0.345  0.338  0.333  0.000  0.000
 2002 002   117    96     14    351    690     1    31   125  0.488  0.491  0.451  0.362  0.358  0.344  0.337  0.331  0.000  0.000
 2002 003   118    89     14    351    690     1    31   125  0.466  0.472  0.437  0.359  0.355  0.343  0.335  0.329  0.000  0.000
 2002 004   119    84     14    351    690     1    31   125  0.447  0.456  0.426  0.356  0.353  0.342  0.334  0.327  0.000  0.000
 2002 005   120    98     14    351    706     1    31   125  0.562  0.543  0.427  0.355  0.352  0.342  0.334  0.327  0.000  0.000
 2002 006   121   104     14    351    716     1    31   125  0.552  0.547  0.475  0.353  0.351  0.341  0.333  0.325  0.000  0.000
 2002 007   122    98     14    351    716     1    31   125  0.526  0.520  0.468  0.352  0.349  0.340  0.332  0.324  0.000  0.000
 2002 008   123    91     14    351    716     1    31   125  0.497  0.499  0.455  0.351  0.347  0.339  0.331  0.322  0.000  0.000
 2002 009   124    85     14    351    716     1    31   125  0.476  0.481  0.442  0.350  0.345  0.338  0.330  0.321  0.000  0.000
 2002 010   125    78     14    351    716     1    31   125  0.453  0.461  0.427  0.348  0.344  0.337  0.329  0.320  0.000  0.000
 2002 011   126    72     14    351    716     1    31   125  0.429  0.441  0.418  0.346  0.342  0.336  0.328  0.319  0.000  0.000
 2002 012   127    97     14    351    716     2    63   125  0.543  0.540  0.487  0.343  0.340  0.334  0.326  0.317  0.000  0.000
 2002 013   128   103     14    351    729     2    63   125  0.538  0.543  0.532  0.345  0.339  0.333  0.325  0.316  0.000  0.000
 2002 014   129   103     14    351    732     2    63   125  0.560  0.541  0.527  0.348  0.338  0.333  0.325  0.315  0.000  0.000
 2002 015   130    97     14    351    732     2    63   125  0.533  0.524  0.510  0.350  0.337  0.332  0.324  0.314  0.000  0.000
 2002 016   131    91     14    351    732     2    63   125  0.500  0.509  0.494  0.350  0.337  0.331  0.323  0.313  0.000  0.000
 2002 017   132    86     14    351    732     2    63   125  0.482  0.491  0.480  0.350  0.336  0.331  0.323  0.313  0.000  0.000
 2002 018   133    79     14    351    732     2    63   125  0.458  0.473  0.463  0.349  0.335  0.330  0.322  0.312  0.000  0.000
 2002 019   134    73     14    351    732     2    63   125  0.431  0.453  0.446  0.348  0.334  0.329  0.321  0.311  0.000  0.000
 2002 020   135    69     14    351    735     2    63   125  0.471  0.435  0.429  0.346  0.333  0.328  0.320  0.310  0.000  0.000
 2002 021   136    65     14    351    735     2    63   125  0.441  0.426  0.420  0.345  0.333  0.328  0.320  0.310  0.000  0.000
 2002 022   137    90     14    351    735     3    95   125  0.524  0.554  0.485  0.342  0.331  0.327  0.319  0.309  0.000  0.000
 2002 023   138    84     14    351    735     3    95   125  0.509  0.516  0.477  0.342  0.331  0.326  0.318  0.308  0.000  0.000
 2002 024   139   124     14    351    778     3    95   125  0.555  0.553  0.561  0.466  0.349  0.326  0.318  0.308  0.000  0.000
 2002 025   140   118     14    351    778     3    95   125  0.521  0.538  0.543  0.442  0.373  0.326  0.318  0.307  0.000  0.000
 2002 026   141   115     14    351    778     3    95   125  0.521  0.529  0.537  0.434  0.375  0.326  0.317  0.307  0.000  0.000
 2002 027   142   115     14    351    782     3    95   125  0.553  0.538  0.530  0.426  0.374  0.326  0.317  0.307  0.000  0.000
 2002 028   143   108     14    351    782     3    95   125  0.505  0.529  0.521  0.415  0.371  0.325  0.317  0.306  0.000  0.000
 2002 029   144   101     14    351    782     3    95   125  0.478  0.510  0.509  0.404  0.368  0.325  0.316  0.306  0.000  0.000
 2002 030   145   169     66    351    909     3    95   125  0.542  0.558  0.558  0.460  0.458  0.425  0.323  0.306  0.000  0.000
 2002 031   146   164     66    351    909     3    95   125  0.513  0.547  0.547  0.447  0.443  0.418  0.353  0.306  0.000  0.000
 2002 032   147   157     66    351    909     3    95   125  0.498  0.530  0.539  0.438  0.433  0.413  0.361  0.306  0.000  0.000
 2002 033   148   151     66    351    909     3    95   125  0.484  0.519  0.531  0.433  0.428  0.408  0.360  0.306  0.000  0.000

*DSSAT Cropping System Model Ver. 4.0.2.000               Aug 12, 2016; 12:55:20

*RUN   3        : UYMZ                    
 MODEL          : MZCER040 - Maize           
 EXPERIMENT     : UYMZ0197 MZ    late to create DSS                             
 TREATMENT  1   : UYMZ                    

@YEAR DOY   DAS  SWXD   ROFC   DRNC   PREC  IR#C  IRRC  DTWT   SW1D   SW2D   SW3D   SW4D   SW5D   SW6D   SW7D   SW8D   SW9D   SW10
 2002 250     0   183      0      0      0     0     0   125  0.477  0.542  0.542  0.438  0.431  0.419  0.408  0.395  0.000  0.000
 2002 251     1   180      0      0      0     0     0   125  0.453  0.526  0.539  0.438  0.431  0.419  0.408  0.395  0.000  0.000
 2002 252     2   178      0      0      0     0     0   125  0.459  0.515  0.535  0.437  0.431  0.419  0.408  0.395  0.000  0.000
 2002 253     3   197      0      0     20     0     0   125  0.560  0.565  0.565  0.454  0.438  0.421  0.408  0.395  0.000  0.000
 2002 254     4   227      7     39     98     0     0    19  0.558  0.568  0.574  0.491  0.460  0.447  0.439  0.432  0.000  0.000
 2002 255     5   207      7     56     98     0     0   125  0.472  0.557  0.561  0.470  0.449  0.436  0.427  0.417  0.000  0.000
 2002 256     6   194      7     65     98     0     0   125  0.460  0.531  0.552  0.457  0.442  0.429  0.419  0.408  0.000  0.000
 2002 257     7   187      7     71     98     0     0   125  0.459  0.519  0.543  0.449  0.437  0.425  0.415  0.403  0.000  0.000
 2002 258     8   183      7     73     98     0     0   125  0.461  0.514  0.538  0.445  0.435  0.423  0.412  0.400  0.000  0.000
 2002 259     9   183      7     74    100     0     0   125  0.492  0.510  0.534  0.441  0.435  0.422  0.412  0.400  0.000  0.000
 2002 260    10   181      7     75    100     0     0   125  0.479  0.511  0.531  0.439  0.433  0.422  0.411  0.398  0.000  0.000
 2002 261    11   200      7     75    121     0     0   125  0.552  0.566  0.565  0.459  0.441  0.423  0.412  0.398  0.000  0.000
 2002 262    12   200      7     76    124     0     0   125  0.530  0.568  0.564  0.459  0.446  0.424  0.414  0.400  0.000  0.000
 2002 263    13   190      7     82    124     0     0   125  0.458  0.552  0.555  0.451  0.440  0.422  0.412  0.398  0.000  0.000
 2002 264    14   184      7     85    124     0     0   125  0.439  0.527  0.547  0.446  0.436  0.421  0.410  0.398  0.000  0.000
 2002 265    15   181      7     86    124     0     0   125  0.449  0.515  0.540  0.443  0.434  0.421  0.410  0.398  0.000  0.000
 2002 266    16   180      7     86    124     0     0   125  0.454  0.510  0.535  0.440  0.433  0.421  0.410  0.398  0.000  0.000
 2002 267    17   179      7     86    124     0     0   125  0.458  0.506  0.531  0.439  0.433  0.421  0.410  0.398  0.000  0.000
 2002 268    18   178      7     86    124     0     0   125  0.460  0.503  0.528  0.438  0.433  0.421  0.410  0.398  0.000  0.000
 2002 269    19   177      7     86    124     0     0   125  0.461  0.500  0.525  0.437  0.433  0.421  0.410  0.398  0.000  0.000
 2002 270    20   176      7     86    124     0     0   125  0.461  0.498  0.522  0.436  0.433  0.421  0.410  0.398  0.000  0.000
 2002 271    21   176      7     86    124     0     0   125  0.462  0.497  0.520  0.435  0.433  0.421  0.410  0.398  0.000  0.000
 2002 272    22   216      7     88    167     0     0   125  0.550  0.566  0.566  0.469  0.460  0.447  0.430  0.406  0.000  0.000
 2002 273    23   201      7    100    167     0     0   125  0.477  0.556  0.556  0.456  0.449  0.436  0.421  0.401  0.000  0.000
 2002 274    24   191      7    106    167     0     0   125  0.464  0.530  0.549  0.449  0.442  0.429  0.416  0.399  0.000  0.000
 2002 275    25   211      7    108    192     0     0   125  0.514  0.564  0.564  0.470  0.460  0.439  0.426  0.405  0.000  0.000
 2002 276    26   196      7    118    192     0     0   125  0.453  0.542  0.555  0.457  0.449  0.431  0.419  0.401  0.000  0.000
 2002 277    27   188      7    124    192     0     0   125  0.459  0.521  0.545  0.449  0.442  0.426  0.415  0.399  0.000  0.000
 2002 278    28   183      7    127    192     0     0   125  0.461  0.514  0.538  0.445  0.437  0.423  0.412  0.397  0.000  0.000
 2002 279    29   221    105    161    366     0     0   125  0.517  0.572  0.564  0.469  0.460  0.447  0.439  0.432  0.000  0.000
 2002 280    30   222    105    168    375     0     0   125  0.552  0.558  0.567  0.470  0.460  0.447  0.439  0.432  0.000  0.000
 2002 281    31   222    105    175    384     0     0   125  0.537  0.567  0.567  0.470  0.460  0.447  0.439  0.432  0.000  0.000
 2002 282    32   222    105    193    404     0     0   125  0.541  0.565  0.567  0.470  0.460  0.447  0.439  0.432  0.000  0.000
 2002 283    33   220    105    198    409     0     0   125  0.538  0.567  0.567  0.470  0.460  0.443  0.439  0.432  0.000  0.000
 2002 284    34   205    105    212    409     0     0   125  0.502  0.554  0.556  0.457  0.449  0.433  0.427  0.417  0.000  0.000
 2002 285    35   192    105    220    409     0     0   125  0.453  0.532  0.547  0.449  0.442  0.427  0.419  0.408  0.000  0.000
 2002 286    36   184    105    224    409     0     0   125  0.440  0.516  0.537  0.445  0.437  0.424  0.415  0.403  0.000  0.000
 2002 287    37   179    105    227    409     0     0   125  0.437  0.505  0.527  0.441  0.435  0.422  0.412  0.400  0.000  0.000
 2002 288    38   201    105    227    434     0     0   125  0.550  0.564  0.563  0.463  0.444  0.423  0.413  0.400  0.000  0.000
 2002 289    39   193    105    233    434     0     0   125  0.512  0.554  0.552  0.453  0.439  0.422  0.411  0.398  0.000  0.000
 2002 290    40   185    105    236    434     0     0   125  0.462  0.533  0.542  0.446  0.436  0.422  0.410  0.397  0.000  0.000
 2002 291    41   179    105    237    434     0     0   125  0.433  0.515  0.532  0.441  0.434  0.422  0.410  0.397  0.000  0.000
 2002 292    42   222    131    269    537     0     0   125  0.559  0.570  0.564  0.468  0.460  0.447  0.439  0.432  0.000  0.000
 2002 293    43   206    131    283    537     0     0   125  0.526  0.556  0.553  0.456  0.449  0.436  0.427  0.417  0.000  0.000
 2002 294    44   194    131    291    537     0     0   125  0.493  0.539  0.543  0.448  0.442  0.429  0.419  0.408  0.000  0.000
 2002 295    45   186    131    295    537     0     0   125  0.472  0.521  0.534  0.442  0.437  0.425  0.415  0.403  0.000  0.000
 2002 296    46   178    131    298    537     0     0   125  0.438  0.508  0.525  0.438  0.434  0.423  0.412  0.400  0.000  0.000
 2002 297    47   173    131    299    537     0     0   125  0.425  0.493  0.515  0.434  0.432  0.421  0.410  0.398  0.000  0.000
 2002 298    48   170    131    299    537     0     0   125  0.419  0.484  0.509  0.431  0.432  0.421  0.410  0.398  0.000  0.000
 2002 299    49   218    131    316    607     0     0   125  0.530  0.555  0.557  0.465  0.459  0.447  0.439  0.432  0.000  0.000
 2002 300    50   203    131    328    607     0     0   125  0.523  0.541  0.548  0.453  0.448  0.436  0.427  0.417  0.000  0.000
 2002 301    51   219    131    337    636     0     0   125  0.546  0.555  0.559  0.467  0.460  0.447  0.439  0.432  0.000  0.000
 2002 302    52   204    131    350    636     0     0   125  0.522  0.546  0.548  0.454  0.448  0.436  0.427  0.417  0.000  0.000
 2002 303    53   195    131    357    636     0     0   125  0.525  0.534  0.541  0.446  0.440  0.429  0.419  0.408  0.000  0.000
 2002 304    54   185    131    361    636     0     0   125  0.489  0.524  0.530  0.438  0.434  0.425  0.415  0.403  0.000  0.000
 2002 305    55   178    131    363    636     0     0   125  0.474  0.509  0.520  0.432  0.430  0.422  0.412  0.400  0.000  0.000
 2002 306    56   172    131    364    636     0     0   125  0.457  0.498  0.512  0.426  0.425  0.421  0.410  0.398  0.000  0.000
 2002 307    57   222    131    380    704     0     0   125  0.572  0.562  0.564  0.467  0.458  0.447  0.439  0.432  0.000  0.000
 2002 308    58   205    131    394    704     0     0   125  0.543  0.550  0.551  0.452  0.444  0.436  0.427  0.417  0.000  0.000
 2002 309    59   192    131    401    704     0     0   125  0.512  0.540  0.540  0.441  0.432  0.428  0.419  0.408  0.000  0.000
 2002 310    60   184    131    404    704     0     0   125  0.503  0.526  0.532  0.435  0.425  0.423  0.415  0.403  0.000  0.000
 2002 311    61   177    131    406    704     0     0   125  0.488  0.516  0.524  0.430  0.419  0.418  0.412  0.400  0.000  0.000
 2002 312    62   170    131    406    704     0     0   125  0.476  0.505  0.516  0.424  0.413  0.414  0.410  0.398  0.000  0.000
 2002 313    63   184    131    406    719     0     0   125  0.571  0.562  0.542  0.424  0.411  0.412  0.410  0.398  0.000  0.000
 2002 314    64   180    131    406    719     0     0   125  0.543  0.550  0.537  0.431  0.408  0.409  0.410  0.398  0.000  0.000
 2002 315    65   178    131    406    719     0     0   125  0.535  0.544  0.538  0.429  0.407  0.408  0.410  0.398  0.000  0.000
 2002 316    66   172    131    406    719     0     0   125  0.516  0.535  0.532  0.424  0.401  0.402  0.410  0.398  0.000  0.000
 2002 317    67   165    131    406    719     0     0   125  0.504  0.522  0.524  0.419  0.396  0.396  0.410  0.398  0.000  0.000
 2002 318    68   164    131    406    723     0     0   125  0.552  0.519  0.518  0.414  0.391  0.391  0.409  0.398  0.000  0.000
 2002 319    69   160    131    406    723     0     0   125  0.517  0.523  0.514  0.411  0.389  0.388  0.409  0.398  0.000  0.000
 2002 320    70   153    131    406    723     0     0   125  0.497  0.512  0.507  0.403  0.383  0.383  0.409  0.398  0.000  0.000
 2002 321    71   151    131    406    723     0     0   125  0.497  0.505  0.503  0.400  0.382  0.382  0.408  0.398  0.000  0.000
 2002 322    72   144    131    406    723     0     0   125  0.478  0.494  0.494  0.392  0.378  0.378  0.408  0.398  0.000  0.000
 2002 323    73   181    131    406    764     0     0   125  0.561  0.559  0.561  0.464  0.418  0.375  0.407  0.398  0.000  0.000
 2002 324    74   187    131    406    771     0     0   125  0.562  0.565  0.565  0.467  0.439  0.379  0.407  0.398  0.000  0.000
 2002 325    75   182    131    406    771     0     0   125  0.541  0.550  0.550  0.449  0.429  0.393  0.406  0.398  0.000  0.000
 2002 326    76   176    131    406    771     0     0   125  0.526  0.540  0.541  0.438  0.423  0.391  0.406  0.398  0.000  0.000
 2002 327    77   169    131    406    771     0     0   125  0.522  0.529  0.533  0.430  0.415  0.386  0.406  0.398  0.000  0.000
 2002 328    78   220    152    424    865     0     0   125  0.574  0.563  0.562  0.464  0.455  0.444  0.439  0.432  0.000  0.000
 2002 329    79   221    152    431    876     0     0   125  0.563  0.565  0.566  0.468  0.458  0.445  0.439  0.432  0.000  0.000
 2002 330    80   202    152    445    876     0     0   125  0.542  0.550  0.550  0.450  0.442  0.429  0.426  0.417  0.000  0.000
 2002 331    81   192    152    451    876     0     0   125  0.535  0.543  0.544  0.442  0.434  0.422  0.419  0.408  0.000  0.000
 2002 332    82   188    152    454    876     0     0   125  0.537  0.539  0.542  0.438  0.431  0.420  0.414  0.403  0.000  0.000
 2002 333    83   185    152    455    876     0     0   125  0.534  0.537  0.539  0.436  0.429  0.418  0.411  0.400  0.000  0.000
 2002 334    84   219    163    488    959     0     0   125  0.574  0.563  0.562  0.464  0.455  0.442  0.438  0.432  0.000  0.000
 2002 335    85   218    163    492    964     0     0   125  0.563  0.566  0.566  0.465  0.455  0.437  0.438  0.430  0.000  0.000
 2002 336    86   199    163    504    964     0     0   125  0.539  0.553  0.553  0.445  0.436  0.425  0.425  0.416  0.000  0.000
 2002 337    87   219    164    522   1007     0     0   125  0.560  0.562  0.564  0.465  0.456  0.443  0.437  0.432  0.000  0.000
 2002 338    88   221    164    549   1039     0     0   125  0.563  0.565  0.566  0.468  0.458  0.445  0.438  0.432  0.000  0.000
 2002 339    89   220    165    586   1080     0     0   125  0.559  0.564  0.564  0.466  0.457  0.444  0.437  0.432  0.000  0.000
 2002 340    90   204    165    600   1080     0     0   125  0.547  0.552  0.553  0.453  0.445  0.432  0.424  0.417  0.000  0.000
 2002 341    91   194    165    607   1080     0     0   125  0.538  0.545  0.545  0.444  0.436  0.424  0.416  0.408  0.000  0.000
 2002 342    92   185    165    610   1080     0     0   125  0.529  0.536  0.539  0.436  0.429  0.418  0.409  0.403  0.000  0.000
 2002 343    93   179    165    610   1080     0     0   125  0.522  0.528  0.532  0.431  0.424  0.413  0.406  0.400  0.000  0.000
 2002 344    94   180    165    610   1084     0     0   125  0.566  0.540  0.529  0.428  0.422  0.411  0.404  0.398  0.000  0.000
 2002 345    95   173    165    610   1084     0     0   125  0.540  0.532  0.525  0.422  0.416  0.405  0.400  0.397  0.000  0.000
 2002 346    96   168    165    610   1084     0     0   125  0.522  0.528  0.521  0.418  0.411  0.401  0.397  0.396  0.000  0.000
 2002 347    97   164    165    610   1084     0     0   125  0.518  0.521  0.517  0.415  0.408  0.398  0.395  0.396  0.000  0.000
 2002 348    98   159    165    610   1084     0     0   125  0.509  0.514  0.512  0.410  0.403  0.394  0.392  0.395  0.000  0.000
 2002 349    99   154    165    610   1084     0     0   125  0.502  0.507  0.506  0.406  0.399  0.390  0.390  0.393  0.000  0.000
 2002 350   100   147    165    610   1084     0     0   125  0.490  0.499  0.499  0.400  0.392  0.386  0.386  0.392  0.000  0.000
 2002 351   101   141    165    610   1084     0     0   125  0.481  0.491  0.492  0.394  0.387  0.383  0.382  0.390  0.000  0.000
 2002 352   102   151    165    610   1100     0     0   125  0.555  0.558  0.512  0.386  0.382  0.379  0.379  0.388  0.000  0.000
 2002 353   103   161    165    610   1113     0     0   125  0.563  0.559  0.568  0.405  0.381  0.378  0.378  0.387  0.000  0.000
 2002 354   104   157    165    610   1113     0     0   125  0.543  0.546  0.548  0.419  0.378  0.376  0.376  0.385  0.000  0.000
 2002 355   105   150    165    610   1113     0     0   125  0.528  0.537  0.535  0.414  0.375  0.373  0.373  0.382  0.000  0.000
 2002 356   106   209    167    610   1176     0     0   125  0.570  0.561  0.563  0.468  0.460  0.446  0.413  0.385  0.000  0.000
 2002 357   107   199    167    619   1176     0     0   125  0.554  0.553  0.552  0.453  0.446  0.433  0.409  0.395  0.000  0.000
 2002 358   108   188    167    623   1176     0     0   125  0.538  0.545  0.543  0.442  0.435  0.423  0.406  0.394  0.000  0.000
 2002 359   109   181    167    624   1176     0     0   125  0.528  0.536  0.537  0.434  0.427  0.416  0.403  0.393  0.000  0.000
 2002 360   110   174    167    624   1176     0     0   125  0.520  0.528  0.530  0.428  0.421  0.409  0.399  0.391  0.000  0.000
 2002 361   111   166    167    624   1176     0     0   125  0.510  0.520  0.523  0.421  0.414  0.403  0.394  0.389  0.000  0.000
 2002 362   112   164    167    624   1176     0     0   125  0.512  0.516  0.520  0.419  0.412  0.401  0.393  0.388  0.000  0.000
 2002 363   113   162    167    624   1176     0     0   125  0.510  0.514  0.517  0.418  0.411  0.399  0.392  0.388  0.000  0.000
 2002 364   114   162    167    624   1179     0     0   125  0.554  0.516  0.513  0.415  0.408  0.396  0.390  0.387  0.000  0.000
 2002 365   115   159    167    624   1179     0     0   125  0.526  0.524  0.513  0.413  0.406  0.394  0.388  0.386  0.000  0.000
 2003 001   116   155    167    624   1179     0     0   125  0.515  0.518  0.510  0.410  0.402  0.391  0.386  0.384  0.000  0.000
 2003 002   117   150    167    624   1179     0     0   125  0.506  0.511  0.506  0.405  0.397  0.387  0.383  0.383  0.000  0.000
 2003 003   118   148    167    624   1179     0     0   125  0.504  0.507  0.504  0.403  0.395  0.386  0.382  0.382  0.000  0.000
 2003 004   119   141    167    624   1179     0     0   125  0.490  0.499  0.496  0.397  0.388  0.382  0.378  0.379  0.000  0.000
 2003 005   120   134    167    624   1179     0     0   125  0.477  0.489  0.488  0.390  0.383  0.378  0.375  0.377  0.000  0.000
 2003 006   121   127    167    624   1179     0     0   125  0.464  0.479  0.480  0.383  0.378  0.375  0.371  0.374  0.000  0.000
 2003 007   122   120    167    624   1179     0     0   125  0.449  0.467  0.469  0.377  0.374  0.371  0.368  0.371  0.000  0.000
 2003 008   123   123    167    624   1189     0     0   125  0.552  0.494  0.459  0.372  0.370  0.368  0.365  0.368  0.000  0.000
 2003 009   124   121    167    624   1193     0     0   125  0.522  0.525  0.452  0.369  0.367  0.366  0.363  0.365  0.000  0.000
 2003 010   125   118    167    624   1193     0     0   125  0.515  0.512  0.452  0.368  0.366  0.365  0.362  0.364  0.000  0.000
 2003 011   126   114    167    624   1194     0     0   125  0.515  0.498  0.446  0.365  0.364  0.362  0.360  0.362  0.000  0.000
 2003 012   127   107    167    624   1194     0     0   125  0.481  0.485  0.435  0.362  0.361  0.360  0.357  0.360  0.000  0.000
 2003 013   128   100    167    624   1194     0     0   125  0.456  0.467  0.426  0.358  0.358  0.357  0.355  0.357  0.000  0.000
 2003 014   129    93    167    624   1194     0     0   125  0.428  0.447  0.418  0.355  0.355  0.355  0.352  0.355  0.000  0.000
 2003 015   130   117    167    624   1194     1    31   125  0.546  0.547  0.492  0.352  0.353  0.352  0.349  0.352  0.000  0.000
 2003 016   131   110    167    624   1194     1    31   125  0.515  0.522  0.483  0.352  0.351  0.351  0.348  0.351  0.000  0.000
 2003 017   132   104    167    624   1194     1    31   125  0.489  0.501  0.471  0.351  0.349  0.349  0.346  0.349  0.000  0.000
 2003 018   133    97    167    624   1194     1    31   125  0.463  0.482  0.458  0.350  0.347  0.347  0.345  0.348  0.000  0.000
 2003 019   134   129    167    624   1232     1    31   125  0.543  0.551  0.555  0.401  0.346  0.346  0.343  0.346  0.000  0.000
 2003 020   135   124    167    624   1232     1    31   125  0.520  0.540  0.539  0.403  0.346  0.345  0.343  0.345  0.000  0.000
 2003 021   136   118    167    624   1232     1    31   125  0.502  0.523  0.525  0.394  0.346  0.345  0.342  0.344  0.000  0.000
 2003 022   137   117    167    624   1235     1    31   125  0.553  0.519  0.516  0.389  0.346  0.344  0.341  0.344  0.000  0.000
 2003 023   138   111    167    624   1235     1    31   125  0.493  0.517  0.506  0.382  0.346  0.343  0.341  0.343  0.000  0.000
 2003 024   139   105    167    624   1235     1    31   125  0.464  0.499  0.494  0.377  0.346  0.342  0.340  0.342  0.000  0.000
 2003 025   140    98    167    624   1235     1    31   125  0.435  0.482  0.482  0.372  0.345  0.342  0.339  0.341  0.000  0.000
 2003 026   141    92    167    624   1235     1    31   125  0.411  0.464  0.468  0.368  0.344  0.341  0.338  0.340  0.000  0.000
 2003 027   142    86    167    624   1235     1    31   125  0.386  0.447  0.455  0.364  0.343  0.340  0.337  0.340  0.000  0.000

*DSSAT Cropping System Model Ver. 4.0.2.000               Aug 12, 2016; 12:55:20

*RUN   4        : UYMZ                    
 MODEL          : MZCER040 - Maize           
 EXPERIMENT     : UYMZ0197 MZ    late to create DSS                             
 TREATMENT  1   : UYMZ                    

@YEAR DOY   DAS  SWXD   ROFC   DRNC   PREC  IR#C  IRRC  DTWT   SW1D   SW2D   SW3D   SW4D   SW5D   SW6D   SW7D   SW8D   SW9D   SW10
 2003 250     0   221      0      3     39     0     0   125  0.540  0.568  0.568  0.470  0.460  0.447  0.439  0.422  0.000  0.000
 2003 251     1   222      0     24     63     0     0   125  0.546  0.567  0.568  0.470  0.460  0.447  0.439  0.432  0.000  0.000
 2003 252     2   204      0     38     63     0     0   125  0.474  0.557  0.557  0.457  0.449  0.436  0.427  0.417  0.000  0.000
 2003 253     3   193      0     47     63     0     0   125  0.462  0.531  0.550  0.449  0.442  0.429  0.419  0.408  0.000  0.000
 2003 254     4   186      0     51     63     0     0   125  0.453  0.519  0.542  0.445  0.437  0.425  0.415  0.403  0.000  0.000
 2003 255     5   182      0     54     63     0     0   125  0.455  0.513  0.537  0.442  0.435  0.423  0.412  0.400  0.000  0.000
 2003 256     6   180      0     55     63     0     0   125  0.458  0.508  0.533  0.439  0.433  0.421  0.410  0.398  0.000  0.000
 2003 257     7   179      0     55     63     0     0   125  0.460  0.505  0.529  0.438  0.433  0.421  0.410  0.398  0.000  0.000
 2003 258     8   178      0     55     63     0     0   125  0.462  0.502  0.526  0.437  0.433  0.421  0.410  0.398  0.000  0.000
 2003 259     9   177      0     55     63     0     0   125  0.463  0.500  0.524  0.436  0.433  0.421  0.410  0.398  0.000  0.000
 2003 260    10   176      0     55     63     0     0   125  0.463  0.498  0.521  0.435  0.433  0.421  0.410  0.398  0.000  0.000
 2003 261    11   176      0     55     63     0     0   125  0.463  0.497  0.519  0.434  0.433  0.421  0.410  0.398  0.000  0.000
 2003 262    12   177      0     55     66     0     0   125  0.500  0.495  0.518  0.433  0.433  0.421  0.410  0.398  0.000  0.000
 2003 263    13   176      0     55     66     0     0   125  0.485  0.500  0.516  0.432  0.432  0.421  0.410  0.398  0.000  0.000
 2003 264    14   189      0     55     82     0     0   125  0.512  0.568  0.546  0.435  0.432  0.421  0.410  0.398  0.000  0.000
 2003 265    15   186      0     56     82     0     0   125  0.480  0.545  0.544  0.439  0.432  0.421  0.410  0.398  0.000  0.000
 2003 266    16   187      0     56     85     0     0   125  0.541  0.529  0.541  0.438  0.432  0.421  0.410  0.398  0.000  0.000
 2003 267    17   184      0     56     85     0     0   125  0.481  0.536  0.540  0.438  0.432  0.421  0.410  0.398  0.000  0.000
 2003 268    18   182      0     56     85     0     0   125  0.469  0.523  0.537  0.438  0.432  0.421  0.410  0.398  0.000  0.000
 2003 269    19   180      0     56     85     0     0   125  0.470  0.516  0.533  0.437  0.432  0.421  0.410  0.398  0.000  0.000
 2003 270    20   184      0     56     91     0     0   125  0.535  0.523  0.530  0.436  0.432  0.421  0.410  0.398  0.000  0.000
 2003 271    21   182      0     56     91     0     0   125  0.482  0.528  0.531  0.436  0.432  0.421  0.410  0.398  0.000  0.000
 2003 272    22   180      0     56     91     0     0   125  0.481  0.518  0.529  0.435  0.431  0.421  0.410  0.398  0.000  0.000
 2003 273    23   179      0     56     91     0     0   125  0.478  0.512  0.527  0.435  0.431  0.421  0.410  0.398  0.000  0.000
 2003 274    24   178      0     56     91     0     0   125  0.476  0.508  0.525  0.434  0.431  0.421  0.410  0.398  0.000  0.000
 2003 275    25   177      0     56     91     0     0   125  0.474  0.505  0.523  0.433  0.431  0.421  0.410  0.398  0.000  0.000
 2003 276    26   180      0     56     95     0     0   125  0.537  0.507  0.521  0.433  0.431  0.421  0.410  0.398  0.000  0.000
 2003 277    27   201      0     57    118     0     0   125  0.517  0.578  0.568  0.466  0.442  0.423  0.412  0.398  0.000  0.000
 2003 278    28   192      0     63    118     0     0   125  0.486  0.552  0.558  0.455  0.438  0.421  0.410  0.397  0.000  0.000
 2003 279    29   185      0     66    118     0     0   125  0.457  0.530  0.549  0.448  0.435  0.421  0.410  0.397  0.000  0.000
 2003 280    30   181      0     67    118     0     0   125  0.445  0.516  0.541  0.444  0.433  0.421  0.410  0.397  0.000  0.000
 2003 281    31   206      0     67    145     0     0   125  0.539  0.566  0.563  0.469  0.460  0.429  0.416  0.400  0.000  0.000
 2003 282    32   193      0     75    145     0     0   125  0.452  0.552  0.554  0.457  0.449  0.425  0.413  0.398  0.000  0.000
 2003 283    33   186      0     80    145     0     0   125  0.455  0.525  0.546  0.449  0.442  0.423  0.411  0.398  0.000  0.000
 2003 284    34   182      0     82    145     0     0   125  0.454  0.513  0.538  0.445  0.437  0.421  0.411  0.398  0.000  0.000
 2003 285    35   180      0     82    145     0     0   125  0.453  0.506  0.532  0.441  0.435  0.421  0.411  0.398  0.000  0.000
 2003 286    36   178      0     83    145     0     0   125  0.452  0.501  0.527  0.439  0.433  0.421  0.411  0.398  0.000  0.000
 2003 287    37   176      0     83    145     0     0   125  0.449  0.496  0.522  0.438  0.433  0.421  0.411  0.398  0.000  0.000
 2003 288    38   174      0     83    145     0     0   125  0.446  0.491  0.517  0.436  0.433  0.421  0.411  0.398  0.000  0.000
 2003 289    39   173      0     83    145     0     0   125  0.442  0.486  0.512  0.435  0.433  0.421  0.411  0.398  0.000  0.000
 2003 290    40   171      0     83    145     0     0   125  0.437  0.481  0.507  0.433  0.433  0.421  0.411  0.398  0.000  0.000
 2003 291    41   171      0     83    149     0     0   125  0.459  0.476  0.503  0.432  0.433  0.421  0.411  0.398  0.000  0.000
 2003 292    42   169      0     83    149     0     0   125  0.445  0.473  0.498  0.430  0.432  0.421  0.411  0.398  0.000  0.000
 2003 293    43   167      0     83    149     0     0   125  0.437  0.471  0.495  0.429  0.432  0.421  0.411  0.398  0.000  0.000
 2003 294    44   165      0     83    149     0     0   125  0.427  0.465  0.489  0.427  0.431  0.421  0.411  0.398  0.000  0.000
 2003 295    45   162      0     83    149     0     0   125  0.419  0.457  0.482  0.425  0.431  0.421  0.411  0.398  0.000  0.000
 2003 296    46   160      0     83    149     0     0   125  0.411  0.449  0.474  0.423  0.430  0.421  0.411  0.398  0.000  0.000
 2003 297    47   157      0     83    149     0     0   125  0.405  0.441  0.466  0.420  0.430  0.421  0.411  0.398  0.000  0.000
 2003 298    48   180      0     83    174     0     0   125  0.542  0.563  0.495  0.418  0.429  0.421  0.411  0.398  0.000  0.000
 2003 299    49   175      0     83    174     0     0   125  0.485  0.539  0.499  0.417  0.428  0.421  0.411  0.398  0.000  0.000
 2003 300    50   170      0     83    174     0     0   125  0.465  0.509  0.494  0.415  0.427  0.421  0.411  0.398  0.000  0.000
 2003 301    51   164      0     83    174     0     0   125  0.420  0.490  0.486  0.412  0.426  0.421  0.411  0.398  0.000  0.000
 2003 302    52   159      0     83    174     0     0   125  0.403  0.472  0.477  0.408  0.425  0.421  0.411  0.398  0.000  0.000
 2003 303    53   154      0     83    174     0     0   125  0.391  0.455  0.466  0.402  0.423  0.421  0.411  0.398  0.000  0.000
 2003 304    54   164      0     83    187     0     0   125  0.561  0.485  0.462  0.400  0.422  0.421  0.411  0.398  0.000  0.000
 2003 305    55   159      0     83    187     0     0   125  0.477  0.491  0.456  0.396  0.420  0.421  0.411  0.398  0.000  0.000
 2003 306    56   153      0     83    187     0     0   125  0.437  0.478  0.451  0.391  0.418  0.420  0.411  0.398  0.000  0.000
 2003 307    57   148      0     83    187     0     0   125  0.406  0.463  0.444  0.386  0.415  0.420  0.411  0.398  0.000  0.000
 2003 308    58   143      0     83    187     0     0   125  0.380  0.449  0.437  0.381  0.411  0.420  0.411  0.398  0.000  0.000
 2003 309    59   168      0     83    187     1    31   125  0.538  0.552  0.489  0.376  0.407  0.420  0.411  0.398  0.000  0.000
 2003 310    60   162      0     83    187     1    31   125  0.500  0.528  0.488  0.374  0.402  0.420  0.411  0.398  0.000  0.000
 2003 311    61   156      0     83    187     1    31   125  0.477  0.505  0.480  0.372  0.397  0.419  0.411  0.398  0.000  0.000
 2003 312    62   151      0     83    187     1    31   125  0.460  0.489  0.473  0.370  0.392  0.419  0.411  0.398  0.000  0.000
 2003 313    63   147      0     83    187     1    31   125  0.444  0.476  0.466  0.369  0.388  0.418  0.411  0.398  0.000  0.000
 2003 314    64   141      0     83    187     1    31   125  0.414  0.460  0.454  0.366  0.383  0.418  0.411  0.398  0.000  0.000
 2003 315    65   188      0     83    240     1    31   125  0.549  0.551  0.555  0.461  0.395  0.417  0.411  0.398  0.000  0.000
 2003 316    66   190      0     83    244     1    31   125  0.556  0.562  0.553  0.453  0.407  0.417  0.411  0.398  0.000  0.000
 2003 317    67   185      0     83    244     1    31   125  0.529  0.547  0.542  0.439  0.420  0.416  0.411  0.398  0.000  0.000
 2003 318    68   179      0     83    244     1    31   125  0.515  0.533  0.535  0.430  0.414  0.415  0.411  0.398  0.000  0.000
 2003 319    69   190      0     83    261     1    31   125  0.556  0.555  0.558  0.449  0.419  0.414  0.411  0.398  0.000  0.000
 2003 320    70   192      0     83    265     1    31   125  0.561  0.565  0.559  0.449  0.427  0.413  0.411  0.398  0.000  0.000
 2003 321    71   220      3    104    320     1    31   125  0.555  0.563  0.563  0.465  0.456  0.446  0.439  0.432  0.000  0.000
 2003 322    72   221      3    118    337     1    31   125  0.560  0.566  0.566  0.467  0.456  0.446  0.439  0.432  0.000  0.000
 2003 323    73   202      3    132    337     1    31   125  0.534  0.552  0.552  0.450  0.433  0.432  0.427  0.417  0.000  0.000
 2003 324    74   190      3    138    337     1    31   125  0.519  0.539  0.542  0.437  0.424  0.425  0.419  0.408  0.000  0.000
 2003 325    75   181      3    140    337     1    31   125  0.513  0.526  0.533  0.428  0.415  0.420  0.415  0.403  0.000  0.000
 2003 326    76   173      3    142    337     1    31   125  0.499  0.516  0.523  0.419  0.407  0.416  0.412  0.400  0.000  0.000
 2003 327    77   180      3    142    351     1    31   125  0.557  0.558  0.542  0.417  0.399  0.412  0.410  0.399  0.000  0.000
 2003 328    78   178      3    142    351     1    31   125  0.546  0.549  0.538  0.423  0.398  0.410  0.410  0.397  0.000  0.000
 2003 329    79   172      3    142    351     1    31   125  0.528  0.537  0.533  0.416  0.391  0.407  0.410  0.397  0.000  0.000
 2003 330    80   191      3    142    375     1    31   125  0.566  0.559  0.561  0.465  0.423  0.404  0.410  0.397  0.000  0.000
 2003 331    81   184      3    142    375     1    31   125  0.538  0.547  0.545  0.445  0.422  0.409  0.410  0.397  0.000  0.000
 2003 332    82   181      3    142    375     1    31   125  0.533  0.540  0.540  0.437  0.422  0.407  0.409  0.397  0.000  0.000
 2003 333    83   174      3    142    375     1    31   125  0.523  0.530  0.532  0.428  0.413  0.402  0.409  0.397  0.000  0.000
 2003 334    84   179      3    142    382     1    31   125  0.568  0.561  0.538  0.425  0.411  0.401  0.409  0.397  0.000  0.000
 2003 335    85   173      3    142    382     1    31   125  0.543  0.544  0.534  0.422  0.403  0.397  0.409  0.397  0.000  0.000
 2003 336    86   168      3    142    382     1    31   125  0.533  0.536  0.528  0.417  0.398  0.394  0.408  0.397  0.000  0.000
 2003 337    87   162      3    142    382     1    31   125  0.524  0.526  0.521  0.410  0.391  0.391  0.407  0.397  0.000  0.000
 2003 338    88   172      3    142    395     1    31   125  0.562  0.562  0.551  0.416  0.388  0.389  0.406  0.397  0.000  0.000
 2003 339    89   165      3    142    395     1    31   125  0.540  0.545  0.536  0.420  0.383  0.385  0.405  0.397  0.000  0.000
 2003 340    90   159      3    142    395     1    31   125  0.528  0.533  0.528  0.412  0.379  0.382  0.401  0.397  0.000  0.000
 2003 341    91   155      3    142    395     1    31   125  0.523  0.525  0.522  0.407  0.377  0.380  0.397  0.397  0.000  0.000
 2003 342    92   158      3    142    402     1    31   125  0.563  0.553  0.524  0.404  0.377  0.379  0.394  0.397  0.000  0.000
 2003 343    93   152      3    142    402     1    31   125  0.542  0.536  0.523  0.397  0.374  0.376  0.388  0.396  0.000  0.000
 2003 344    94   153      3    142    409     1    31   125  0.550  0.559  0.533  0.391  0.372  0.374  0.381  0.396  0.000  0.000
 2003 345    95   149      3    142    409     1    31   125  0.540  0.547  0.531  0.388  0.370  0.372  0.376  0.395  0.000  0.000
 2003 346    96   143      3    142    409     1    31   125  0.530  0.534  0.523  0.383  0.368  0.370  0.371  0.395  0.000  0.000
 2003 347    97   139      3    142    409     1    31   125  0.523  0.523  0.515  0.381  0.366  0.368  0.368  0.394  0.000  0.000
 2003 348    98   133      3    142    409     1    31   125  0.509  0.512  0.504  0.377  0.364  0.366  0.365  0.394  0.000  0.000
 2003 349    99   154      3    142    432     1    31   125  0.564  0.562  0.563  0.413  0.363  0.365  0.364  0.393  0.000  0.000
 2003 350   100   148      3    142    432     1    31   125  0.542  0.545  0.543  0.421  0.362  0.363  0.361  0.392  0.000  0.000
 2003 351   101   142      3    142    432     1    31   125  0.527  0.535  0.531  0.412  0.362  0.361  0.359  0.390  0.000  0.000
 2003 352   102   135      3    142    432     1    31   125  0.518  0.521  0.519  0.402  0.361  0.359  0.357  0.388  0.000  0.000
 2003 353   103   131      3    142    432     1    31   125  0.509  0.513  0.511  0.395  0.360  0.358  0.355  0.385  0.000  0.000
 2003 354   104   128      3    142    432     1    31   125  0.505  0.508  0.506  0.392  0.360  0.357  0.355  0.384  0.000  0.000
 2003 355   105   189      3    142    500     1    31   125  0.554  0.557  0.557  0.460  0.459  0.424  0.361  0.380  0.000  0.000
 2003 356   106   186      3    142    500     1    31   125  0.543  0.548  0.548  0.448  0.445  0.419  0.391  0.378  0.000  0.000
 2003 357   107   179      3    142    500     1    31   125  0.533  0.540  0.540  0.439  0.434  0.414  0.397  0.377  0.000  0.000
 2003 358   108   175      3    142    500     1    31   125  0.532  0.534  0.536  0.435  0.429  0.410  0.393  0.375  0.000  0.000
 2003 359   109   167      3    142    500     1    31   125  0.522  0.528  0.530  0.429  0.423  0.404  0.387  0.372  0.000  0.000
 2003 360   110   161      3    142    500     1    31   125  0.516  0.522  0.524  0.424  0.418  0.399  0.382  0.369  0.000  0.000
 2003 361   111   180      3    142    521     1    31   125  0.568  0.565  0.565  0.457  0.430  0.398  0.381  0.368  0.000  0.000
 2003 362   112   176      3    142    521     1    31   125  0.551  0.553  0.553  0.446  0.427  0.407  0.378  0.366  0.000  0.000
 2003 363   113   170      3    142    521     1    31   125  0.537  0.543  0.543  0.438  0.426  0.406  0.375  0.363  0.000  0.000
 2003 364   114   164      3    142    521     1    31   125  0.531  0.537  0.538  0.432  0.420  0.401  0.372  0.361  0.000  0.000
 2003 365   115   158      3    142    521     1    31   125  0.525  0.530  0.532  0.427  0.415  0.395  0.370  0.358  0.000  0.000
 2004 001   116   152      3    142    521     1    31   125  0.517  0.523  0.525  0.421  0.409  0.390  0.367  0.356  0.000  0.000
 2004 002   117   145      3    142    521     1    31   125  0.508  0.515  0.518  0.414  0.402  0.385  0.365  0.354  0.000  0.000
 2004 003   118   138      3    142    521     1    31   125  0.498  0.506  0.509  0.407  0.395  0.380  0.362  0.351  0.000  0.000
 2004 004   119   133      3    142    521     1    31   125  0.491  0.499  0.502  0.401  0.389  0.378  0.360  0.349  0.000  0.000
 2004 005   120   127      3    142    521     1    31   125  0.481  0.491  0.494  0.394  0.384  0.375  0.358  0.347  0.000  0.000
 2004 006   121   120      3    142    521     1    31   125  0.469  0.481  0.484  0.386  0.379  0.372  0.356  0.344  0.000  0.000
 2004 007   122   122      3    142    528     1    31   125  0.560  0.491  0.476  0.381  0.376  0.369  0.354  0.343  0.000  0.000
 2004 008   123   115      3    142    528     1    31   125  0.508  0.495  0.467  0.375  0.371  0.366  0.352  0.340  0.000  0.000
 2004 009   124   109      3    142    528     1    31   125  0.484  0.484  0.458  0.371  0.368  0.364  0.350  0.338  0.000  0.000
 2004 010   125   103      3    142    528     1    31   125  0.468  0.472  0.449  0.367  0.365  0.362  0.348  0.336  0.000  0.000
 2004 011   126    97      3    142    528     1    31   125  0.450  0.457  0.437  0.364  0.362  0.359  0.346  0.334  0.000  0.000
 2004 012   127    92      3    142    528     1    31   125  0.438  0.447  0.430  0.361  0.360  0.358  0.345  0.333  0.000  0.000
 2004 013   128    87      3    142    528     1    31   125  0.422  0.433  0.422  0.358  0.358  0.356  0.343  0.331  0.000  0.000
 2004 014   129   112      3    142    528     2    63   125  0.553  0.551  0.487  0.354  0.354  0.353  0.341  0.328  0.000  0.000
 2004 015   130   107      3    142    528     2    63   125  0.532  0.527  0.484  0.354  0.353  0.351  0.340  0.327  0.000  0.000
 2004 016   131   101      3    142    528     2    63   125  0.508  0.508  0.473  0.353  0.351  0.349  0.338  0.326  0.000  0.000
 2004 017   132    98      3    142    528     2    63   125  0.498  0.497  0.467  0.353  0.350  0.349  0.337  0.325  0.000  0.000
 2004 018   133    95      3    142    528     2    63   125  0.488  0.488  0.462  0.353  0.349  0.348  0.337  0.324  0.000  0.000
 2004 019   134    95      3    142    531     2    63   125  0.535  0.479  0.455  0.353  0.348  0.347  0.336  0.324  0.000  0.000
 2004 020   135    91      3    142    531     2    63   125  0.496  0.479  0.447  0.352  0.348  0.346  0.335  0.323  0.000  0.000
 2004 021   136    85      3    142    531     2    63   125  0.468  0.465  0.434  0.350  0.346  0.345  0.334  0.322  0.000  0.000
 2004 022   137    79      3    142    531     2    63   125  0.443  0.448  0.422  0.348  0.344  0.343  0.333  0.320  0.000  0.000
 2004 023   138   103      3    142    531     3    92   125  0.544  0.549  0.492  0.346  0.343  0.342  0.331  0.319  0.000  0.000
 2004 024   139    97      3    142    531     3    92   125  0.519  0.522  0.482  0.347  0.342  0.341  0.330  0.318  0.000  0.000
 2004 025   140    90      3    142    531     3    92   125  0.495  0.500  0.468  0.346  0.340  0.340  0.329  0.317  0.000  0.000
 2004 026   141    83      3    142    531     3    92   125  0.468  0.479  0.453  0.345  0.339  0.338  0.328  0.316  0.000  0.000
 2004 027   142    77      3    142    532     3    92   125  0.452  0.459  0.436  0.344  0.338  0.337  0.327  0.315  0.000  0.000
 2004 028   143    73      3    142    532     3    92   125  0.436  0.447  0.428  0.344  0.338  0.337  0.327  0.314  0.000  0.000
 2004 029   144    95      3    142    532     4   122   125  0.534  0.544  0.487  0.342  0.336  0.335  0.325  0.313  0.000  0.000
 2004 030   145    88      3    142    532     4   122   125  0.503  0.513  0.473  0.342  0.335  0.334  0.324  0.312  0.000  0.000
 2004 031   146   136      4    142    585     4   122   125  0.551  0.550  0.559  0.470  0.406  0.334  0.324  0.312  0.000  0.000
 2004 032   147   130      4    142    585     4   122   125  0.518  0.539  0.544  0.448  0.421  0.334  0.324  0.311  0.000  0.000
 2004 033   148   130      4    142    590     4   122   125  0.556  0.543  0.538  0.439  0.419  0.334  0.323  0.311  0.000  0.000
 2004 034   149   140      4    142    602     4   122   125  0.557  0.565  0.567  0.454  0.430  0.334  0.323  0.311  0.000  0.000
 2004 035   150   135      4    142    602     4   122   125  0.518  0.552  0.554  0.439  0.422  0.345  0.323  0.311  0.000  0.000
 2004 036   151   128      4    142    602     4   122   125  0.499  0.532  0.543  0.429  0.419  0.345  0.322  0.310  0.000  0.000

[...]
 2010 038   153   217     32    687   1318     0     0   125  0.534  0.566  0.566  0.467  0.458  0.441  0.433  0.426  0.000  0.000
 2010 039   154   200     32    699   1318     0     0   125  0.519  0.551  0.554  0.453  0.445  0.430  0.421  0.409  0.000  0.000
 2010 040   155   188     32    705   1318     0     0   125  0.505  0.534  0.546  0.443  0.436  0.422  0.411  0.399  0.000  0.000
 2010 041   156   180     32    706   1318     0     0   125  0.491  0.524  0.537  0.437  0.430  0.418  0.405  0.393  0.000  0.000

*DSSAT Cropping System Model Ver. 4.0.2.000               Aug 12, 2016; 12:55:20

*RUN  11        : UYMZ                    
 MODEL          : MZCER040 - Maize           
 EXPERIMENT     : UYMZ0197 MZ    late to create DSS                             
 TREATMENT  1   : UYMZ                    

@YEAR DOY   DAS  SWXD   ROFC   DRNC   PREC  IR#C  IRRC  DTWT   SW1D   SW2D   SW3D   SW4D   SW5D   SW6D   SW7D   SW8D   SW9D   SW10
 2010 250     0   182      0      0      0     0     0   125  0.463  0.542  0.542  0.438  0.431  0.419  0.408  0.395  0.000  0.000
 2010 251     1   179      0      0      0     0     0   125  0.451  0.524  0.538  0.438  0.431  0.419  0.408  0.395  0.000  0.000
 2010 252     2   178      0      0      0     0     0   125  0.456  0.514  0.534  0.437  0.431  0.419  0.408  0.395  0.000  0.000
 2010 253     3   191      0      0     18     0     0   125  0.494  0.565  0.561  0.446  0.434  0.420  0.408  0.395  0.000  0.000
 2010 254     4   206      0      0     35     0     0   125  0.533  0.559  0.568  0.470  0.460  0.430  0.415  0.398  0.000  0.000
 2010 255     5   219      0      3     53     0     0   125  0.544  0.564  0.568  0.470  0.460  0.447  0.439  0.417  0.000  0.000
 2010 256     6   222      2     52    108     0     0   125  0.542  0.568  0.568  0.470  0.460  0.447  0.439  0.432  0.000  0.000
 2010 257     7   205      2     66    108     0     0   125  0.478  0.557  0.557  0.457  0.449  0.436  0.427  0.417  0.000  0.000
 2010 258     8   193      2     75    108     0     0   125  0.459  0.531  0.550  0.449  0.442  0.429  0.419  0.408  0.000  0.000
 2010 259     9   186      2     80    108     0     0   125  0.453  0.519  0.542  0.445  0.437  0.425  0.415  0.403  0.000  0.000
 2010 260    10   182      2     82    108     0     0   125  0.455  0.513  0.537  0.442  0.435  0.423  0.412  0.400  0.000  0.000
 2010 261    11   180      2     84    108     0     0   125  0.458  0.508  0.533  0.439  0.433  0.421  0.410  0.398  0.000  0.000
 2010 262    12   179      2     84    108     0     0   125  0.460  0.505  0.529  0.439  0.433  0.421  0.410  0.398  0.000  0.000
 2010 263    13   178      2     84    108     0     0   125  0.461  0.502  0.526  0.437  0.433  0.421  0.410  0.398  0.000  0.000
 2010 264    14   177      2     84    108     0     0   125  0.462  0.500  0.524  0.436  0.433  0.421  0.410  0.398  0.000  0.000
 2010 265    15   176      2     84    108     0     0   125  0.463  0.498  0.521  0.435  0.433  0.421  0.410  0.398  0.000  0.000
 2010 266    16   176      2     84    108     0     0   125  0.463  0.497  0.519  0.434  0.433  0.421  0.410  0.398  0.000  0.000
 2010 267    17   175      2     84    108     0     0   125  0.463  0.495  0.518  0.433  0.433  0.421  0.410  0.398  0.000  0.000
 2010 268    18   175      2     84    108     0     0   125  0.463  0.494  0.516  0.432  0.432  0.421  0.410  0.398  0.000  0.000
 2010 269    19   174      2     84    108     0     0   125  0.463  0.493  0.514  0.431  0.432  0.421  0.410  0.398  0.000  0.000
 2010 270    20   173      2     84    108     0     0   125  0.463  0.491  0.513  0.430  0.432  0.421  0.410  0.398  0.000  0.000
 2010 271    21   173      2     84    108     0     0   125  0.463  0.490  0.511  0.430  0.431  0.421  0.410  0.398  0.000  0.000
 2010 272    22   172      2     84    108     0     0   125  0.462  0.489  0.510  0.429  0.431  0.421  0.410  0.398  0.000  0.000
 2010 273    23   172      2     84    108     0     0   125  0.462  0.488  0.509  0.428  0.430  0.421  0.410  0.398  0.000  0.000
 2010 274    24   171      2     84    108     0     0   125  0.461  0.487  0.508  0.427  0.430  0.421  0.410  0.398  0.000  0.000
 2010 275    25   171      2     84    108     0     0   125  0.460  0.486  0.507  0.427  0.430  0.421  0.410  0.398  0.000  0.000
 2010 276    26   170      2     84    108     0     0   125  0.459  0.484  0.505  0.426  0.429  0.421  0.410  0.398  0.000  0.000
 2010 277    27   170      2     84    108     0     0   125  0.458  0.483  0.504  0.425  0.429  0.421  0.410  0.398  0.000  0.000
 2010 278    28   169      2     84    108     0     0   125  0.457  0.482  0.503  0.425  0.428  0.421  0.410  0.398  0.000  0.000
 2010 279    29   170      2     84    111     0     0   125  0.475  0.481  0.502  0.424  0.428  0.421  0.410  0.398  0.000  0.000
 2010 280    30   170      2     84    113     0     0   125  0.484  0.482  0.501  0.424  0.428  0.421  0.410  0.398  0.000  0.000
 2010 281    31   170      2     84    113     0     0   125  0.474  0.484  0.500  0.423  0.427  0.421  0.410  0.398  0.000  0.000
 2010 282    32   169      2     84    113     0     0   125  0.468  0.483  0.499  0.422  0.427  0.421  0.410  0.398  0.000  0.000
 2010 283    33   168      2     84    113     0     0   125  0.464  0.482  0.498  0.422  0.426  0.421  0.410  0.398  0.000  0.000
 2010 284    34   167      2     84    113     0     0   125  0.460  0.479  0.497  0.421  0.426  0.421  0.410  0.398  0.000  0.000
 2010 285    35   167      2     84    113     0     0   125  0.456  0.477  0.495  0.421  0.426  0.421  0.410  0.398  0.000  0.000
 2010 286    36   167      2     84    117     0     0   125  0.475  0.474  0.493  0.420  0.425  0.421  0.410  0.398  0.000  0.000
 2010 287    37   166      2     84    117     0     0   125  0.466  0.475  0.492  0.420  0.425  0.421  0.410  0.398  0.000  0.000
 2010 288    38   165      2     84    117     0     0   125  0.459  0.474  0.491  0.419  0.425  0.420  0.410  0.398  0.000  0.000
 2010 289    39   165      2     84    117     0     0   125  0.455  0.474  0.490  0.418  0.424  0.420  0.410  0.398  0.000  0.000
 2010 290    40   164      2     84    117     0     0   125  0.450  0.471  0.488  0.418  0.424  0.420  0.410  0.398  0.000  0.000
 2010 291    41   163      2     84    117     0     0   125  0.446  0.468  0.486  0.417  0.424  0.420  0.410  0.398  0.000  0.000
 2010 292    42   162      2     84    117     0     0   125  0.441  0.465  0.484  0.417  0.423  0.420  0.410  0.398  0.000  0.000
 2010 293    43   160      2     84    117     0     0   125  0.436  0.461  0.481  0.416  0.423  0.420  0.410  0.398  0.000  0.000
 2010 294    44   159      2     84    117     0     0   125  0.430  0.457  0.477  0.415  0.423  0.420  0.410  0.398  0.000  0.000
 2010 295    45   158      2     84    117     0     0   125  0.426  0.453  0.474  0.414  0.422  0.420  0.410  0.398  0.000  0.000
 2010 296    46   156      2     84    117     0     0   125  0.421  0.448  0.470  0.414  0.422  0.420  0.410  0.398  0.000  0.000
 2010 297    47   155      2     84    117     0     0   125  0.417  0.444  0.467  0.413  0.422  0.420  0.410  0.398  0.000  0.000
 2010 298    48   153      2     84    117     0     0   125  0.413  0.439  0.462  0.411  0.421  0.420  0.410  0.398  0.000  0.000
 2010 299    49   151      2     84    117     0     0   125  0.408  0.433  0.457  0.410  0.421  0.419  0.410  0.398  0.000  0.000
 2010 300    50   149      2     84    117     0     0   125  0.404  0.429  0.451  0.408  0.420  0.419  0.410  0.398  0.000  0.000
 2010 301    51   173      2     84    117     1    30   125  0.491  0.562  0.492  0.406  0.420  0.419  0.410  0.398  0.000  0.000
 2010 302    52   172      2     84    118     1    30   125  0.522  0.525  0.501  0.406  0.420  0.419  0.410  0.398  0.000  0.000
 2010 303    53   167      2     84    119     1    30   125  0.471  0.512  0.496  0.406  0.419  0.419  0.410  0.398  0.000  0.000
 2010 304    54   163      2     84    120     1    30   125  0.455  0.494  0.489  0.404  0.419  0.419  0.410  0.398  0.000  0.000
 2010 305    55   158      2     84    120     1    30   125  0.417  0.480  0.481  0.402  0.418  0.419  0.410  0.398  0.000  0.000
 2010 306    56   154      2     84    120     1    30   125  0.401  0.464  0.472  0.398  0.418  0.418  0.410  0.398  0.000  0.000
 2010 307    57   149      2     84    120     1    30   125  0.389  0.451  0.462  0.394  0.416  0.418  0.410  0.398  0.000  0.000
 2010 308    58   147      2     84    123     1    30   125  0.407  0.440  0.454  0.391  0.415  0.418  0.410  0.398  0.000  0.000
 2010 309    59   143      2     84    123     1    30   125  0.389  0.429  0.444  0.386  0.414  0.418  0.410  0.398  0.000  0.000
 2010 310    60   168      2     84    123     2    60   125  0.527  0.559  0.486  0.382  0.412  0.418  0.410  0.398  0.000  0.000
 2010 311    61   162      2     84    123     2    60   125  0.484  0.526  0.485  0.379  0.409  0.418  0.410  0.398  0.000  0.000
 2010 312    62   176      2     84    144     2    60   125  0.528  0.543  0.549  0.387  0.406  0.417  0.410  0.398  0.000  0.000
 2010 313    63   175      2     84    145     2    60   125  0.550  0.537  0.539  0.393  0.405  0.417  0.410  0.398  0.000  0.000
 2010 314    64   170      2     84    145     2    60   125  0.502  0.532  0.527  0.389  0.402  0.417  0.410  0.398  0.000  0.000
 2010 315    65   165      2     84    145     2    60   125  0.484  0.515  0.516  0.386  0.399  0.417  0.410  0.398  0.000  0.000
 2010 316    66   159      2     84    145     2    60   125  0.462  0.502  0.506  0.383  0.396  0.416  0.410  0.398  0.000  0.000
 2010 317    67   154      2     84    145     2    60   125  0.449  0.487  0.495  0.379  0.391  0.416  0.410  0.398  0.000  0.000
 2010 318    68   150      2     84    145     2    60   125  0.430  0.476  0.486  0.377  0.388  0.415  0.410  0.398  0.000  0.000
 2010 319    69   146      2     84    145     2    60   125  0.414  0.465  0.477  0.374  0.385  0.415  0.410  0.398  0.000  0.000
 2010 320    70   140      2     84    145     2    60   125  0.396  0.452  0.466  0.371  0.381  0.414  0.410  0.398  0.000  0.000
 2010 321    71   135      2     84    145     2    60   125  0.380  0.439  0.455  0.368  0.377  0.413  0.410  0.398  0.000  0.000
 2010 322    72   130      2     84    145     2    60   125  0.366  0.425  0.442  0.365  0.373  0.412  0.410  0.398  0.000  0.000
 2010 323    73   160      2     84    145     3    93   125  0.563  0.563  0.489  0.363  0.372  0.411  0.410  0.398  0.000  0.000
 2010 324    74   155      2     84    145     3    93   125  0.528  0.536  0.493  0.363  0.369  0.410  0.409  0.398  0.000  0.000
 2010 325    75   150      2     84    145     3    93   125  0.505  0.515  0.484  0.362  0.367  0.409  0.409  0.398  0.000  0.000
 2010 326    76   145      2     84    145     3    93   125  0.486  0.499  0.475  0.361  0.365  0.407  0.409  0.398  0.000  0.000
 2010 327    77   141      2     84    145     3    93   125  0.473  0.486  0.468  0.360  0.364  0.406  0.409  0.398  0.000  0.000
 2010 328    78   138      2     84    145     3    93   125  0.462  0.475  0.461  0.360  0.363  0.405  0.409  0.398  0.000  0.000
 2010 329    79   132      2     84    145     3    93   125  0.437  0.459  0.448  0.357  0.360  0.403  0.408  0.398  0.000  0.000
 2010 330    80   127      2     84    147     3    93   125  0.452  0.441  0.433  0.355  0.358  0.400  0.408  0.398  0.000  0.000
 2010 331    81   123      2     84    149     3    93   125  0.465  0.428  0.422  0.353  0.356  0.397  0.408  0.398  0.000  0.000
 2010 332    82   153      2     84    151     4   123   125  0.546  0.564  0.507  0.351  0.355  0.395  0.408  0.398  0.000  0.000
 2010 333    83   149      2     84    151     4   123   125  0.530  0.540  0.507  0.353  0.354  0.394  0.407  0.398  0.000  0.000
 2010 334    84   143      2     84    151     4   123   125  0.515  0.515  0.494  0.353  0.353  0.392  0.407  0.398  0.000  0.000
 2010 335    85   136      2     84    151     4   123   125  0.489  0.496  0.478  0.352  0.351  0.389  0.407  0.398  0.000  0.000
 2010 336    86   129      2     84    151     4   123   125  0.468  0.477  0.462  0.351  0.350  0.386  0.406  0.398  0.000  0.000
 2010 337    87   124      2     84    151     4   123   125  0.451  0.461  0.449  0.350  0.349  0.384  0.406  0.398  0.000  0.000
 2010 338    88   118      2     84    151     4   123   125  0.432  0.445  0.434  0.349  0.347  0.382  0.406  0.398  0.000  0.000
 2010 339    89   111      2     84    151     4   123   125  0.413  0.424  0.418  0.347  0.346  0.379  0.405  0.398  0.000  0.000
 2010 340    90   138      2     84    151     5   157   125  0.554  0.552  0.482  0.343  0.343  0.374  0.404  0.397  0.000  0.000
 2010 341    91   131      2     84    151     5   157   125  0.527  0.523  0.475  0.344  0.342  0.372  0.402  0.397  0.000  0.000
 2010 342    92   127      2     84    151     5   157   125  0.511  0.509  0.469  0.344  0.342  0.370  0.401  0.397  0.000  0.000
 2010 343    93   120      2     84    151     5   157   125  0.486  0.488  0.454  0.343  0.341  0.367  0.397  0.397  0.000  0.000
 2010 344    94   116      2     84    153     5   157   125  0.502  0.473  0.443  0.343  0.340  0.365  0.393  0.397  0.000  0.000
 2010 345    95   114      2     84    154     5   157   125  0.513  0.468  0.435  0.343  0.340  0.364  0.390  0.396  0.000  0.000
 2010 346    96   114      2     84    156     5   157   125  0.524  0.469  0.433  0.343  0.340  0.363  0.389  0.396  0.000  0.000
 2010 347    97   108      2     84    156     5   157   125  0.484  0.462  0.424  0.342  0.339  0.361  0.383  0.396  0.000  0.000
 2010 348    98   101      2     84    156     5   157   125  0.456  0.448  0.417  0.341  0.338  0.358  0.375  0.395  0.000  0.000
 2010 349    99   124      2     84    156     6   187   125  0.542  0.549  0.494  0.339  0.337  0.356  0.366  0.395  0.000  0.000
 2010 350   100   117      2     84    156     6   187   125  0.520  0.522  0.483  0.340  0.336  0.354  0.361  0.394  0.000  0.000
 2010 351   101   118      2     84    164     6   187   125  0.546  0.541  0.478  0.340  0.335  0.352  0.356  0.393  0.000  0.000
 2010 352   102   121      2     84    172     6   187   125  0.550  0.547  0.499  0.341  0.335  0.351  0.354  0.392  0.000  0.000
 2010 353   103   127      2     84    180     6   187   125  0.561  0.555  0.531  0.343  0.335  0.350  0.354  0.392  0.000  0.000
 2010 354   104   123      2     84    180     6   187   125  0.544  0.540  0.523  0.346  0.334  0.349  0.352  0.391  0.000  0.000
 2010 355   105   116      2     84    180     6   187   125  0.521  0.521  0.505  0.347  0.334  0.347  0.349  0.390  0.000  0.000
 2010 356   106   109      2     84    180     6   187   125  0.496  0.500  0.487  0.347  0.333  0.345  0.347  0.388  0.000  0.000
 2010 357   107   102      2     84    180     6   187   125  0.473  0.480  0.468  0.347  0.332  0.344  0.345  0.387  0.000  0.000
 2010 358   108   175      8     84    261     6   187   125  0.578  0.562  0.562  0.470  0.460  0.371  0.345  0.385  0.000  0.000
 2010 359   109   168      8     84    261     6   187   125  0.547  0.544  0.545  0.448  0.439  0.390  0.344  0.384  0.000  0.000
 2010 360   110   160      8     84    261     6   187   125  0.529  0.536  0.537  0.436  0.427  0.388  0.344  0.382  0.000  0.000
 2010 361   111   153      8     84    261     6   187   125  0.519  0.526  0.528  0.427  0.418  0.383  0.344  0.381  0.000  0.000
 2010 362   112   146      8     84    261     6   187   125  0.508  0.516  0.519  0.419  0.409  0.379  0.344  0.379  0.000  0.000
 2010 363   113   140      8     84    261     6   187   125  0.499  0.507  0.510  0.411  0.402  0.376  0.343  0.377  0.000  0.000
 2010 364   114   133      8     84    261     6   187   125  0.487  0.497  0.501  0.402  0.393  0.373  0.343  0.375  0.000  0.000
 2010 365   115   126      8     84    261     6   187   125  0.474  0.486  0.491  0.393  0.385  0.370  0.342  0.373  0.000  0.000
 2011 001   116   121      8     84    261     6   187   125  0.466  0.478  0.483  0.387  0.380  0.368  0.342  0.372  0.000  0.000
 2011 002   117   117      8     84    261     6   187   125  0.460  0.471  0.476  0.383  0.378  0.367  0.342  0.370  0.000  0.000
 2011 003   118   117      8     84    263     6   187   125  0.501  0.467  0.472  0.381  0.376  0.366  0.342  0.370  0.000  0.000
 2011 004   119   114      8     84    263     6   187   125  0.480  0.466  0.466  0.377  0.374  0.364  0.342  0.368  0.000  0.000
 2011 005   120   110      8     84    263     6   187   125  0.466  0.462  0.459  0.375  0.371  0.363  0.342  0.367  0.000  0.000
 2011 006   121   103      8     84    263     6   187   125  0.444  0.449  0.446  0.369  0.367  0.360  0.341  0.365  0.000  0.000
 2011 007   122    95      8     84    263     6   187   125  0.421  0.433  0.431  0.364  0.363  0.358  0.339  0.363  0.000  0.000
 2011 008   123   120      8     84    263     7   218   125  0.556  0.555  0.488  0.360  0.360  0.356  0.338  0.360  0.000  0.000
 2011 009   124   114      8     84    263     7   218   125  0.530  0.528  0.484  0.359  0.357  0.354  0.337  0.357  0.000  0.000
 2011 010   125   130      8     84    283     7   218   125  0.556  0.556  0.558  0.372  0.356  0.353  0.337  0.356  0.000  0.000
 2011 011   126   129      8     84    284     7   218   125  0.557  0.549  0.544  0.382  0.356  0.352  0.337  0.355  0.000  0.000
 2011 012   127   158      8     84    317     7   218   125  0.555  0.559  0.556  0.468  0.441  0.355  0.336  0.353  0.000  0.000
 2011 013   128   151      8     84    317     7   218   125  0.536  0.547  0.544  0.445  0.426  0.368  0.336  0.351  0.000  0.000
 2011 014   129   145      8     84    317     7   218   125  0.524  0.535  0.536  0.433  0.420  0.366  0.335  0.350  0.000  0.000
 2011 015   130   141      8     84    321     7   218   125  0.557  0.535  0.528  0.422  0.410  0.364  0.335  0.348  0.000  0.000
 2011 016   131   136      8     84    321     7   218   125  0.531  0.532  0.523  0.416  0.403  0.363  0.335  0.347  0.000  0.000
 2011 017   132   131      8     84    321     7   218   125  0.519  0.524  0.517  0.410  0.397  0.361  0.334  0.346  0.000  0.000
 2011 018   133   125      8     84    321     7   218   125  0.503  0.512  0.508  0.402  0.388  0.360  0.334  0.345  0.000  0.000
 2011 019   134   119      8     84    322     7   218   125  0.506  0.500  0.498  0.393  0.381  0.358  0.333  0.343  0.000  0.000
 2011 020   135   112      8     84    322     7   218   125  0.479  0.491  0.487  0.383  0.376  0.357  0.333  0.342  0.000  0.000
 2011 021   136   106      8     84    322     7   218   125  0.459  0.478  0.476  0.377  0.371  0.355  0.332  0.341  0.000  0.000
 2011 022   137    99      8     84    322     7   218   125  0.438  0.464  0.464  0.372  0.368  0.353  0.332  0.340  0.000  0.000
 2011 023   138    92      8     84    322     7   218   125  0.413  0.448  0.450  0.367  0.364  0.352  0.331  0.338  0.000  0.000
 2011 024   139    86      8     84    322     7   218   125  0.397  0.433  0.437  0.363  0.361  0.350  0.330  0.337  0.000  0.000
 2011 025   140   133      8     84    344     8   249   125  0.551  0.556  0.555  0.435  0.358  0.348  0.330  0.336  0.000  0.000
 2011 026   141   131      8     84    344     8   249   125  0.534  0.546  0.546  0.433  0.366  0.348  0.329  0.335  0.000  0.000
 2011 027   142   126      8     84    344     8   249   125  0.513  0.534  0.536  0.427  0.366  0.347  0.329  0.335  0.000  0.000
 2011 028   143   119      8     84    344     8   249   125  0.492  0.519  0.525  0.417  0.365  0.346  0.329  0.334  0.000  0.000
 2011 029   144   113      8     84    344     8   249   125  0.470  0.505  0.513  0.407  0.364  0.346  0.328  0.333  0.000  0.000
