*SOIL N BALANCE - CERES SOIL N&C ROUTINES

*DSSAT Cropping System Model Ver. 4.0.2.000               Aug 12, 2016; 12:55:20

*RUN   1        : UYMZ                    
 MODEL          : MZCER040 - Maize           
 EXPERIMENT     : UYMZ0197 MZ    late to create DSS                             
 TREATMENT  1   : UYMZ                    



                                         INITIAL Year/Doy      FINAL Year/Doy
                                                 2000/250            2001/036
SOIL N BALANCE                                  -----------kg N/ha-----------

   Soil Humus N                                  16646.04            16549.23
   Soil Litter N                                     0.00               15.73
   N in Surface Residue                              0.00                0.00
   Soil NO3                                         74.81                6.93
   Soil NH4                                         23.95                7.97
   Soil Urea                                         0.00                0.00

   Added to / Removed from Soil:
   N in Harvest Residues from Previous Crop          0.00
   N from Organic Applications                       0.00
   N from senesced plant matter                     24.26
   Fertilizer N                                    101.00
   Leached NO3                                                          13.66
   N Denitrified                                                         5.17
   N Uptake From Soil                                                  269.47
   Ammonia volatilization                                                1.91

   Total N balance                               16870.06            16870.06

================================================================================

*DSSAT Cropping System Model Ver. 4.0.2.000               Aug 12, 2016; 12:55:20

*RUN   2        : UYMZ                    
 MODEL          : MZCER040 - Maize           
 EXPERIMENT     : UYMZ0197 MZ    late to create DSS                             
 TREATMENT  1   : UYMZ                    



                                         INITIAL Year/Doy      FINAL Year/Doy
                                                 2001/250            2002/033
SOIL N BALANCE                                  -----------kg N/ha-----------

   Soil Humus N                                  16646.04            16553.60
   Soil Litter N                                     0.00               16.15
   N in Surface Residue                              0.00                0.00
   Soil NO3                                         74.81                6.25
   Soil NH4                                         23.95                8.19
   Soil Urea                                         0.00                0.00

   Added to / Removed from Soil:
   N in Harvest Residues from Previous Crop          0.00
   N from Organic Applications                       0.00
   N from senesced plant matter                     21.81
   Fertilizer N                                    101.00
   Leached NO3                                                          30.68
   N Denitrified                                                         4.22
   N Uptake From Soil                                                  246.78
   Ammonia volatilization                                                1.75

   Total N balance                               16867.61            16867.61

================================================================================

*DSSAT Cropping System Model Ver. 4.0.2.000               Aug 12, 2016; 12:55:20

*RUN   3        : UYMZ                    
 MODEL          : MZCER040 - Maize           
 EXPERIMENT     : UYMZ0197 MZ    late to create DSS                             
 TREATMENT  1   : UYMZ                    



                                         INITIAL Year/Doy      FINAL Year/Doy
                                                 2002/250            2003/027
SOIL N BALANCE                                  -----------kg N/ha-----------

   Soil Humus N                                  16646.04            16552.96
   Soil Litter N                                     0.00               11.26
   N in Surface Residue                              0.00                0.00
   Soil NO3                                         74.81                6.74
   Soil NH4                                         23.95                7.43
   Soil Urea                                         0.00                0.00

   Added to / Removed from Soil:
   N in Harvest Residues from Previous Crop          0.00
   N from Organic Applications                       0.00
   N from senesced plant matter                     16.40
   Fertilizer N                                    101.00
   Leached NO3                                                          56.76
   N Denitrified                                                         5.02
   N Uptake From Soil                                                  220.40
   Ammonia volatilization                                                1.63

   Total N balance                               16862.21            16862.21

================================================================================

*DSSAT Cropping System Model Ver. 4.0.2.000               Aug 12, 2016; 12:55:20

*RUN   4        : UYMZ                    
 MODEL          : MZCER040 - Maize           
 EXPERIMENT     : UYMZ0197 MZ    late to create DSS                             
 TREATMENT  1   : UYMZ                    



                                         INITIAL Year/Doy      FINAL Year/Doy
                                                 2003/250            2004/036
SOIL N BALANCE                                  -----------kg N/ha-----------

   Soil Humus N                                  16646.04            16547.75
   Soil Litter N                                     0.00               17.77
   N in Surface Residue                              0.00                0.00
   Soil NO3                                         74.81                5.39
   Soil NH4                                         23.95                8.43
   Soil Urea                                         0.00                0.00

   Added to / Removed from Soil:
   N in Harvest Residues from Previous Crop          0.00
   N from Organic Applications                       0.00
   N from senesced plant matter                     26.18
   Fertilizer N                                    101.00
   Leached NO3                                                           4.73
   N Denitrified                                                         0.94
   N Uptake From Soil                                                  284.94
   Ammonia volatilization                                                2.04

   Total N balance                               16871.99            16871.99

================================================================================

*DSSAT Cropping System Model Ver. 4.0.2.000               Aug 12, 2016; 12:55:20

*RUN   5        : UYMZ                    
 MODEL          : MZCER040 - Maize           
 EXPERIMENT     : UYMZ0197 MZ    late to create DSS                             
 TREATMENT  1   : UYMZ                    



                                         INITIAL Year/Doy      FINAL Year/Doy
                                                 2004/250            2005/034
SOIL N BALANCE                                  -----------kg N/ha-----------

   Soil Humus N                                  16646.04            16551.57
   Soil Litter N                                     0.00               14.61
   N in Surface Residue                              0.00                0.00
   Soil NO3                                         74.81                7.22
   Soil NH4                                         23.95                7.01
   Soil Urea                                         0.00                0.00

   Added to / Removed from Soil:
   N in Harvest Residues from Previous Crop          0.00
   N from Organic Applications                       0.00
   N from senesced plant matter                     20.35
   Fertilizer N                                    101.00
   Leached NO3                                                           4.07
   N Denitrified                                                         1.85
   N Uptake From Soil                                                  277.92
   Ammonia volatilization                                                1.91

   Total N balance                               16866.16            16866.16

================================================================================

*DSSAT Cropping System Model Ver. 4.0.2.000               Aug 12, 2016; 12:55:20

*RUN   6        : UYMZ                    
 MODEL          : MZCER040 - Maize           
 EXPERIMENT     : UYMZ0197 MZ    late to create DSS                             
 TREATMENT  1   : UYMZ                    



                                         INITIAL Year/Doy      FINAL Year/Doy
                                                 2005/250            2006/032
SOIL N BALANCE                                  -----------kg N/ha-----------

   Soil Humus N                                  16646.04            16555.38
   Soil Litter N                                     0.00               17.54
   N in Surface Residue                              0.00                0.00
   Soil NO3                                         74.81                6.35
   Soil NH4                                         23.95                7.10
   Soil Urea                                         0.00                0.00

   Added to / Removed from Soil:
   N in Harvest Residues from Previous Crop          0.00
   N from Organic Applications                       0.00
   N from senesced plant matter                     23.74
   Fertilizer N                                    101.00
   Leached NO3                                                          11.48
   N Denitrified                                                         3.28
   N Uptake From Soil                                                  266.71
   Ammonia volatilization                                                1.70

   Total N balance                               16869.54            16869.55

================================================================================

*DSSAT Cropping System Model Ver. 4.0.2.000               Aug 12, 2016; 12:55:20

*RUN   7        : UYMZ                    
 MODEL          : MZCER040 - Maize           
 EXPERIMENT     : UYMZ0197 MZ    late to create DSS                             
 TREATMENT  1   : UYMZ                    



                                         INITIAL Year/Doy      FINAL Year/Doy
                                                 2006/250            2007/025
SOIL N BALANCE                                  -----------kg N/ha-----------

   Soil Humus N                                  16646.04            16551.70
   Soil Litter N                                     0.00               11.86
   N in Surface Residue                              0.00                0.00
   Soil NO3                                         74.81                5.95
   Soil NH4                                         23.95                7.72
   Soil Urea                                         0.00                0.00

   Added to / Removed from Soil:
   N in Harvest Residues from Previous Crop          0.00
   N from Organic Applications                       0.00
   N from senesced plant matter                     18.78
   Fertilizer N                                    101.00
   Leached NO3                                                           2.63
   N Denitrified                                                         0.02
   N Uptake From Soil                                                  282.88
   Ammonia volatilization                                                1.84

   Total N balance                               16864.58            16864.58

================================================================================

*DSSAT Cropping System Model Ver. 4.0.2.000               Aug 12, 2016; 12:55:20

*RUN   8        : UYMZ                    
 MODEL          : MZCER040 - Maize           
 EXPERIMENT     : UYMZ0197 MZ    late to create DSS                             
 TREATMENT  1   : UYMZ                    



                                         INITIAL Year/Doy      FINAL Year/Doy
                                                 2007/250            2008/030
SOIL N BALANCE                                  -----------kg N/ha-----------

   Soil Humus N                                  16646.04            16555.72
   Soil Litter N                                     0.00               17.31
   N in Surface Residue                              0.00                0.00
   Soil NO3                                         74.81                5.99
   Soil NH4                                         23.95                6.03
   Soil Urea                                         0.00                0.00

   Added to / Removed from Soil:
   N in Harvest Residues from Previous Crop          0.00
   N from Organic Applications                       0.00
   N from senesced plant matter                     21.57
   Fertilizer N                                    101.00
   Leached NO3                                                          14.85
   N Denitrified                                                         2.93
   N Uptake From Soil                                                  262.85
   Ammonia volatilization                                                1.70

   Total N balance                               16867.37            16867.38

================================================================================

*DSSAT Cropping System Model Ver. 4.0.2.000               Aug 12, 2016; 12:55:20

*RUN   9        : UYMZ                    
 MODEL          : MZCER040 - Maize           
 EXPERIMENT     : UYMZ0197 MZ    late to create DSS                             
 TREATMENT  1   : UYMZ                    



                                         INITIAL Year/Doy      FINAL Year/Doy
                                                 2008/250            2009/025
SOIL N BALANCE                                  -----------kg N/ha-----------

   Soil Humus N                                  16646.04            16558.52
   Soil Litter N                                     0.00               14.92
   N in Surface Residue                              0.00                0.00
   Soil NO3                                         74.81                5.90
   Soil NH4                                         23.95                6.18
   Soil Urea                                         0.00                0.00

   Added to / Removed from Soil:
   N in Harvest Residues from Previous Crop          0.00
   N from Organic Applications                       0.00
   N from senesced plant matter                     19.93
   Fertilizer N                                    101.00
   Leached NO3                                                           1.75
   N Denitrified                                                         0.59
   N Uptake From Soil                                                  276.18
   Ammonia volatilization                                                1.70

   Total N balance                               16865.73            16865.73

================================================================================

*DSSAT Cropping System Model Ver. 4.0.2.000               Aug 12, 2016; 12:55:20

*RUN  10        : UYMZ                    
 MODEL          : MZCER040 - Maize           
 EXPERIMENT     : UYMZ0197 MZ    late to create DSS                             
 TREATMENT  1   : UYMZ                    



                                         INITIAL Year/Doy      FINAL Year/Doy
                                                 2009/250            2010/041
SOIL N BALANCE                                  -----------kg N/ha-----------

   Soil Humus N                                  16646.04            16546.33
   Soil Litter N                                     0.00               11.85
   N in Surface Residue                              0.00                0.00
   Soil NO3                                         74.81                4.51
   Soil NH4                                         23.95               10.38
   Soil Urea                                         0.00                0.00

   Added to / Removed from Soil:
   N in Harvest Residues from Previous Crop          0.00
   N from Organic Applications                       0.00
   N from senesced plant matter                     18.24
   Fertilizer N                                    101.00
   Leached NO3                                                          61.49
   N Denitrified                                                         6.24
   N Uptake From Soil                                                  221.26
   Ammonia volatilization                                                1.99

   Total N balance                               16864.04            16864.05

================================================================================

*DSSAT Cropping System Model Ver. 4.0.2.000               Aug 12, 2016; 12:55:20

*RUN  11        : UYMZ                    
 MODEL          : MZCER040 - Maize           
 EXPERIMENT     : UYMZ0197 MZ    late to create DSS                             
 TREATMENT  1   : UYMZ                    



                                         INITIAL Year/Doy      FINAL Year/Doy
                                                 2010/250            2011/029
SOIL N BALANCE                                  -----------kg N/ha-----------

   Soil Humus N                                  16646.04            16551.37
   Soil Litter N                                     0.00               12.12
   N in Surface Residue                              0.00                0.00
   Soil NO3                                         74.81                7.12
   Soil NH4                                         23.95                7.66
   Soil Urea                                         0.00                0.00

   Added to / Removed from Soil:
   N in Harvest Residues from Previous Crop          0.00
   N from Organic Applications                       0.00
   N from senesced plant matter                     18.46
   Fertilizer N                                    101.00
   Leached NO3                                                           1.32
   N Denitrified                                                         0.72
   N Uptake From Soil                                                  281.95
   Ammonia volatilization                                                2.01

   Total N balance                               16864.26            16864.26
