*SOIL NITROGEN DAILY OUTPUT FILE

*DSSAT Cropping System Model Ver. 4.0.2.000               Aug 12, 2016; 12:55:20

*RUN   1        : UYMZ                    
 MODEL          : MZCER040 - Maize           
 EXPERIMENT     : UYMZ0197 MZ    late to create DSS                             
 TREATMENT  1   : UYMZ                    

@YEAR DOY   DAS  NAPC  NI#M    NLCC   NIAD    NOAD   NITD   NHTD  NI1D  NI2D  NI3D  NI4D  NI5D  NI6D  NI7D  NI8D  NI9D  NI10  NH1D  NH2D  NH3D  NH4D  NH5D  NH6D  NH7D  NH8D  NH9D  NH10    NMNC    NITC    NDNC    NIMC    AMLC
 2000 250     0     0     0     0.0   99.3   16645   76.6   22.7  16.1  15.3  15.1   8.6   4.6   0.0   0.1   0.1   0.0   0.0   0.4   1.3   1.5   1.4   1.4  1.50  1.47  1.45  0.00  0.00    0.56    1.79    0.00    0.00    0.00
 2000 251     1     0     0     0.0   99.9   16645   77.9   22.0  16.9  15.4  15.2   8.7   4.7   0.0   0.1   0.1   0.0   0.0   0.2   1.2   1.4   1.4   1.4  1.51  1.43  1.41  0.00  0.00    1.12    3.08    0.00    0.00    0.00
 2000 252     2     0     0     0.0  100.5   16644   79.1   21.4  17.4  15.4  15.3   8.8   4.7   0.1   0.1   0.2   0.0   0.0   0.1   1.0   1.4   1.3   1.4  1.51  1.40  1.37  0.00  0.00    1.71    4.26    0.00    0.00    0.00
 2000 253     3     0     0     0.0  101.1   16644   80.2   20.9  14.6  16.9  15.6   8.9   4.8   0.1   0.2   0.2   0.0   0.0   0.1   0.9   1.4   1.3   1.3  1.51  1.37  1.32  0.00  0.00    2.34    5.43    0.00    0.00    0.00
 2000 254     4     1     1     0.1  102.6   16643   81.5   21.1   6.5  12.0  15.0  10.1   6.8   1.5   0.3   0.3   0.0   0.0   1.0   1.0   1.4   1.2   1.3  1.51  1.33  1.28  0.00  0.00    2.97    6.31    0.00    0.00    0.05
 2000 255     5     1     1     0.2  103.0   16642   82.1   20.9   7.5  11.9  14.7   9.9   6.8   1.6   0.4   0.3   0.0   0.0   0.0   1.1   1.5   1.3   1.3  1.53  1.34  1.28  0.00  0.00    3.63    7.02    0.00    0.00    0.15
 2000 256     6     1     1     0.3  103.6   16642   82.3   21.3   7.7  11.8  14.6   9.7   6.8   1.7   0.5   0.3   0.0   0.0   0.1   1.1   1.5   1.3   1.3  1.55  1.34  1.27  0.00  0.00    4.29    7.26    0.00    0.00    0.15
 2000 257     7     1     1     0.3  104.2   16641   82.8   21.4   4.8  10.7  14.5  10.3   7.5   2.0   0.6   0.4   0.0   0.0   0.1   1.0   1.6   1.3   1.3  1.57  1.34  1.26  0.00  0.00    4.90    7.80    0.00    0.00    0.18
 2000 258     8     1     1     0.4  104.6   16641   82.9   21.7   3.4   9.5  14.0  10.3   7.8   2.5   0.8   0.4   0.0   0.0   0.1   1.1   1.7   1.3   1.3  1.58  1.34  1.26  0.00  0.00    5.42    7.97    0.00    0.00    0.19
 2000 259     9     1     1     0.6  104.5   16640   82.5   22.0   3.4   9.4  13.6  10.0   7.7   2.6   0.9   0.5   0.0   0.0   0.1   1.1   1.8   1.3   1.3  1.60  1.34  1.25  0.00  0.00    5.89    8.11    0.36    0.00    0.22
 2000 260    10     1     1     0.7  104.5   16640   82.3   22.2   3.5   9.3  13.3   9.8   7.7   2.7   1.1   0.5   0.0   0.0   0.1   1.2   1.8   1.3   1.4  1.61  1.35  1.24  0.00  0.00    6.31    8.32    0.57    0.00    0.25
 2000 261    11     1     1     0.8  104.7   16639   82.5   22.2   3.7   9.3  13.2   9.7   7.6   2.7   1.1   0.6   0.0   0.0   0.1   1.1   1.8   1.4   1.4  1.63  1.35  1.24  0.00  0.00    6.71    8.67    0.69    0.00    0.27
 2000 262    12     1     1     0.8  105.0   16639   82.8   22.3   2.5   8.4  13.3  10.2   7.9   2.8   1.2   0.6   0.0   0.0   0.1   1.0   1.9   1.4   1.4  1.64  1.34  1.23  0.00  0.00    7.13    9.04    0.74    0.00    0.28
 2000 263    13     1     1     1.3  104.8   16638   82.3   22.5   1.2   5.8  11.2   9.6   8.4   3.9   1.9   0.9   0.0   0.0   0.1   1.0   1.9   1.4   1.4  1.65  1.34  1.22  0.00  0.00    7.59    9.22    1.01    0.00    0.29
 2000 264    14     1     1     1.4  104.8   16638   81.9   22.9   1.1   5.5  10.8   9.4   8.4   4.0   2.0   1.0   0.0   0.0   0.1   1.1   2.0   1.4   1.4  1.67  1.35  1.21  0.00  0.00    8.10    9.41    1.38    0.00    0.30
 2000 265    15     1     1     1.9  104.4   16637   81.3   23.2   1.1   5.4  10.5   9.1   8.2   4.0   2.1   1.1   0.0   0.0   0.1   1.2   2.1   1.4   1.4  1.68  1.35  1.21  0.00  0.00    8.64    9.62    1.75    0.00    0.30
 2000 266    16     1     1     2.2  104.5   16637   81.0   23.5   1.3   5.4  10.3   8.9   8.1   4.1   2.2   1.2   0.0   0.0   0.1   1.2   2.1   1.4   1.4  1.70  1.35  1.20  0.00  0.00    9.19    9.89    1.97    0.00    0.30
 2000 267    17     1     1     2.3  104.6   16636   81.2   23.5   1.5   5.5  10.3   8.9   8.1   4.1   2.3   1.2   0.0   0.0   0.1   1.1   2.2   1.5   1.4  1.71  1.35  1.20  0.00  0.00    9.75   10.42    2.10    0.00    0.30
 2000 268    18     1     1     2.4  105.0   16636   81.5   23.5   1.7   5.6  10.3   8.8   8.0   4.1   2.3   1.2   0.0   0.0   0.1   1.0   2.3   1.5   1.5  1.73  1.35  1.19  0.00  0.00   10.31   10.93    2.16    0.00    0.31
 2000 269    19     1     1     2.5  105.3   16635   82.0   23.3   1.9   5.7  10.5   8.8   8.0   4.1   2.3   1.3   0.0   0.0   0.1   0.9   2.2   1.5   1.5  1.74  1.35  1.18  0.00  0.00   10.84   11.62    2.20    0.00    0.31
 2000 270    20     1     1     2.6  105.8   16635   82.6   23.2   2.1   5.8  10.6   8.8   8.0   4.1   2.3   1.3   0.0   0.0   0.1   0.8   2.1   1.5   1.5  1.76  1.35  1.17  0.00  0.00   11.33   12.25    2.22    0.00    0.31
 2000 271    21     1     1     2.6  106.2   16634   83.2   23.1   2.3   5.9  10.7   8.8   8.0   4.1   2.3   1.3   0.0   0.0   0.1   0.8   2.0   1.5   1.5  1.77  1.35  1.16  0.00  0.00   11.80   12.85    2.24    0.00    0.32
 2000 272    22     1     1     2.6  106.7   16634   83.7   23.0   2.5   6.0  10.9   8.9   8.0   4.1   2.3   1.3   0.0   0.0   0.1   0.7   2.0   1.5   1.5  1.78  1.35  1.15  0.00  0.00   12.30   13.46    2.25    0.00    0.32
 2000 273    23     1     1     2.6  107.2   16633   84.5   22.7   2.7   6.1  11.0   9.0   8.1   4.1   2.4   1.3   0.0   0.0   0.1   0.7   1.9   1.4   1.5  1.80  1.34  1.14  0.00  0.00   12.83   14.19    2.26    0.00    0.32
 2000 274    24     1     1     2.6  107.8   16633   85.2   22.5   2.1   6.2  11.4   9.1   8.1   4.1   2.4   1.3   0.0   0.0   0.1   0.6   1.8   1.4   1.5  1.81  1.34  1.13  0.00  0.00   13.42   15.00    2.27    0.00    0.32
 2000 275    25     1     1     2.6  108.3   16632   85.7   22.7   2.2   6.1  11.3   9.2   8.1   4.1   2.4   1.4   0.0   0.0   0.1   0.7   1.9   1.3   1.5  1.82  1.34  1.12  0.00  0.00   14.06   15.48    2.29    0.00    0.33
 2000 276    26     1     1     2.7  108.9   16631   86.1   22.8   1.3   4.9  10.3   9.3   8.7   4.6   2.6   1.4   0.0   0.0   0.1   0.7   2.0   1.3   1.5  1.84  1.34  1.11  0.00  0.00   14.75   16.06    2.30    0.00    0.33
 2000 277    27     1     1     2.8  109.4   16631   86.1   23.2   1.0   4.4   9.8   9.1   8.7   4.9   2.8   1.5   0.0   0.0   0.2   0.8   2.1   1.4   1.5  1.86  1.34  1.10  0.00  0.00   15.42   16.28    2.44    0.00    0.33
 2000 278    28     1     1     3.5  109.0   16630   85.5   23.6   1.2   4.3   9.6   8.8   8.5   4.9   3.0   1.7   0.0   0.0   0.1   0.9   2.1   1.4   1.5  1.87  1.34  1.10  0.00  0.00   16.05   16.58    2.61    0.00    0.34
 2000 279    29     1     1     3.9  108.9   16629   85.0   23.8   1.4   4.3   9.4   8.7   8.3   4.9   3.0   1.8   0.0   0.0   0.1   0.9   2.2   1.4   1.6  1.89  1.34  1.09  0.00  0.00   16.66   16.88    2.79    0.00    0.34
 2000 280    30     1     1     4.2  108.8   16629   84.9   23.9   1.6   4.3   9.3   8.6   8.3   4.9   3.1   1.8   0.0   0.0   0.1   0.8   2.2   1.4   1.6  1.90  1.34  1.08  0.00  0.00   17.23   17.37    2.91    0.00    0.34
 2000 281    31     1     1     4.4  108.9   16628   85.2   23.7   1.8   4.3   9.4   8.6   8.2   4.9   3.1   1.9   0.0   0.0   0.1   0.8   2.1   1.4   1.6  1.92  1.34  1.07  0.00  0.00   17.77   18.06    2.96    0.00    0.35
 2000 282    32     1     1     4.4  109.1   16628   85.6   23.5   1.9   4.4   9.5   8.5   8.2   4.9   3.1   1.9   0.0   0.0   0.1   0.7   2.0   1.4   1.6  1.93  1.34  1.06  0.00  0.00   18.33   18.75    2.99    0.00    0.35
 2000 283    33    31     2     4.4  139.0   16627  100.9   38.2  28.4   4.1   9.5   8.8   8.4   4.9   3.2   1.9   0.0   0.0  26.8   0.7   1.9   1.4   1.6  1.94  1.34  1.06  0.00  0.00   18.89   19.43    3.01    0.00    0.52
 2000 284    34    31     2     4.8  138.9   16627  103.0   35.9  32.6   4.1   9.3   8.6   8.3   5.0   3.3   2.0   0.0   0.0  22.1   0.7   2.0   1.5   1.6  1.96  1.34  1.05  0.00  0.00   19.45   22.16    3.08    0.00    0.58
 2000 285    35    31     2     4.9  138.4   16626  112.6   25.8  50.3   4.0   9.1   8.5   8.3   5.0   3.3   2.1   0.0   0.0   3.5   0.8   2.0   1.5   1.6  1.97  1.33  1.04  0.00  0.00   20.01   32.45    3.12    0.00    0.73
 2000 286    36    31     2     5.0  138.2   16625  114.2   24.1  52.8   4.0   9.0   8.5   8.3   5.0   3.3   2.1   0.0   0.0   0.4   0.8   2.1   1.5   1.6  1.98  1.33  1.03  0.00  0.00   20.58   34.54    3.15    0.00    0.85
 2000 287    37    31     2     5.0  138.3   16625  114.6   23.7  52.9   4.1   9.1   8.5   8.3   5.1   3.4   2.1   0.0   0.0   0.0   0.7   2.0   1.5   1.6  2.00  1.33  1.02  0.00  0.00   21.18   35.43    3.17    0.00    0.90
 2000 288    38    31     2     5.0  137.8   16624  114.2   23.5  51.9   4.2   9.1   8.5   8.3   5.1   3.4   2.1   0.0   0.0   0.1   0.6   1.9   1.5   1.6  2.01  1.33  1.01  0.00  0.00   21.78   36.12    3.19    0.00    0.92
 2000 289    39    31     2     5.0  138.0   16624  114.6   23.4  51.7   4.3   9.2   8.5   8.4   5.1   3.4   2.1   0.0   0.0   0.1   0.6   1.8   1.5   1.6  2.02  1.33  1.01  0.00  0.00   22.39   36.80    3.20    0.00    0.94
 2000 290    40    31     2     5.0  137.9   16623  114.7   23.2  43.3   8.3   9.2   8.6   8.4   5.1   3.4   2.1   0.0   0.0   0.1   0.6   1.7   1.4   1.6  2.04  1.32  1.00  0.00  0.00   23.00   37.60    3.21    0.00    0.96
 2000 291    41    31     2     5.0  137.8   16622  114.7   23.1  42.8   8.2   9.3   8.7   8.4   5.1   3.4   2.2   0.0   0.0   0.1   0.7   1.7   1.4   1.6  2.05  1.32  0.99  0.00  0.00   23.62   38.27    3.22    0.00    0.98
 2000 292    42    31     2     5.0  137.4   16622  114.6   22.9  42.1   8.2   9.2   8.8   8.4   5.1   3.4   2.2   0.0   0.0   0.1   0.6   1.6   1.3   1.6  2.06  1.32  0.98  0.00  0.00   24.21   39.02    3.24    0.00    1.00
 2000 293    43    31     2     5.0  137.1   16621  114.5   22.7  28.0  13.2  10.2   9.0   8.5   5.1   3.4   2.2   0.0   0.0   0.1   0.6   1.5   1.3   1.6  2.07  1.32  0.97  0.00  0.00   24.80   39.75    3.25    0.00    1.02
 2000 294    44    31     2     5.1  136.1   16621  113.2   22.9  27.0  12.8   9.9   8.9   8.5   5.1   3.5   2.2   0.0   0.0   0.1   0.7   1.6   1.3   1.6  2.09  1.32  0.97  0.00  0.00   25.39   40.04    3.26    0.00    1.04
 2000 295    45    31     2     5.1  135.8   16620  112.7   23.2  26.6  12.5   9.7   8.9   8.5   5.2   3.5   2.2   0.0   0.0   0.1   0.8   1.6   1.3   1.6  2.10  1.32  0.96  0.00  0.00   26.02   40.37    3.28    0.00    1.06
 2000 296    46    31     2     5.2  134.0   16619  111.0   23.0  10.5  12.7  10.8   9.1   9.0   5.8   3.9   2.4   0.0   0.0   0.1   0.7   1.5   1.3   1.6  2.11  1.31  0.95  0.00  0.00   26.67   41.09    3.29    0.00    1.08
 2000 297    47    31     2     5.4  132.6   16619  109.3   23.3   9.8  12.2  10.4   8.8   9.0   5.8   4.0   2.5   0.0   0.0   0.2   0.8   1.6   1.3   1.7  2.13  1.32  0.95  0.00  0.00   27.30   41.28    3.48    0.00    1.10
 2000 298    48    31     2     6.4  131.8   16618  108.2   23.6   9.9  12.0  10.3   8.6   8.7   5.7   4.0   2.6   0.0   0.0   0.1   0.9   1.7   1.3   1.7  2.15  1.32  0.94  0.00  0.00   27.93   41.56    3.71    0.00    1.13
 2000 299    49    31     2     8.9  128.9   16617  105.0   23.9   3.6   8.4   9.9   8.3   8.6   6.4   4.7   3.3   0.0   0.0   0.1   0.9   1.7   1.3   1.7  2.16  1.32  0.94  0.00  0.00   28.55   41.84    3.85    0.00    1.14
 2000 300    50    31     2    10.3  124.7   16617  100.8   24.0   2.0   6.6   8.9   7.8   8.5   6.5   4.9   3.5   0.0   0.0   0.1   1.0   1.7   1.3   1.7  2.18  1.33  0.93  0.00  0.00   29.16   42.07    4.14    0.00    1.17
 2000 301    51    31     2    11.9  122.1   16616   97.9   24.2   1.9   6.2   8.4   7.4   8.2   6.4   4.9   3.6   0.0   0.0   0.1   1.0   1.8   1.3   1.7  2.19  1.33  0.93  0.00  0.00   29.75   42.28    4.60    0.00    1.18
 2000 302    52    31     2    12.8  118.5   16616   94.3   24.2   1.9   5.5   7.6   7.0   8.0   6.3   4.9   3.6   0.0   0.0   0.1   1.0   1.7   1.3   1.7  2.21  1.33  0.93  0.00  0.00   30.36   42.58    4.81    0.00    1.20
 2000 303    53    31     2    13.3  115.9   16615   92.1   23.8   1.9   5.3   7.1   6.8   7.8   6.2   4.9   3.6   0.0   0.0   0.1   0.9   1.6   1.3   1.7  2.22  1.33  0.92  0.00  0.00   30.99   43.33    4.90    0.00    1.22
 2000 304    54    31     2    13.5  113.6   16614   90.2   23.4   2.0   5.0   6.7   6.6   7.6   6.2   4.9   3.6   0.0   0.0   0.1   0.7   1.4   1.3   1.7  2.23  1.33  0.92  0.00  0.00   31.60   44.02    4.95    0.00    1.24
 2000 305    55    31     2    13.7  111.2   16614   88.3   22.9   2.0   4.7   6.1   6.4   7.4   6.2   4.9   3.6   0.0   0.0   0.1   0.7   1.3   1.2   1.7  2.25  1.33  0.91  0.00  0.00   32.24   44.81    4.97    0.00    1.26
 2000 306    56    31     2    13.7  108.4   16613   85.9   22.4   1.4   4.5   5.5   6.2   7.1   6.2   4.9   3.6   0.0   0.0   0.1   0.6   1.2   1.1   1.6  2.26  1.33  0.90  0.00  0.00   32.88   45.58    4.99    0.00    1.28
 2000 307    57    31     2    13.7  107.4   16613   85.1   22.2   1.3   4.3   5.4   6.1   7.0   6.2   4.9   3.6   0.0   0.0   0.2   0.6   1.1   1.1   1.6  2.27  1.33  0.90  0.00  0.00   33.53   46.24    5.00    0.00    1.29
 2000 308    58    31     2    13.7  103.5   16612   81.9   21.6   1.3   3.7   4.6   5.8   6.7   6.2   4.9   3.6   0.0   0.0   0.1   0.5   1.0   1.0   1.5  2.28  1.32  0.89  0.00  0.00   34.19   47.11    5.01    0.00    1.33
 2000 309    59    31     2    13.7   99.4   16611   78.3   21.1   1.1   3.1   3.7   5.4   6.3   6.2   5.0   3.6   0.0   0.0   0.1   0.5   0.9   0.9   1.3  2.30  1.32  0.88  0.00  0.00   34.88   47.89    5.02    0.00    1.34
 2000 310    60    31     2    13.7   97.7   16611   76.9   20.8   1.1   2.9   3.4   5.2   6.1   6.2   5.0   3.7   0.0   0.0   0.1   0.5   0.9   0.9   1.3  2.31  1.32  0.88  0.00  0.00   35.54   48.63    5.03    0.00    1.37
 2000 311    61    31     2    13.7   93.3   16610   72.9   20.4   0.9   2.2   2.6   4.7   5.7   6.2   5.0   3.7   0.0   0.0   0.1   0.5   0.8   0.8   1.2  2.32  1.32  0.87  0.00  0.00   36.17   49.31    5.04    0.00    1.38
 2000 312    62    31     2    13.7   89.6   16609   69.6   20.0   0.7   1.7   1.9   4.3   5.2   6.2   5.0   3.7   0.0   0.0   0.1   0.5   0.8   0.8   1.1  2.33  1.32  0.87  0.00  0.00   36.79   49.96    5.05    0.00    1.39
 2000 313    63    31     2    13.7   87.8   16609   68.1   19.8   0.7   1.5   1.7   4.1   4.9   6.2   5.0   3.7   0.0   0.0   0.1   0.5   0.7   0.7   1.0  2.35  1.31  0.86  0.00  0.00   37.40   50.59    5.06    0.00    1.39
 2000 314    64    31     2    13.7   83.8   16608   64.4   19.4   0.6   1.1   1.1   3.5   4.4   6.2   5.0   3.7   0.0   0.0   0.1   0.5   0.7   0.7   0.9  2.35  1.31  0.85  0.00  0.00   38.01   51.21    5.07    0.00    1.39
 2000 315    65    31     2    13.7   81.6   16608   62.5   19.1   0.5   0.9   0.9   3.3   4.1   6.1   5.0   3.7   0.0   0.0   0.1   0.4   0.7   0.7   0.9  2.33  1.31  0.85  0.00  0.00   38.60   51.80    5.08    0.00    1.39
 2000 316    66    31     2    13.7   75.8   16607   57.4   18.4   0.1   0.6   0.5   2.6   3.4   5.8   5.0   3.7   0.0   0.0   0.1   0.4   0.6   0.6   0.8  2.25  1.31  0.84  0.00  0.00   39.17   52.36    5.09    0.00    1.39
 2000 317    67    31     2    13.7   71.6   16606   53.7   17.9   0.2   0.5   0.4   2.3   3.0   5.3   5.0   3.7   0.0   0.0   0.2   0.5   0.6   0.6   0.7  2.11  1.31  0.84  0.00  0.00   39.79   52.75    5.09    0.00    1.40
 2000 318    68    31     2    13.7   66.8   16606   50.0   16.9   0.4   0.4   0.3   1.9   2.6   4.7   5.1   3.7   0.0   0.0   0.1   0.5   0.6   0.6   0.7  1.92  1.30  0.83  0.00  0.00   40.42   53.45    5.10    0.00    1.40
 2000 319    69    31     2    13.7   63.1   16605   46.9   16.1   0.4   0.4   0.3   1.7   2.2   4.2   5.1   3.7   0.0   0.0   0.1   0.5   0.6   0.6   0.6  1.77  1.30  0.82  0.00  0.00   41.04   54.05    5.10    0.00    1.40
 2000 320    70    31     2    13.7   59.2   16605   43.8   15.4   0.4   0.4   0.3   1.4   1.9   3.7   5.1   3.8   0.0   0.0   0.1   0.5   0.6   0.5   0.6  1.61  1.30  0.82  0.00  0.00   41.63   54.62    5.11    0.00    1.41
 2000 321    71    31     2    13.7   57.2   16604   42.3   15.0   0.4   0.4   0.3   1.3   1.8   3.5   5.1   3.8   0.0   0.0   0.1   0.5   0.6   0.5   0.6  1.53  1.30  0.81  0.00  0.00   42.18   55.15    5.11    0.00    1.41
 2000 322    72    31     2    13.7   53.7   16604   39.4   14.3   0.4   0.4   0.3   1.1   1.5   3.0   5.1   3.8   0.0   0.0   0.1   0.5   0.6   0.5   0.6  1.38  1.30  0.81  0.00  0.00   42.70   55.66    5.11    0.00    1.41
 2000 323    73   101     3    13.7  119.8   16603   71.4   48.4  63.6   0.4   0.3   0.8   1.2   2.5   5.1   3.8   0.0   0.0  62.9   0.5   0.5   0.5   0.5  1.23  1.30  0.80  0.00  0.00   43.20   56.15    5.12    0.00    1.47
 2000 324    74   101     3    13.7  112.7   16603   99.4   13.4  78.7  17.7   0.6   0.8   1.2   2.4   5.1   3.8   0.0   0.0   0.0   0.5   0.6   0.5   0.5  1.22  1.29  0.80  0.00  0.00   43.71   88.01    5.12    0.00    1.53
 2000 325    75   101     3    13.7  106.9   16602   93.3   13.6  70.9  16.1   0.8   0.8   1.2   2.4   5.1   3.8   0.0   0.0   0.1   0.6   0.6   0.5   0.5  1.20  1.29  0.79  0.00  0.00   44.37   88.38    5.13    0.00    1.53
 2000 326    76   101     3    13.7  101.2   16601   87.7   13.5  63.9  14.5   0.9   0.9   1.2   2.3   5.2   3.8   0.0   0.0   0.1   0.5   0.7   0.5   0.5  1.19  1.29  0.79  0.00  0.00   45.05   89.04    5.13    0.00    1.56
 2000 327    77   101     3    13.7   96.0   16601   82.5   13.4  57.5  13.2   0.9   0.9   1.1   2.3   5.2   3.8   0.0   0.0   0.1   0.5   0.7   0.5   0.5  1.17  1.29  0.78  0.00  0.00   45.76   89.65    5.13    0.00    1.58
 2000 328    78   101     3    13.7   90.8   16600   77.5   13.3  26.2  19.5   4.1   0.9   1.1   2.2   5.2   3.8   0.0   0.0   0.1   0.5   0.7   0.5   0.5  1.16  1.28  0.77  0.00  0.00   46.46   90.31    5.13    0.00    1.60
 2000 329    79   101     3    13.7   83.3   16599   69.9   13.4  21.6  16.4   3.4   0.9   1.1   2.1   5.2   3.8   0.0   0.0   0.2   0.6   0.8   0.5   0.5  1.13  1.26  0.77  0.00  0.00   47.20   90.72    5.13    0.00    1.62
 2000 330    80   101     3    13.7   79.4   16599   66.3   13.1  19.2  14.9   3.1   1.0   1.1   2.0   5.3   3.8   0.0   0.0   0.1   0.6   0.8   0.5   0.5  1.11  1.23  0.76  0.00  0.00   47.89   91.52    5.14    0.00    1.64
 2000 331    81   101     3    13.7   72.7   16598   59.8   12.9  15.5  12.1   2.5   0.9   1.0   1.9   5.3   3.9   0.0   0.0   0.1   0.5   0.8   0.5   0.5  1.08  1.20  0.76  0.00  0.00   48.59   92.21    5.14    0.00    1.65
 2000 332    82   101     3    13.7   65.9   16597   53.3   12.6  11.9   9.3   2.0   0.9   1.0   1.8   5.3   3.9   0.0   0.0   0.1   0.5   0.8   0.5   0.5  1.05  1.17  0.75  0.00  0.00   49.29   92.93    5.14    0.00    1.67
 2000 333    83   101     3    13.7   63.7   16597   51.3   12.4  10.6   8.4   1.9   0.9   1.0   1.8   5.4   3.9   0.0   0.0   0.1   0.5   0.8   0.5   0.5  1.04  1.15  0.75  0.00  0.00   49.98   93.59    5.14    0.00    1.69
 2000 334    84   101     3    13.7   61.5   16596   49.2   12.3   9.3   7.5   1.7   0.9   1.0   1.7   5.4   3.9   0.0   0.0   0.1   0.5   0.8   0.5   0.5  1.02  1.12  0.74  0.00  0.00   50.62   94.21    5.14    0.00    1.70
 2000 335    85   101     3    13.7   56.2   16595   44.2   12.0   6.7   5.4   1.3   0.8   0.9   1.6   5.4   3.9   0.0   0.0   0.1   0.5   0.7   0.5   0.5  0.99  1.10  0.74  0.00  0.00   51.24   94.83    5.14    0.00    1.72
 2000 336    86   101     3    13.7   48.1   16595   36.6   11.5   3.1   2.5   0.7   0.7   0.8   1.4   5.5   3.9   0.0   0.0   0.1   0.5   0.6   0.5   0.5  0.92  1.08  0.73  0.00  0.00   51.84   95.42    5.14    0.00    1.74
 2000 337    87   101     3    13.7   43.0   16594   31.9   11.0   1.2   1.0   0.3   0.6   0.6   1.2   5.5   3.9   0.0   0.0   0.1   0.5   0.6   0.5   0.5  0.86  1.06  0.73  0.00  0.00   52.38   95.97    5.15    0.00    1.76
 2000 338    88   101     3    13.7   40.4   16594   29.7   10.7   0.0   0.2   0.6   0.5   0.5   1.0   5.5   3.9   0.0   0.0   0.1   0.5   0.6   0.5   0.5  0.80  1.03  0.73  0.00  0.00   52.90   96.50    5.15    0.00    1.78
 2000 339    89   101     3    13.7   39.3   16593   28.5   10.7   0.0   0.3   0.3   0.4   0.4   0.8   5.6   3.9   0.0   0.0   0.2   0.6   0.6   0.5   0.4  0.75  1.01  0.72  0.00  0.00   53.55   96.80    5.15    0.00    1.80
 2000 340    90   101     3    13.7   37.4   16593   26.9   10.5   0.1   0.3   0.3   0.3   0.4   0.7   5.2   3.9   0.0   0.0   0.2   0.6   0.6   0.5   0.4  0.71  0.96  0.72  0.00  0.00   54.21   97.24    5.15    0.00    1.81
 2000 341    91   101     3    13.7   35.5   16592   25.5   10.0   0.4   0.4   0.3   0.3   0.3   0.6   4.8   3.9   0.0   0.0   0.1   0.5   0.6   0.5   0.4  0.68  0.90  0.71  0.00  0.00   54.88   97.95    5.15    0.00    1.81
 2000 342    92   101     3    13.7   33.4   16591   23.7    9.7   0.4   0.4   0.3   0.3   0.3   0.5   4.2   3.9   0.0   0.0   0.1   0.5   0.6   0.5   0.4  0.66  0.83  0.71  0.00  0.00   55.57   98.54    5.15    0.00    1.81
 2000 343    93   101     3    13.7   31.7   16591   22.2    9.5   0.4   0.4   0.3   0.3   0.3   0.4   3.7   4.0   0.0   0.0   0.1   0.5   0.6   0.5   0.4  0.64  0.78  0.70  0.00  0.00   56.27   99.17    5.15    0.00    1.82
 2000 344    94   101     3    13.7   30.2   16590   20.9    9.3   0.4   0.4   0.3   0.3   0.3   0.3   3.2   4.0   0.0   0.0   0.1   0.5   0.6   0.5   0.4  0.62  0.73  0.70  0.00  0.00   56.99   99.81    5.15    0.00    1.82
 2000 345    95   101     3    13.7   28.9   16589   19.8    9.0   0.4   0.4   0.3   0.3   0.3   0.3   2.9   4.0   0.0   0.0   0.1   0.5   0.6   0.5   0.4  0.61  0.69  0.69  0.00  0.00   57.73  100.50    5.15    0.00    1.82
 2000 346    96   101     3    13.7   27.8   16589   18.9    8.8   0.4   0.4   0.3   0.3   0.3   0.3   2.5   4.0   0.0   0.0   0.1   0.4   0.6   0.5   0.4  0.60  0.65  0.69  0.00  0.00   58.47  101.21    5.15    0.00    1.82
 2000 347    97   101     3    13.7   26.8   16588   18.2    8.6   0.4   0.4   0.3   0.3   0.3   0.3   2.2   4.0   0.0   0.0   0.1   0.4   0.6   0.5   0.4  0.59  0.62  0.67  0.00  0.00   59.19  101.93    5.15    0.00    1.82
 2000 348    98   101     3    13.7   26.0   16587   17.6    8.4   0.1   0.3   0.4   0.4   0.3   0.3   1.9   4.0   0.0   0.0   0.1   0.4   0.6   0.5   0.4  0.58  0.60  0.65  0.00  0.00   59.87  102.63    5.15    0.00    1.82
 2000 349    99   101     3    13.7   25.6   16587   16.7    8.8   0.2   0.3   0.3   0.3   0.3   0.3   1.7   4.1   0.0   0.0   0.3   0.5   0.7   0.5   0.4  0.57  0.57  0.63  0.00  0.00   60.73  102.92    5.15    0.00    1.83
 2000 350   100   101     3    13.7   25.3   16586   16.8    8.5   0.6   0.5   0.4   0.3   0.3   0.3   1.5   4.1   0.0   0.0   0.0   0.5   0.6   0.6   0.4  0.57  0.56  0.61  0.00  0.00   61.59  103.78    5.15    0.00    1.83
 2000 351   101   101     3    13.7   24.9   16585   16.0    8.9   0.4   0.3   0.3   0.3   0.3   0.3   1.3   4.1   0.0   0.0   0.2   0.6   0.7   0.6   0.4  0.57  0.54  0.60  0.00  0.00   62.45  104.07    5.15    0.00    1.83
 2000 352   102   101     3    13.7   24.4   16584   15.6    8.8   0.3   0.3   0.3   0.3   0.3   0.3   1.2   4.0   0.0   0.0   0.3   0.7   0.6   0.6   0.4  0.56  0.53  0.58  0.00  0.00   63.28  104.61    5.15    0.00    1.83
 2000 353   103   101     3    13.7   23.5   16584   15.2    8.3   0.7   0.5   0.3   0.3   0.3   0.3   1.0   3.8   0.0   0.0   0.0   0.5   0.6   0.6   0.5  0.56  0.52  0.56  0.00  0.00   64.07  105.52    5.15    0.00    1.83
 2000 354   104   101     3    13.7   22.3   16583   14.0    8.3   0.3   0.4   0.3   0.3   0.3   0.3   0.9   3.6   0.0   0.0   0.2   0.5   0.6   0.5   0.5  0.56  0.51  0.54  0.00  0.00   64.83  106.10    5.15    0.00    1.83
 2000 355   105   101     3    13.7   21.5   16582   13.3    8.2   0.5   0.4   0.3   0.3   0.3   0.3   0.8   3.4   0.0   0.0   0.1   0.5   0.6   0.5   0.5  0.55  0.50  0.53  0.00  0.00   65.57  106.76    5.15    0.00    1.83
 2000 356   106   101     3    13.7   20.7   16582   12.5    8.2   0.2   0.4   0.3   0.3   0.3   0.3   0.7   3.2   0.0   0.0   0.2   0.5   0.6   0.5   0.5  0.55  0.49  0.51  0.00  0.00   66.30  107.32    5.15    0.00    1.83
 2000 357   107   101     3    13.7   20.1   16581   12.0    8.0   0.5   0.4   0.3   0.3   0.3   0.3   0.7   3.0   0.0   0.0   0.1   0.5   0.6   0.5   0.5  0.55  0.48  0.50  0.00  0.00   67.02  108.02    5.15    0.00    1.84
 2000 358   108   101     3    13.7   19.4   16580   11.4    8.0   0.3   0.4   0.3   0.3   0.3   0.3   0.6   2.8   0.0   0.0   0.1   0.5   0.6   0.5   0.5  0.55  0.48  0.48  0.00  0.00   67.76  108.63    5.15    0.00    1.84
 2000 359   109   101     3    13.7   18.8   16580   10.8    8.0   0.3   0.4   0.3   0.3   0.3   0.3   0.5   2.7   0.0   0.0   0.3   0.5   0.6   0.5   0.5  0.55  0.47  0.47  0.00  0.00   68.44  109.16    5.15    0.00    1.84
 2000 360   110   101     3    13.7   18.3   16579   10.4    7.9   0.6   0.4   0.3   0.3   0.3   0.3   0.5   2.5   0.0   0.0   0.1   0.5   0.6   0.5   0.5  0.55  0.46  0.46  0.00  0.00   69.11  109.84    5.15    0.00    1.84
 2000 361   111   101     3    13.7   17.7   16578    9.9    7.8   0.0   0.4   0.4   0.3   0.3   0.3   0.4   2.3   0.0   0.0   0.1   0.5   0.6   0.5   0.5  0.54  0.46  0.45  0.00  0.00   69.78  110.41    5.15    0.00    1.84
 2000 362   112   101     3    13.7   17.3   16578    9.0    8.2   0.1   0.2   0.3   0.3   0.3   0.3   0.4   2.2   0.0   0.0   0.3   0.6   0.7   0.5   0.5  0.54  0.45  0.44  0.00  0.00   70.57  110.68    5.15    0.00    1.84
 2000 363   113   101     3    13.7   18.0   16577    9.3    8.8   0.1   0.2   0.3   0.3   0.3   0.3   0.4   2.2   0.0   0.0   0.4   0.8   0.8   0.6   0.5  0.55  0.44  0.43  0.00  0.00   71.35  110.89    5.15    0.00    1.85
 2000 364   114   101     3    13.7   17.6   16576    8.8    8.8   0.2   0.3   0.3   0.3   0.3   0.3   0.4   2.1   0.0   0.0   0.4   0.8   0.8   0.6   0.5  0.55  0.44  0.42  0.00  0.00   72.19  111.26    5.15    0.00    1.85
 2000 365   115   101     3    13.7   17.4   16576    8.5    8.9   0.3   0.3   0.3   0.3   0.3   0.3   0.3   2.0   0.0   0.0   0.5   0.8   0.8   0.6   0.5  0.56  0.43  0.40  0.00  0.00   73.02  111.59    5.15    0.00    1.85
 2000 366   116   101     3    13.7   17.0   16575    8.7    8.3   0.9   0.3   0.4   0.3   0.3   0.3   0.3   1.9   0.0   0.0   0.0   0.7   0.7   0.6   0.5  0.56  0.43  0.39  0.00  0.00   73.83  112.45    5.15    0.00    1.85
 2001 001   117   101     3    13.7   16.2   16574    8.2    8.0   0.3   0.5   0.3   0.3   0.3   0.3   0.3   1.8   0.0   0.0   0.2   0.5   0.6   0.6   0.5  0.56  0.42  0.38  0.00  0.00   74.61  113.09    5.15    0.00    1.85
 2001 002   118   101     3    13.7   15.8   16574    7.9    7.8   0.5   0.4   0.3   0.3   0.3   0.3   0.3   1.7   0.0   0.0   0.1   0.5   0.6   0.6   0.5  0.56  0.41  0.37  0.00  0.00   75.40  113.78    5.15    0.00    1.85
 2001 003   119   101     3    13.7   15.5   16573    7.7    7.8   0.4   0.4   0.3   0.3   0.3   0.3   0.3   1.6   0.0   0.0   0.1   0.5   0.6   0.6   0.5  0.56  0.41  0.37  0.00  0.00   76.22  114.44    5.15    0.00    1.85
 2001 004   120   101     3    13.7   15.3   16572    7.6    7.7   0.4   0.5   0.3   0.3   0.3   0.3   0.3   1.5   0.0   0.0   0.1   0.5   0.6   0.5   0.5  0.56  0.40  0.36  0.00  0.00   77.06  115.17    5.15    0.00    1.86
 2001 005   121   101     3    13.7   15.1   16571    7.1    7.9   0.3   0.3   0.4   0.3   0.3   0.3   0.3   1.4   0.0   0.0   0.3   0.6   0.6   0.5   0.5  0.56  0.40  0.35  0.00  0.00   77.94  115.64    5.15    0.00    1.86
 2001 006   122   101     3    13.7   15.0   16571    7.4    7.5   0.7   0.5   0.3   0.3   0.3   0.3   0.3   1.3   0.0   0.0   0.0   0.5   0.6   0.5   0.5  0.56  0.39  0.34  0.00  0.00   78.82  116.63    5.15    0.00    1.86
 2001 007   123   101     3    13.7   14.6   16570    7.0    7.6   0.0   0.3   0.4   0.4   0.4   0.3   0.3   1.2   0.0   0.0   0.2   0.5   0.6   0.5   0.5  0.56  0.39  0.33  0.00  0.00   79.72  117.29    5.15    0.00    1.86
 2001 008   124   101     3    13.7   14.6   16569    6.5    8.2   0.1   0.3   0.3   0.3   0.3   0.3   0.3   1.2   0.0   0.0   0.3   0.6   0.7   0.6   0.5  0.56  0.38  0.32  0.00  0.00   80.63  117.51    5.15    0.00    1.86
 2001 009   125   101     3    13.7   14.6   16568    6.4    8.2   0.6   0.3   0.3   0.3   0.3   0.3   0.3   1.1   0.0   0.0   0.0   0.7   0.8   0.6   0.6  0.57  0.38  0.31  0.00  0.00   81.57  118.04    5.15    0.00    1.86
 2001 010   126   101     3    13.7   14.7   16567    6.1    8.6   0.2   0.3   0.3   0.3   0.3   0.3   0.3   1.0   0.0   0.0   0.2   0.7   0.8   0.6   0.6  0.58  0.38  0.31  0.00  0.00   82.50  118.25    5.15    0.00    1.86
 2001 011   127   101     3    13.7   14.8   16567    5.8    8.9   0.2   0.3   0.3   0.3   0.2   0.2   0.3   1.0   0.0   0.0   0.3   0.8   0.9   0.7   0.6  0.59  0.37  0.30  0.00  0.00   83.36  118.43    5.15    0.00    1.86
 2001 012   128   101     3    13.7   14.7   16566    6.0    8.7   0.6   0.3   0.3   0.3   0.3   0.3   0.3   0.9   0.0   0.0   0.0   0.8   0.8   0.7   0.6  0.59  0.37  0.29  0.00  0.00   84.20  118.88    5.16    0.00    1.86
 2001 013   129   101     3    13.7   14.3   16565    5.7    8.6   0.3   0.3   0.3   0.3   0.3   0.3   0.3   0.9   0.0   0.0   0.1   0.7   0.8   0.7   0.6  0.60  0.38  0.29  0.00  0.00   85.02  119.14    5.16    0.00    1.87
 2001 014   130   101     3    13.7   14.2   16565    6.0    8.2   0.1   0.4   0.4   0.3   0.3   0.3   0.3   0.8   0.0   0.0   0.3   0.5   0.7   0.6   0.6  0.60  0.38  0.28  0.00  0.00   85.85  119.80    5.16    0.00    1.87
 2001 015   131   101     3    13.7   14.0   16564    5.5    8.5   0.2   0.3   0.3   0.3   0.3   0.3   0.3   0.8   0.0   0.0   0.4   0.6   0.7   0.6   0.6  0.60  0.38  0.27  0.00  0.00   86.64  119.98    5.16    0.00    1.87
 2001 016   132   101     3    13.7   14.1   16563    5.6    8.5   0.7   0.3   0.3   0.3   0.3   0.3   0.3   0.8   0.0   0.0   0.0   0.7   0.8   0.6   0.6  0.61  0.38  0.27  0.00  0.00   87.50  120.45    5.16    0.00    1.87
 2001 017   133   101     3    13.7   13.9   16563    5.3    8.6   0.3   0.3   0.3   0.3   0.3   0.3   0.3   0.7   0.0   0.0   0.2   0.7   0.7   0.7   0.6  0.61  0.38  0.26  0.00  0.00   88.41  120.71    5.16    0.00    1.87
 2001 018   134   101     3    13.7   13.9   16562    5.3    8.6   0.3   0.3   0.3   0.3   0.3   0.3   0.3   0.7   0.0   0.0   0.3   0.7   0.7   0.7   0.6  0.61  0.39  0.26  0.00  0.00   89.32  121.03    5.16    0.00    1.88
 2001 019   135   101     3    13.7   13.9   16561    5.3    8.6   0.3   0.3   0.3   0.3   0.3   0.3   0.3   0.6   0.0   0.0   0.4   0.8   0.7   0.6   0.6  0.61  0.39  0.25  0.00  0.00   90.23  121.42    5.16    0.00    1.88
 2001 020   136   101     3    13.7   13.8   16561    5.2    8.5   0.4   0.3   0.3   0.3   0.3   0.3   0.3   0.6   0.0   0.0   0.4   0.7   0.7   0.6   0.6  0.62  0.39  0.25  0.00  0.00   91.12  121.84    5.17    0.00    1.88
 2001 021   137   101     3    13.7   13.6   16560    5.5    8.1   0.9   0.3   0.3   0.3   0.3   0.3   0.3   0.6   0.0   0.0   0.0   0.7   0.6   0.6   0.6  0.62  0.39  0.24  0.00  0.00   92.01  122.64    5.17    0.00    1.88
 2001 022   138   101     3    13.7   13.1   16559    5.3    7.8   0.3   0.5   0.3   0.3   0.3   0.3   0.3   0.6   0.0   0.0   0.2   0.5   0.6   0.6   0.6  0.62  0.40  0.24  0.00  0.00   92.87  123.26    5.17    0.00    1.88
 2001 023   139   101     3    13.7   13.0   16559    5.3    7.8   0.5   0.4   0.3   0.3   0.3   0.3   0.3   0.5   0.0   0.0   0.1   0.5   0.6   0.6   0.6  0.62  0.40  0.23  0.00  0.00   93.73  123.92    5.17    0.00    1.88
 2001 024   140   101     3    13.7   12.9   16558    5.2    7.7   0.4   0.4   0.3   0.3   0.3   0.3   0.3   0.5   0.0   0.0   0.1   0.5   0.6   0.6   0.6  0.62  0.40  0.23  0.00  0.00   94.62  124.57    5.17    0.00    1.88
 2001 025   141   101     3    13.7   12.9   16557    5.2    7.7   0.4   0.4   0.3   0.3   0.3   0.3   0.3   0.5   0.0   0.0   0.1   0.5   0.6   0.5   0.5  0.62  0.40  0.23  0.00  0.00   95.53  125.26    5.17    0.00    1.89
 2001 026   142   101     3    13.7   12.9   16556    5.2    7.7   0.4   0.5   0.3   0.3   0.3   0.3   0.3   0.5   0.0   0.0   0.1   0.5   0.6   0.5   0.5  0.62  0.40  0.22  0.00  0.00   96.48  125.98    5.17    0.00    1.89
 2001 027   143   101     3    13.7   12.8   16556    5.1    7.7   0.2   0.4   0.4   0.3   0.3   0.3   0.3   0.4   0.0   0.0   0.3   0.5   0.6   0.5   0.5  0.62  0.40  0.22  0.00  0.00   97.45  126.65    5.17    0.00    1.89
 2001 028   144   101     3    13.7   12.8   16555    4.7    8.1   0.3   0.3   0.3   0.3   0.3   0.3   0.3   0.4   0.0   0.0   0.4   0.6   0.7   0.5   0.5  0.62  0.40  0.22  0.00  0.00   98.42  127.02    5.17    0.00    1.89
 2001 029   145   101     3    13.7   13.0   16554    4.7    8.3   0.4   0.3   0.3   0.3   0.3   0.3   0.3   0.4   0.0   0.0   0.4   0.7   0.7   0.5   0.5  0.61  0.41  0.21  0.00  0.00   99.35  127.45    5.17    0.00    1.90
 2001 030   146   101     3    13.7   12.9   16553    5.3    7.6   0.8   0.5   0.3   0.3   0.3   0.3   0.3   0.4   0.0   0.0   0.0   0.5   0.6   0.5   0.5  0.61  0.41  0.21  0.00  0.00  100.25  128.46    5.17    0.00    1.90
 2001 031   147   101     3    13.7   12.5   16553    4.8    7.7   0.3   0.4   0.3   0.3   0.3   0.3   0.3   0.4   0.0   0.0   0.2   0.5   0.6   0.5   0.5  0.61  0.41  0.21  0.00  0.00  101.10  129.02    5.17    0.00    1.90
 2001 032   148   101     3    13.7   12.4   16552    4.9    7.6   0.5   0.4   0.3   0.3   0.3   0.3   0.3   0.3   0.0   0.0   0.1   0.5   0.6   0.5   0.5  0.61  0.41  0.21  0.00  0.00  101.94  129.69    5.17    0.00    1.90
 2001 033   149   101     3    13.7   12.3   16551    4.8    7.6   0.4   0.4   0.3   0.3   0.3   0.3   0.3   0.3   0.0   0.0   0.1   0.5   0.6   0.5   0.5  0.60  0.41  0.20  0.00  0.00  102.78  130.32    5.17    0.00    1.90
 2001 034   150   101     3    13.7   13.2   16551    5.5    7.7   0.6   0.6   0.4   0.4   0.3   0.3   0.3   0.3   0.0   0.0   0.1   0.5   0.7   0.5   0.5  0.62  0.41  0.20  0.00  0.00  103.67  131.03    5.17    0.00    1.91
 2001 035   151   101     3    13.7   14.1   16550    6.2    7.9   0.8   0.8   0.5   0.4   0.4   0.3   0.3   0.3   0.0   0.0   0.1   0.5   0.7   0.5   0.5  0.64  0.40  0.20  0.00  0.00  104.52  131.74    5.17    0.00    1.91
 2001 036   152   101     3    13.7   14.9   16549    6.9    8.0   0.9   1.0   0.6   0.5   0.4   0.3   0.3   0.3   0.0   0.0   0.1   0.4   0.8   0.5   0.5  0.65  0.40  0.20  0.00  0.00  105.34  132.47    5.17    0.00    1.91

*DSSAT Cropping System Model Ver. 4.0.2.000               Aug 12, 2016; 12:55:20

*RUN   2        : UYMZ                    
 MODEL          : MZCER040 - Maize           
 EXPERIMENT     : UYMZ0197 MZ    late to create DSS                             
 TREATMENT  1   : UYMZ                    

@YEAR DOY   DAS  NAPC  NI#M    NLCC   NIAD    NOAD   NITD   NHTD  NI1D  NI2D  NI3D  NI4D  NI5D  NI6D  NI7D  NI8D  NI9D  NI10  NH1D  NH2D  NH3D  NH4D  NH5D  NH6D  NH7D  NH8D  NH9D  NH10    NMNC    NITC    NDNC    NIMC    AMLC
 2001 250     0     0     0     0.0   99.3   16646   76.4   22.8   6.4  11.0  14.0   9.5   6.5   1.6   0.1   0.1   0.0   0.0   0.6   1.3   1.5   1.4   1.5  1.50  1.47  1.45  0.00  0.00    0.51    1.63    0.00    0.00    0.00
 2001 251     1     0     0     0.1   99.7   16645   76.7   23.0   6.8  10.8  13.7   9.3   6.5   1.8   0.2   0.1   0.0   0.0   0.3   1.4   1.5   1.5   1.5  1.52  1.47  1.45  0.00  0.00    1.02    1.99    0.00    0.00    0.00
 2001 252     2     0     0     0.1  100.2   16645   77.0   23.2   7.0  10.7  13.6   9.2   6.5   1.9   0.4   0.1   0.0   0.0   0.2   1.4   1.6   1.5   1.5  1.53  1.47  1.44  0.00  0.00    1.54    2.31    0.00    0.00    0.00
 2001 253     3     0     0     0.1  100.7   16644   77.5   23.2   7.4  10.8  13.5   9.1   6.5   1.9   0.4   0.1   0.0   0.0   0.1   1.3   1.7   1.5   1.5  1.55  1.47  1.43  0.00  0.00    2.04    2.83    0.00    0.00    0.00
 2001 254     4     1     1     0.1  102.1   16644   78.7   23.4   8.8  10.8  13.6   9.1   6.5   1.9   0.5   0.2   0.0   0.0   0.9   1.2   1.6   1.5   1.5  1.56  1.47  1.42  0.00  0.00    2.54    3.50    0.00    0.00    0.09
 2001 255     5     1     1     0.1  102.5   16643   79.6   22.9   9.6  10.9  13.7   9.1   6.6   1.9   0.5   0.2   0.0   0.0   0.3   1.0   1.6   1.5   1.5  1.58  1.46  1.41  0.00  0.00    3.04    4.40    0.02    0.00    0.14
 2001 256     6     1     1     0.1  102.9   16643   80.2   22.7  10.1  11.0  13.8   9.1   6.6   2.0   0.5   0.2   0.0   0.0   0.0   1.0   1.6   1.5   1.5  1.59  1.46  1.40  0.00  0.00    3.54    5.07    0.03    0.00    0.23
 2001 257     7     1     1     0.1  103.4   16642   80.8   22.6  10.3  11.1  13.9   9.2   6.6   2.0   0.5   0.2   0.0   0.0   0.1   0.9   1.5   1.5   1.5  1.61  1.46  1.38  0.00  0.00    4.05    5.64    0.04    0.00    0.24
 2001 258     8     1     1     0.1  103.9   16641   81.5   22.4  10.6  11.1  14.0   9.2   6.6   2.0   0.5   0.2   0.0   0.0   0.1   0.8   1.5   1.5   1.5  1.62  1.45  1.37  0.00  0.00    4.56    6.33    0.05    0.00    0.26
 2001 259     9     1     1     0.1  104.4   16641   82.1   22.3  10.8  11.2  14.1   9.3   6.6   2.0   0.5   0.3   0.0   0.0   0.1   0.8   1.5   1.4   1.5  1.63  1.45  1.36  0.00  0.00    5.06    6.98    0.05    0.00    0.27
 2001 260    10     1     1     0.1  104.8   16641   82.7   22.1  11.0  11.3  14.1   9.4   6.6   2.0   0.6   0.3   0.0   0.0   0.1   0.7   1.4   1.4   1.5  1.65  1.45  1.35  0.00  0.00    5.53    7.58    0.06    0.00    0.29
 2001 261    11     1     1     0.1  105.2   16640   83.3   22.0  11.2  11.4  14.2   9.5   6.7   2.0   0.6   0.3   0.0   0.0   0.1   0.7   1.4   1.3   1.5  1.66  1.45  1.33  0.00  0.00    5.98    8.16    0.06    0.00    0.31
 2001 262    12     1     1     0.1  105.7   16640   83.8   21.8  11.5  11.4  14.3   9.5   6.7   2.0   0.6   0.3   0.0   0.0   0.1   0.7   1.4   1.3   1.5  1.67  1.44  1.32  0.00  0.00    6.44    8.72    0.07    0.00    0.32
 2001 263    13     1     1     0.1  106.2   16639   84.4   21.7  11.7  11.5  14.4   9.6   6.7   2.0   0.6   0.3   0.0   0.0   0.1   0.6   1.4   1.2   1.5  1.69  1.44  1.31  0.00  0.00    6.94    9.31    0.07    0.00    0.34
 2001 264    14     1     1     0.1  106.7   16639   85.0   21.7  11.9  11.6  14.5   9.7   6.7   2.0   0.6   0.3   0.0   0.0   0.1   0.6   1.4   1.2   1.5  1.70  1.44  1.30  0.00  0.00    7.49    9.95    0.08    0.00    0.34
 2001 265    15     1     1     0.1  107.3   16638   85.8   21.6  12.2  11.7  14.6   9.7   6.8   2.0   0.6   0.4   0.0   0.0   0.1   0.6   1.3   1.2   1.6  1.72  1.43  1.29  0.00  0.00    8.10   10.66    0.08    0.00    0.34
 2001 266    16     1     1     0.1  107.8   16637   86.3   21.4  12.3  11.7  14.7   9.8   6.8   2.0   0.6   0.4   0.0   0.0   0.1   0.6   1.3   1.1   1.6  1.73  1.43  1.28  0.00  0.00    8.76   11.43    0.09    0.00    0.35
 2001 267    17     1     1     0.1  108.4   16637   87.2   21.2  12.5  11.8  14.8   9.9   6.9   2.0   0.6   0.4   0.0   0.0   0.1   0.5   1.3   1.1   1.5  1.75  1.43  1.26  0.00  0.00    9.43   12.31    0.09    0.00    0.35
 2001 268    18     1     1     0.1  109.1   16636   88.1   21.0  10.5  13.0  14.9  10.0   7.0   2.0   0.7   0.4   0.0   0.0   0.1   0.5   1.3   1.0   1.4  1.76  1.42  1.25  0.00  0.00   10.12   13.20    0.09    0.00    0.38
 2001 269    19     1     1     0.1  109.7   16635   88.8   20.9  10.6  12.8  15.2  10.0   7.1   2.0   0.7   0.4   0.0   0.0   0.1   0.6   1.3   1.0   1.4  1.78  1.42  1.24  0.00  0.00   10.77   13.89    0.10    0.00    0.39
 2001 270    20     1     1     0.1  110.3   16635   89.5   20.8   8.1  13.0  16.0  10.2   7.1   2.0   0.7   0.4   0.0   0.0   0.1   0.6   1.3   1.0   1.3  1.79  1.42  1.23  0.00  0.00   11.39   14.66    0.10    0.00    0.41
 2001 271    21     1     1     0.1  110.8   16634   89.9   20.9   8.0  12.8  15.9  10.4   7.3   2.0   0.7   0.4   0.0   0.0   0.1   0.7   1.3   0.9   1.3  1.80  1.41  1.22  0.00  0.00   11.95   15.07    0.10    0.00    0.43
 2001 272    22     1     1     0.9  110.6   16634   89.6   21.0   2.6   7.9  13.0  10.3   8.8   3.8   1.7   0.9   0.0   0.0   0.1   0.7   1.4   1.0   1.3  1.82  1.41  1.21  0.00  0.00   12.50   15.45    0.11    0.00    0.46
 2001 273    23     1     1     1.5  110.4   16633   89.0   21.4   1.6   6.3  11.8  10.0   8.9   4.3   2.2   1.1   0.0   0.0   0.1   0.8   1.5   1.0   1.3  1.83  1.42  1.21  0.00  0.00   13.02   15.61    0.18    0.00    0.48
 2001 274    24     1     1     4.1  108.1   16632   86.4   21.7   0.5   3.1   8.1   8.2   8.4   5.4   4.1   2.3   0.0   0.0   0.1   0.9   1.5   1.0   1.3  1.85  1.42  1.20  0.00  0.00   13.54   15.75    0.26    0.00    0.50
 2001 275    25     1     1     4.9  107.5   16632   85.4   22.1   0.4   3.0   7.6   7.7   8.3   5.5   4.3   2.5   0.0   0.0   0.2   0.9   1.6   1.0   1.3  1.87  1.42  1.20  0.00  0.00   14.03   15.86    0.61    0.00    0.53
 2001 276    26     1     1     5.2  107.2   16631   84.9   22.4   0.5   2.9   7.4   7.6   8.2   5.5   4.3   2.6   0.0   0.0   0.1   1.0   1.7   1.1   1.3  1.88  1.43  1.20  0.00  0.00   14.58   16.06    0.93    0.00    0.56
 2001 277    27     1     1     5.6  107.0   16631   84.3   22.7   0.6   2.8   7.2   7.4   8.1   5.5   4.4   2.7   0.0   0.0   0.1   1.1   1.7   1.1   1.3  1.90  1.43  1.19  0.00  0.00   15.13   16.26    1.26    0.00    0.58
 2001 278    28     1     1     6.6  106.0   16630   83.0   23.0   0.6   2.7   7.0   7.2   7.9   5.4   4.3   2.7   0.0   0.0   0.1   1.1   1.8   1.1   1.4  1.91  1.43  1.19  0.00  0.00   15.68   16.47    1.54    0.00    0.58
 2001 279    29     1     1     7.2  105.5   16630   82.4   23.0   0.7   2.8   6.9   7.1   7.8   5.4   4.3   2.8   0.0   0.0   0.1   1.0   1.8   1.1   1.4  1.93  1.44  1.19  0.00  0.00   16.24   16.94    1.69    0.00    0.58
 2001 280    30     1     1     7.3  105.4   16629   82.3   23.1   0.5   2.3   6.2   7.0   7.9   5.7   4.5   2.9   0.0   0.0   0.1   0.9   1.9   1.1   1.4  1.94  1.43  1.18  0.00  0.00   16.79   17.41    1.76    0.00    0.58
 2001 281    31     1     1     8.5  104.2   16629   80.8   23.4   0.5   2.2   5.9   6.7   7.6   5.7   4.5   3.0   0.0   0.0   0.2   0.9   1.9   1.2   1.4  1.96  1.44  1.17  0.00  0.00   17.35   17.60    2.05    0.00    0.59
 2001 282    32     1     1     8.6  104.1   16628   80.5   23.6   0.7   2.2   5.7   6.6   7.6   5.7   4.5   3.1   0.0   0.0   0.1   1.0   1.9   1.2   1.4  1.97  1.43  1.16  0.00  0.00   17.92   17.91    2.21    0.00    0.59
 2001 283    33    31     2     9.2  133.3   16628   94.9   38.4  27.9   2.3   5.5   6.5   7.5   5.6   4.5   3.1   0.0   0.0  26.9   0.9   2.0   1.2   1.4  1.98  1.43  1.15  0.00  0.00   18.47   18.37    2.35    0.00    0.68
 2001 284    34    31     2     9.5  132.7   16627  107.0   25.7  49.6   2.4   5.6   6.5   7.4   5.6   4.5   3.2   0.0   0.0   4.3   0.8   1.9   1.2   1.4  2.00  1.43  1.15  0.00  0.00   19.03   31.25    2.42    0.00    0.79
 2001 285    35    31     2     9.7  132.1   16626  108.6   23.5  52.3   2.5   5.6   6.4   7.4   5.6   4.5   3.2   0.0   0.0   0.6   0.7   1.8   1.2   1.5  2.01  1.43  1.14  0.00  0.00   19.60   33.88    2.46    0.00    0.86
 2001 286    36    31     2     9.8  131.9   16626  108.8   23.1  52.1   2.6   5.7   6.5   7.4   5.6   4.5   3.2   0.0   0.0   0.1   0.7   1.7   1.2   1.5  2.02  1.43  1.13  0.00  0.00   20.18   34.77    2.48    0.00    0.91
 2001 287    37    31     2     9.8  131.4   16625  108.4   23.0  51.0   2.7   5.7   6.5   7.4   5.6   4.5   3.2   0.0   0.0   0.0   0.6   1.6   1.3   1.5  2.04  1.42  1.12  0.00  0.00   20.78   35.42    2.49    0.00    0.95
 2001 288    38    31     2     9.8  130.9   16625  108.1   22.8  28.9  11.3   6.8   6.6   7.4   5.6   4.6   3.2   0.0   0.0   0.1   0.6   1.5   1.2   1.5  2.05  1.42  1.11  0.00  0.00   21.40   36.17    2.51    0.00    0.97
 2001 289    39    31     2     9.9  130.7   16624  107.6   23.1  25.7  12.0   6.9   6.7   7.5   5.6   4.6   3.3   0.0   0.0   0.2   0.7   1.6   1.2   1.5  2.06  1.42  1.10  0.00  0.00   22.02   36.42    2.53    0.00    0.98
 2001 290    40    31     2    10.0  130.1   16623  106.8   23.3  15.5  13.0   7.8   6.7   7.7   5.9   4.8   3.3   0.0   0.0   0.1   0.8   1.7   1.2   1.5  2.08  1.42  1.09  0.00  0.00   22.63   36.74    2.56    0.00    1.02
 2001 291    41    31     2    11.0  127.7   16623  104.1   23.6  14.5  12.4   7.5   6.5   7.4   5.8   4.8   3.5   0.0   0.0   0.1   0.9   1.7   1.3   1.5  2.09  1.42  1.08  0.00  0.00   23.26   36.98    2.69    0.00    1.03
 2001 292    42    31     2    11.6  126.7   16622  103.0   23.6  14.4  12.1   7.3   6.4   7.3   5.8   4.8   3.5   0.0   0.0   0.1   0.8   1.8   1.3   1.5  2.11  1.41  1.07  0.00  0.00   23.91   37.48    2.77    0.00    1.05
 2001 293    43    31     2    11.7  125.1   16621  101.7   23.4  12.9  12.0   7.1   6.3   7.2   5.8   4.8   3.6   0.0   0.0   0.1   0.7   1.6   1.3   1.5  2.12  1.41  1.06  0.00  0.00   24.57   38.22    2.83    0.00    1.07
 2001 294    44    31     2    12.0  123.9   16621  100.7   23.2  12.5  11.8   7.0   6.2   7.2   5.8   4.8   3.6   0.0   0.0   0.1   0.6   1.5   1.3   1.5  2.13  1.41  1.06  0.00  0.00   25.27   38.98    2.89    0.00    1.09
 2001 295    45    31     2    12.1  121.2   16620   98.2   23.0  11.7  10.9   6.5   6.0   7.2   5.8   4.8   3.6   0.0   0.0   0.1   0.6   1.4   1.3   1.5  2.15  1.41  1.05  0.00  0.00   25.95   39.69    2.92    0.00    1.11
 2001 296    46    31     2    12.1  118.0   16619   95.4   22.6  10.7   9.8   6.0   5.9   7.2   5.8   4.9   3.6   0.0   0.0   0.1   0.5   1.3   1.2   1.6  2.16  1.40  1.04  0.00  0.00   26.61   40.47    2.93    0.00    1.13
 2001 297    47    31     2    12.1  116.4   16619   94.0   22.4  10.3   9.2   5.7   5.8   7.2   5.8   4.9   3.6   0.0   0.0   0.1   0.5   1.2   1.1   1.6  2.17  1.40  1.03  0.00  0.00   27.25   41.17    2.95    0.00    1.15
 2001 298    48    31     2    12.1  114.4   16618   92.2   22.2   9.6   8.6   5.3   5.7   7.2   5.8   4.9   3.7   0.0   0.0   0.1   0.5   1.1   1.1   1.6  2.19  1.40  1.02  0.00  0.00   27.88   41.86    2.96    0.00    1.17
 2001 299    49    31     2    12.2  111.1   16618   89.2   21.9   2.5   6.5   6.2   5.9   7.4   6.0   5.0   3.7   0.0   0.0   0.1   0.5   1.1   1.0   1.5  2.20  1.40  1.01  0.00  0.00   28.53   42.55    2.97    0.00    1.19
 2001 300    50    31     2    16.6  105.7   16617   83.4   22.3   0.8   3.7   5.2   5.0   6.3   6.1   5.5   4.4   0.0   0.0   0.2   0.6   1.1   1.0   1.6  2.21  1.39  1.00  0.00  0.00   29.21   42.74    3.08    0.00    1.20
 2001 301    51    31     2    18.2  101.7   16616   79.2   22.5   0.4   2.8   4.4   4.6   5.9   6.1   5.5   4.6   0.0   0.0   0.2   0.7   1.2   1.0   1.5  2.23  1.40  1.00  0.00  0.00   29.90   42.92    3.29    0.00    1.23
 2001 302    52    31     2    19.2   99.4   16615   76.6   22.7   0.3   2.3   3.9   4.3   5.6   6.0   5.5   4.6   0.0   0.0   0.2   0.8   1.2   1.0   1.5  2.25  1.40  1.00  0.00  0.00   30.59   43.11    3.49    0.00    1.27
 2001 303    53    31     2    21.2   96.0   16615   73.1   23.0   0.3   2.1   3.5   3.9   5.2   5.8   5.4   4.6   0.0   0.0   0.3   0.9   1.3   1.0   1.5  2.27  1.41  1.00  0.00  0.00   31.26   43.30    3.70    0.00    1.30
 2001 304    54    31     2    22.3   90.4   16614   68.0   22.4   0.5   1.5   2.5   3.4   4.6   5.7   5.3   4.5   0.0   0.0   0.0   0.8   1.1   1.0   1.4  2.28  1.41  1.00  0.00  0.00   31.90   43.67    3.84    0.00    1.36
 2001 305    55    31     2    22.9   86.1   16614   64.4   21.7   0.4   1.2   1.8   3.0   4.1   5.6   5.3   4.5   0.0   0.0   0.1   0.7   0.9   0.9   1.3  2.29  1.41  0.99  0.00  0.00   32.53   44.24    3.91    0.00    1.36
 2001 306    56    31     2    23.2   82.1   16613   61.0   21.0   0.4   0.9   1.2   2.6   3.6   5.6   5.2   4.5   0.0   0.0   0.1   0.6   0.8   0.9   1.2  2.31  1.41  0.98  0.00  0.00   33.18   44.89    3.94    0.00    1.36
 2001 307    57    31     2    23.4   79.0   16612   58.5   20.5   0.4   0.7   0.8   2.3   3.2   5.6   5.2   4.5   0.0   0.0   0.1   0.5   0.7   0.8   1.1  2.32  1.40  0.98  0.00  0.00   33.82   45.58    3.96    0.00    1.36
 2001 308    58    31     2    23.4   75.0   16612   55.2   19.8   0.4   0.4   0.3   1.7   2.5   5.6   5.3   4.5   0.0   0.0   0.1   0.5   0.6   0.7   0.9  2.33  1.40  0.97  0.00  0.00   34.44   46.21    3.97    0.00    1.37
 2001 309    59    31     2    23.4   71.3   16611   52.2   19.0   0.4   0.4   0.3   1.4   2.1   5.2   5.3   4.5   0.0   0.0   0.1   0.5   0.6   0.6   0.8  2.22  1.40  0.96  0.00  0.00   35.07   46.80    3.98    0.00    1.37
 2001 310    60    31     2    23.4   66.9   16610   48.9   18.0   0.1   0.3   0.4   1.2   1.8   4.6   5.3   4.5   0.0   0.0   0.1   0.5   0.6   0.6   0.8  2.03  1.39  0.95  0.00  0.00   35.70   47.38    3.99    0.00    1.37
 2001 311    61    31     2    23.4   64.2   16610   46.5   17.7   0.1   0.3   0.3   1.0   1.7   4.2   5.3   4.5   0.0   0.0   0.2   0.6   0.7   0.6   0.7  1.90  1.39  0.95  0.00  0.00   36.39   47.63    4.00    0.00    1.37
 2001 312    62    31     2    23.6   61.8   16609   44.3   17.5   0.2   0.3   0.3   0.9   1.5   3.8   5.3   4.5   0.0   0.0   0.3   0.7   0.8   0.6   0.7  1.79  1.39  0.94  0.00  0.00   37.06   47.89    4.00    0.00    1.38
 2001 313    63    31     2    23.8   57.7   16608   41.2   16.5   0.4   0.2   0.3   0.6   1.2   3.2   5.3   4.6   0.0   0.0   0.1   0.7   0.8   0.6   0.6  1.59  1.39  0.93  0.00  0.00   37.73   48.38    4.01    0.00    1.38
 2001 314    64    31     2    24.0   54.5   16608   38.4   16.0   0.2   0.3   0.3   0.4   1.0   2.7   5.3   4.7   0.0   0.0   0.2   0.7   0.8   0.6   0.6  1.44  1.39  0.92  0.00  0.00   38.39   48.54    4.03    0.00    1.38
 2001 315    65    31     2    25.9   50.7   16607   34.9   15.8   0.2   0.3   0.3   0.4   0.8   2.2   4.9   4.7   0.0   0.0   0.3   0.8   0.8   0.7   0.6  1.34  1.39  0.92  0.00  0.00   39.03   48.68    4.08    0.00    1.39
 2001 316    66    31     2    26.6   47.4   16607   32.4   15.0   0.5   0.3   0.3   0.3   0.6   1.8   4.8   4.6   0.0   0.0   0.1   0.7   0.8   0.6   0.6  1.22  1.39  0.91  0.00  0.00   39.68   49.02    4.11    0.00    1.39
 2001 317    67    31     2    26.9   45.0   16606   30.9   14.1   0.4   0.4   0.3   0.3   0.5   1.5   4.7   4.6   0.0   0.0   0.1   0.5   0.7   0.6   0.6  1.11  1.39  0.91  0.00  0.00   40.38   49.57    4.12    0.00    1.40
 2001 318    68    31     2    27.0   43.2   16605   29.7   13.4   0.4   0.4   0.3   0.3   0.4   1.2   4.7   4.6   0.0   0.0   0.1   0.5   0.6   0.6   0.6  1.02  1.39  0.90  0.00  0.00   41.09   50.17    4.13    0.00    1.40
 2001 319    69    31     2    27.0   41.8   16604   28.8   13.0   0.4   0.4   0.3   0.3   0.4   1.0   4.7   4.6   0.0   0.0   0.1   0.5   0.6   0.6   0.6  0.93  1.38  0.89  0.00  0.00   41.80   50.78    4.13    0.00    1.40
 2001 320    70    31     2    27.0   40.7   16604   28.1   12.6   0.4   0.4   0.3   0.3   0.3   0.8   4.7   4.6   0.0   0.0   0.1   0.5   0.6   0.5   0.5  0.87  1.38  0.89  0.00  0.00   42.53   51.38    4.14    0.00    1.41
 2001 321    71    31     2    27.0   39.8   16603   27.5   12.3   0.4   0.4   0.3   0.3   0.3   0.7   4.7   4.6   0.0   0.0   0.1   0.5   0.6   0.5   0.5  0.81  1.38  0.88  0.00  0.00   43.22   51.95    4.14    0.00    1.41
 2001 322    72    31     2    27.0   39.2   16602   27.1   12.1   0.4   0.4   0.3   0.3   0.3   0.6   4.7   4.6   0.0   0.0   0.1   0.5   0.6   0.5   0.5  0.77  1.38  0.87  0.00  0.00   43.89   52.49    4.14    0.00    1.41
 2001 323    73   101     3    27.0  108.6   16602   61.9   46.8  63.7   0.4   0.3   0.3   0.3   0.5   4.7   4.6   0.0   0.0  62.9   0.5   0.6   0.5   0.5  0.73  1.37  0.87  0.00  0.00   44.59   53.06    4.15    0.00    1.47
 2001 324    74   101     3    27.0   71.3   16601   59.5   11.8  59.7   0.4   0.3   0.3   0.3   0.4   4.8   4.7   0.0   0.0   0.0   0.5   0.6   0.5   0.5  0.71  1.37  0.86  0.00  0.00   45.31   70.06    4.15    0.00    1.51
 2001 325    75   101     3    27.0   60.1   16600   48.3   11.8  39.5   0.4   0.3   0.3   0.3   0.4   4.8   4.7   0.0   0.0   0.1   0.5   0.6   0.5   0.5  0.70  1.37  0.85  0.00  0.00   46.03   70.59    4.15    0.00    1.51
 2001 326    76   101     3    27.0   56.2   16600   44.4   11.7  32.2   0.5   0.3   0.3   0.3   0.4   4.8   4.7   0.0   0.0   0.0   0.4   0.7   0.5   0.5  0.71  1.36  0.85  0.00  0.00   46.77   71.28    4.15    0.00    1.53
 2001 327    77   101     3    27.0   48.0   16599   36.4   11.6  18.0   0.4   0.3   0.3   0.3   0.4   4.8   4.7   0.0   0.0   0.1   0.4   0.6   0.5   0.5  0.69  1.33  0.84  0.00  0.00   47.50   71.98    4.15    0.00    1.54
 2001 328    78   101     3    27.0   40.8   16598   29.6   11.2   0.0   3.0   0.3   0.6   0.3   0.3   4.9   4.7   0.0   0.0   0.0   0.4   0.6   0.5   0.5  0.67  1.30  0.83  0.00  0.00   48.21   72.74    4.16    0.00    1.56
 2001 329    79   101     3    27.0   39.8   16598   28.3   11.5   0.0   2.0   0.3   0.4   0.3   0.3   4.9   4.7   0.0   0.0   0.2   0.5   0.7   0.5   0.5  0.65  1.27  0.83  0.00  0.00   48.99   73.03    4.16    0.00    1.57
 2001 330    80   101     3    27.4   38.3   16597   26.7   11.6   0.0   0.1   0.6   0.3   0.3   0.3   4.7   4.9   0.0   0.0   0.3   0.6   0.7   0.6   0.5  0.64  1.24  0.82  0.00  0.00   49.72   73.35    4.16    0.00    1.59
 2001 331    81   101     3    29.4   35.9   16596   24.0   11.9   0.1   0.2   0.4   0.3   0.3   0.3   4.0   4.7   0.0   0.0   0.3   0.7   0.8   0.6   0.5  0.64  1.23  0.82  0.00  0.00   50.40   73.48    4.17    0.00    1.60
 2001 332    82   101     3    30.2   34.2   16596   22.4   11.8   0.2   0.2   0.3   0.3   0.3   0.2   3.7   4.6   0.0   0.0   0.3   0.7   0.7   0.6   0.6  0.63  1.20  0.81  0.00  0.00   51.08   73.68    4.18    0.00    1.62
 2001 333    83   101     3    30.3   32.8   16595   21.5   11.3   0.4   0.2   0.3   0.3   0.3   0.3   3.2   4.6   0.0   0.0   0.1   0.7   0.7   0.6   0.5  0.62  1.11  0.81  0.00  0.00   51.72   74.08    4.18    0.00    1.62
 2001 334    84   101     3    30.4   31.6   16594   20.4   11.3   0.3   0.3   0.3   0.3   0.3   0.3   2.8   4.5   0.0   0.0   0.2   0.7   0.7   0.6   0.6  0.61  1.04  0.80  0.00  0.00   52.36   74.25    4.19    0.00    1.63
 2001 335    85   101     3    30.7   30.4   16594   19.3   11.2   0.3   0.3   0.3   0.3   0.3   0.3   2.4   4.5   0.0   0.0   0.3   0.7   0.7   0.6   0.6  0.61  0.97  0.80  0.00  0.00   53.01   74.43    4.20    0.00    1.63
 2001 336    86   101     3    30.7   29.6   16593   18.9   10.7   0.6   0.3   0.3   0.3   0.3   0.3   2.1   4.5   0.0   0.0   0.1   0.7   0.7   0.6   0.6  0.60  0.89  0.79  0.00  0.00   53.68   74.89    4.21    0.00    1.63
 2001 337    87   101     3    30.7   28.6   16593   18.5   10.2   0.4   0.4   0.3   0.3   0.3   0.3   1.9   4.5   0.0   0.0   0.1   0.5   0.6   0.6   0.5  0.60  0.82  0.79  0.00  0.00   54.35   75.52    4.21    0.00    1.63
 2001 338    88   101     3    30.7   27.8   16592   17.9    9.9   0.4   0.4   0.3   0.3   0.3   0.3   1.7   4.5   0.0   0.0   0.1   0.5   0.6   0.6   0.5  0.59  0.77  0.78  0.00  0.00   55.01   76.08    4.21    0.00    1.63
 2001 339    89   101     3    30.7   27.1   16591   17.4    9.7   0.3   0.4   0.3   0.3   0.3   0.3   1.5   4.5   0.0   0.0   0.2   0.5   0.6   0.6   0.5  0.59  0.72  0.78  0.00  0.00   55.65   76.55    4.21    0.00    1.63
 2001 340    90   101     3    30.7   26.6   16591   17.1    9.5   0.5   0.4   0.3   0.3   0.3   0.3   1.3   4.5   0.0   0.0   0.1   0.5   0.6   0.5   0.5  0.59  0.68  0.77  0.00  0.00   56.32   77.14    4.21    0.00    1.64
 2001 341    91   101     3    30.7   26.1   16590   16.7    9.4   0.4   0.4   0.3   0.3   0.3   0.3   1.2   4.5   0.0   0.0   0.1   0.5   0.6   0.5   0.5  0.59  0.65  0.77  0.00  0.00   57.00   77.68    4.22    0.00    1.64
 2001 342    92   101     3    30.7   25.7   16590   16.5    9.3   0.4   0.4   0.3   0.3   0.3   0.3   1.0   4.5   0.0   0.0   0.1   0.5   0.6   0.5   0.5  0.59  0.62  0.76  0.00  0.00   57.69   78.22    4.22    0.00    1.64
 2001 343    93   101     3    30.7   25.4   16589   16.2    9.2   0.4   0.4   0.3   0.3   0.3   0.3   0.9   4.6   0.0   0.0   0.1   0.5   0.6   0.5   0.5  0.59  0.60  0.76  0.00  0.00   58.37   78.76    4.22    0.00    1.64
 2001 344    94   101     3    30.7   25.1   16588   16.0    9.1   0.4   0.4   0.3   0.3   0.3   0.3   0.8   4.6   0.0   0.0   0.1   0.5   0.6   0.5   0.5  0.58  0.58  0.75  0.00  0.00   59.06   79.30    4.22    0.00    1.64
 2001 345    95   101     3    30.7   24.9   16588   15.8    9.0   0.4   0.4   0.3   0.3   0.3   0.3   0.7   4.6   0.0   0.0   0.1   0.5   0.6   0.5   0.5  0.58  0.56  0.73  0.00  0.00   59.75   79.89    4.22    0.00    1.64
 2001 346    96   101     3    30.7   24.6   16587   15.7    8.9   0.4   0.4   0.3   0.3   0.3   0.3   0.7   4.6   0.0   0.0   0.1   0.5   0.6   0.5   0.5  0.58  0.55  0.71  0.00  0.00   60.43   80.47    4.22    0.00    1.65
 2001 347    97   101     3    30.7   24.4   16586   15.6    8.8   0.4   0.4   0.3   0.3   0.3   0.3   0.6   4.6   0.0   0.0   0.1   0.5   0.6   0.5   0.5  0.58  0.53  0.69  0.00  0.00   61.11   81.05    4.22    0.00    1.65
 2001 348    98   101     3    30.7   24.3   16586   15.5    8.7   0.4   0.4   0.3   0.3   0.3   0.3   0.5   4.7   0.0   0.0   0.1   0.5   0.6   0.5   0.5  0.58  0.52  0.67  0.00  0.00   61.81   81.66    4.22    0.00    1.65
 2001 349    99   101     3    30.7   24.1   16585   15.5    8.6   0.4   0.4   0.3   0.3   0.3   0.3   0.5   4.7   0.0   0.0   0.1   0.5   0.6   0.5   0.5  0.58  0.51  0.66  0.00  0.00   62.51   82.30    4.22    0.00    1.65
 2001 350   100   101     3    30.7   23.4   16584   14.9    8.5   0.4   0.4   0.3   0.3   0.3   0.3   0.4   4.5   0.0   0.0   0.1   0.5   0.6   0.5   0.5  0.57  0.50  0.63  0.00  0.00   63.19   82.94    4.22    0.00    1.65
 2001 351   101   101     3    30.7   22.6   16584   14.2    8.4   0.4   0.4   0.3   0.3   0.3   0.3   0.4   4.2   0.0   0.0   0.1   0.4   0.6   0.5   0.5  0.57  0.50  0.61  0.00  0.00   63.85   83.56    4.22    0.00    1.65
 2001 352   102   101     3    30.7   21.7   16583   13.5    8.2   0.4   0.4   0.3   0.3   0.3   0.3   0.4   4.0   0.0   0.0   0.1   0.4   0.6   0.5   0.5  0.57  0.49  0.58  0.00  0.00   64.47   84.17    4.22    0.00    1.66
 2001 353   103   101     3    30.7   21.0   16583   12.9    8.1   0.2   0.4   0.4   0.3   0.3   0.3   0.3   3.7   0.0   0.0   0.1   0.4   0.6   0.5   0.5  0.57  0.48  0.56  0.00  0.00   65.07   84.77    4.22    0.00    1.66
 2001 354   104   101     3    30.7   20.4   16582   12.1    8.3   0.2   0.3   0.3   0.3   0.3   0.3   0.3   3.5   0.0   0.0   0.2   0.5   0.6   0.5   0.5  0.57  0.48  0.54  0.00  0.00   65.79   85.17    4.22    0.00    1.66
 2001 355   105   101     3    30.7   20.0   16581   11.7    8.2   0.2   0.4   0.3   0.3   0.3   0.3   0.3   3.3   0.0   0.0   0.3   0.5   0.6   0.5   0.5  0.57  0.47  0.53  0.00  0.00   66.53   85.80    4.22    0.00    1.66
 2001 356   106   101     3    30.7   19.6   16581   11.0    8.6   0.2   0.3   0.3   0.3   0.3   0.3   0.3   3.1   0.0   0.0   0.4   0.6   0.7   0.5   0.5  0.56  0.46  0.51  0.00  0.00   67.27   86.07    4.22    0.00    1.66
 2001 357   107   101     3    30.7   19.3   16580   10.8    8.5   0.8   0.3   0.3   0.3   0.3   0.3   0.3   2.9   0.0   0.0   0.0   0.7   0.7   0.6   0.5  0.56  0.46  0.50  0.00  0.00   68.02   86.64    4.22    0.00    1.67
 2001 358   108   101     3    30.7   18.6   16579   10.5    8.2   0.3   0.5   0.3   0.3   0.3   0.3   0.3   2.8   0.0   0.0   0.2   0.5   0.6   0.5   0.5  0.56  0.45  0.48  0.00  0.00   68.76   87.27    4.22    0.00    1.67
 2001 359   109   101     3    30.7   18.1   16579   10.1    8.1   0.4   0.4   0.3   0.3   0.3   0.3   0.3   2.6   0.0   0.0   0.1   0.5   0.6   0.5   0.5  0.56  0.44  0.47  0.00  0.00   69.49   87.91    4.22    0.00    1.67
 2001 360   110   101     3    30.7   17.7   16578    9.7    8.0   0.4   0.4   0.3   0.3   0.3   0.3   0.3   2.4   0.0   0.0   0.1   0.5   0.6   0.5   0.5  0.56  0.44  0.46  0.00  0.00   70.21   88.51    4.22    0.00    1.67
 2001 361   111   101     3    30.7   17.3   16577    9.4    7.9   0.4   0.4   0.3   0.3   0.3   0.3   0.3   2.3   0.0   0.0   0.1   0.5   0.6   0.5   0.5  0.56  0.43  0.45  0.00  0.00   70.98   89.17    4.22    0.00    1.67
 2001 362   112   101     3    30.7   17.0   16577    9.1    7.9   0.4   0.4   0.3   0.3   0.3   0.3   0.3   2.2   0.0   0.0   0.1   0.5   0.6   0.5   0.5  0.56  0.43  0.43  0.00  0.00   71.78   89.86    4.22    0.00    1.68
 2001 363   113   101     3    30.7   16.6   16576    8.9    7.8   0.4   0.4   0.3   0.3   0.3   0.3   0.3   2.0   0.0   0.0   0.1   0.5   0.6   0.5   0.5  0.56  0.42  0.42  0.00  0.00   72.57   90.58    4.22    0.00    1.68
 2001 364   114   101     3    30.7   16.3   16575    8.6    7.7   0.3   0.5   0.3   0.3   0.3   0.3   0.3   1.9   0.0   0.0   0.1   0.4   0.6   0.5   0.5  0.56  0.41  0.41  0.00  0.00   73.35   91.30    4.22    0.00    1.68
 2001 365   115   101     3    30.7   15.9   16574    8.1    7.9   0.3   0.3   0.3   0.3   0.3   0.3   0.3   1.8   0.0   0.0   0.3   0.6   0.6   0.5   0.5  0.56  0.41  0.40  0.00  0.00   74.15   91.77    4.22    0.00    1.68
 2002 001   116   101     3    30.7   15.8   16574    8.3    7.5   0.7   0.5   0.3   0.3   0.3   0.3   0.3   1.7   0.0   0.0   0.0   0.5   0.6   0.5   0.5  0.55  0.40  0.39  0.00  0.00   74.95   92.69    4.22    0.00    1.68
 2002 002   117   101     3    30.7   15.3   16573    7.8    7.5   0.2   0.4   0.3   0.3   0.3   0.3   0.3   1.6   0.0   0.0   0.2   0.5   0.6   0.5   0.5  0.55  0.40  0.38  0.00  0.00   75.72   93.30    4.22    0.00    1.68
 2002 003   118   101     3    30.7   15.1   16572    7.7    7.4   0.6   0.4   0.3   0.3   0.3   0.3   0.3   1.5   0.0   0.0   0.0   0.5   0.6   0.5   0.5  0.55  0.39  0.37  0.00  0.00   76.45   94.06    4.22    0.00    1.68
 2002 004   119   101     3    30.7   14.7   16572    7.4    7.3   0.3   0.4   0.3   0.3   0.3   0.3   0.3   1.4   0.0   0.0   0.1   0.4   0.6   0.5   0.5  0.55  0.39  0.36  0.00  0.00   77.13   94.67    4.22    0.00    1.69
 2002 005   120   101     3    30.7   14.4   16571    7.2    7.2   0.4   0.5   0.3   0.3   0.3   0.3   0.3   1.4   0.0   0.0   0.1   0.4   0.5   0.5   0.5  0.55  0.38  0.35  0.00  0.00   77.77   95.34    4.22    0.00    1.69
 2002 006   121   101     3    30.7   14.1   16571    6.8    7.4   0.2   0.3   0.4   0.3   0.3   0.3   0.3   1.3   0.0   0.0   0.2   0.6   0.5   0.5   0.5  0.55  0.38  0.34  0.00  0.00   78.41   95.72    4.22    0.00    1.69
 2002 007   122   101     3    30.7   14.1   16570    6.6    7.5   0.2   0.3   0.3   0.3   0.3   0.3   0.3   1.2   0.0   0.0   0.3   0.6   0.6   0.5   0.5  0.55  0.37  0.33  0.00  0.00   79.08   96.12    4.22    0.00    1.69
 2002 008   123   101     3    30.7   14.0   16569    6.8    7.2   0.6   0.4   0.3   0.3   0.3   0.3   0.3   1.1   0.0   0.0   0.1   0.5   0.6   0.5   0.5  0.55  0.37  0.32  0.00  0.00   79.71   96.87    4.22    0.00    1.69
 2002 009   124   101     3    30.7   13.6   16569    6.4    7.1   0.3   0.4   0.3   0.3   0.3   0.3   0.3   1.1   0.0   0.0   0.1   0.5   0.6   0.5   0.5  0.55  0.36  0.31  0.00  0.00   80.34   97.40    4.22    0.00    1.70
 2002 010   125   101     3    30.7   13.4   16568    6.3    7.1   0.4   0.4   0.3   0.3   0.3   0.3   0.3   1.0   0.0   0.0   0.1   0.5   0.6   0.5   0.4  0.55  0.36  0.31  0.00  0.00   80.94   97.97    4.22    0.00    1.70
 2002 011   126   101     3    30.7   13.2   16568    6.2    7.0   0.4   0.4   0.3   0.3   0.3   0.3   0.3   1.0   0.0   0.0   0.1   0.5   0.5   0.4   0.4  0.54  0.36  0.30  0.00  0.00   81.53   98.56    4.22    0.00    1.70
 2002 012   127   101     3    30.7   13.0   16567    6.1    6.8   0.2   0.4   0.4   0.3   0.3   0.3   0.3   0.9   0.0   0.0   0.1   0.4   0.5   0.4   0.4  0.54  0.35  0.29  0.00  0.00   82.10   99.16    4.22    0.00    1.70
 2002 013   128   101     3    30.7   12.9   16567    5.9    7.0   0.2   0.4   0.4   0.3   0.3   0.3   0.3   0.9   0.0   0.0   0.2   0.4   0.6   0.4   0.4  0.54  0.35  0.28  0.00  0.00   82.85   99.71    4.22    0.00    1.71
 2002 014   129   101     3    30.7   12.9   16566    5.9    7.0   0.6   0.3   0.3   0.3   0.3   0.3   0.3   0.8   0.0   0.0   0.0   0.6   0.6   0.4   0.4  0.54  0.34  0.28  0.00  0.00   83.63  100.36    4.22    0.00    1.71
 2002 015   130   101     3    30.7   12.8   16565    5.9    6.9   0.4   0.5   0.3   0.3   0.3   0.3   0.3   0.8   0.0   0.0   0.2   0.5   0.6   0.4   0.4  0.54  0.34  0.27  0.00  0.00   84.39  100.97    4.22    0.00    1.71
 2002 016   131   101     3    30.7   12.6   16565    5.8    6.8   0.5   0.4   0.3   0.3   0.3   0.3   0.3   0.7   0.0   0.0   0.1   0.5   0.6   0.4   0.4  0.54  0.33  0.26  0.00  0.00   85.13  101.67    4.22    0.00    1.71
 2002 017   132   101     3    30.7   12.4   16564    5.6    6.8   0.4   0.4   0.3   0.3   0.3   0.3   0.3   0.7   0.0   0.0   0.1   0.5   0.6   0.4   0.4  0.54  0.33  0.26  0.00  0.00   85.83  102.24    4.22    0.00    1.71
 2002 018   133   101     3    30.7   12.2   16563    5.5    6.7   0.4   0.4   0.3   0.3   0.3   0.3   0.3   0.7   0.0   0.0   0.1   0.5   0.6   0.4   0.4  0.54  0.33  0.25  0.00  0.00   86.48  102.80    4.22    0.00    1.71
 2002 019   134   101     3    30.7   12.0   16563    5.4    6.7   0.4   0.4   0.3   0.3   0.3   0.3   0.3   0.6   0.0   0.0   0.1   0.5   0.6   0.4   0.4  0.54  0.32  0.24  0.00  0.00   87.07  103.32    4.22    0.00    1.72
 2002 020   135   101     3    30.7   11.9   16562    5.3    6.6   0.4   0.4   0.3   0.3   0.3   0.3   0.3   0.6   0.0   0.0   0.1   0.5   0.6   0.4   0.4  0.54  0.32  0.24  0.00  0.00   87.63  103.86    4.22    0.00    1.72
 2002 021   136   101     3    30.7   11.8   16562    5.3    6.5   0.4   0.4   0.3   0.3   0.3   0.3   0.3   0.6   0.0   0.0   0.1   0.4   0.6   0.4   0.4  0.54  0.32  0.23  0.00  0.00   88.21  104.43    4.22    0.00    1.72
 2002 022   137   101     3    30.7   11.6   16561    5.2    6.4   0.2   0.4   0.4   0.3   0.3   0.3   0.3   0.5   0.0   0.0   0.1   0.4   0.5   0.4   0.4  0.54  0.31  0.23  0.00  0.00   88.78  105.02    4.22    0.00    1.72
 2002 023   138   101     3    30.7   11.6   16561    5.0    6.6   0.4   0.3   0.3   0.3   0.3   0.3   0.3   0.5   0.0   0.0   0.1   0.5   0.6   0.4   0.4  0.54  0.31  0.22  0.00  0.00   89.53  105.47    4.22    0.00    1.73
 2002 024   139   101     3    30.7   11.7   16560    5.3    6.5   0.2   0.4   0.3   0.4   0.3   0.3   0.3   0.5   0.0   0.0   0.1   0.5   0.6   0.4   0.4  0.54  0.30  0.22  0.00  0.00   90.30  106.20    4.22    0.00    1.73
 2002 025   140   101     3    30.7   11.8   16559    4.8    7.0   0.3   0.3   0.3   0.3   0.3   0.3   0.3   0.5   0.0   0.0   0.3   0.6   0.7   0.5   0.4  0.54  0.30  0.21  0.00  0.00   91.15  106.43    4.22    0.00    1.73
 2002 026   141   101     3    30.7   12.0   16559    5.2    6.8   0.7   0.5   0.3   0.3   0.3   0.3   0.3   0.5   0.0   0.0   0.0   0.5   0.7   0.5   0.4  0.54  0.30  0.21  0.00  0.00   92.00  107.14    4.22    0.00    1.73
 2002 027   142   101     3    30.7   11.8   16558    5.0    6.8   0.2   0.5   0.4   0.3   0.3   0.3   0.3   0.4   0.0   0.0   0.2   0.5   0.6   0.5   0.4  0.54  0.29  0.20  0.00  0.00   92.84  107.74    4.22    0.00    1.73
 2002 028   143   101     3    30.7   11.8   16557    4.9    6.8   0.3   0.4   0.3   0.3   0.3   0.3   0.3   0.4   0.0   0.0   0.3   0.5   0.6   0.5   0.4  0.54  0.29  0.20  0.00  0.00   93.65  108.32    4.22    0.00    1.73
 2002 029   144   101     3    30.7   11.8   16557    5.2    6.7   0.7   0.4   0.3   0.3   0.3   0.3   0.3   0.4   0.0   0.0   0.0   0.5   0.6   0.5   0.4  0.54  0.29  0.19  0.00  0.00   94.45  109.13    4.22    0.00    1.74
 2002 030   145   101     3    30.7   11.6   16556    4.9    6.8   0.0   0.2   0.3   0.3   0.3   0.3   0.3   0.4   0.0   0.0   0.2   0.5   0.6   0.5   0.4  0.54  0.29  0.19  0.00  0.00   95.27  109.69    4.22    0.00    1.74
 2002 031   146   101     3    30.7   12.5   16555    5.2    7.4   0.3   0.2   0.4   0.3   0.3   0.3   0.3   0.4   0.0   0.0   0.1   0.6   0.8   0.6   0.5  0.56  0.28  0.18  0.00  0.00   96.18  110.00    4.22    0.00    1.74
 2002 032   147   101     3    30.7   13.5   16554    5.4    8.0   0.4   0.2   0.4   0.3   0.3   0.3   0.3   0.4   0.0   0.0   0.1   0.8   0.9   0.6   0.5  0.58  0.28  0.18  0.00  0.00   97.13  110.27    4.22    0.00    1.74
 2002 033   148   101     3    30.7   14.4   16554    6.3    8.2   0.7   0.5   0.5   0.3   0.3   0.4   0.3   0.4   0.0   0.0   0.1   0.6   0.9   0.7   0.5  0.61  0.29  0.18  0.00  0.00   98.09  111.07    4.22    0.00    1.75

*DSSAT Cropping System Model Ver. 4.0.2.000               Aug 12, 2016; 12:55:20

*RUN   3        : UYMZ                    
 MODEL          : MZCER040 - Maize           
 EXPERIMENT     : UYMZ0197 MZ    late to create DSS                             
 TREATMENT  1   : UYMZ                    

@YEAR DOY   DAS  NAPC  NI#M    NLCC   NIAD    NOAD   NITD   NHTD  NI1D  NI2D  NI3D  NI4D  NI5D  NI6D  NI7D  NI8D  NI9D  NI10  NH1D  NH2D  NH3D  NH4D  NH5D  NH6D  NH7D  NH8D  NH9D  NH10    NMNC    NITC    NDNC    NIMC    AMLC
 2002 250     0     0     0     0.0   99.2   16646   76.2   23.0  15.8  15.2  15.1   8.6   4.6   0.0   0.1   0.1   0.0   0.0   0.7   1.4   1.5   1.4   1.5  1.50  1.47  1.46  0.00  0.00    0.44    1.43    0.00    0.00    0.00
 2002 251     1     0     0     0.0   99.7   16645   77.4   22.3  16.5  15.3  15.2   8.7   4.6   0.0   0.1   0.1   0.0   0.0   0.4   1.2   1.4   1.4   1.4  1.51  1.43  1.41  0.00  0.00    0.89    2.59    0.00    0.00    0.00
 2002 252     2     0     0     0.0  100.1   16645   78.4   21.7  17.2  15.3  15.3   8.7   4.7   0.1   0.1   0.2   0.0   0.0   0.2   1.1   1.4   1.4   1.4  1.51  1.40  1.37  0.00  0.00    1.34    3.61    0.00    0.00    0.00
 2002 253     3     0     0     0.0  100.6   16644   79.4   21.2  11.0  15.8  16.4   9.3   5.0   0.1   0.2   0.2   0.0   0.0   0.2   1.0   1.4   1.3   1.3  1.51  1.37  1.33  0.00  0.00    1.81    4.58    0.00    0.00    0.00
 2002 254     4     1     1     0.5  101.5   16644   79.8   21.8   4.1   8.9  13.1   9.7   8.7   2.4   0.2   0.2   0.0   0.0   1.0   1.1   1.5   1.3   1.3  1.52  1.34  1.29  0.00  0.00    2.29    4.92    0.00    0.00    0.05
 2002 255     5     1     1     0.6  101.8   16643   79.8   22.0   4.1   8.7  12.8   9.3   8.5   2.7   0.5   0.3   0.0   0.0   0.9   1.1   1.5   1.4   1.4  1.54  1.35  1.29  0.00  0.00    2.78    5.10    0.00    0.00    0.10
 2002 256     6     1     1     0.7  102.1   16643   80.2   21.9   4.8   8.6  12.6   9.1   8.4   2.8   0.7   0.3   0.0   0.0   0.1   1.2   1.6   1.4   1.4  1.56  1.35  1.28  0.00  0.00    3.28    5.61    0.00    0.00    0.23
 2002 257     7     1     1     0.8  102.5   16642   80.6   21.9   5.1   8.7  12.5   9.0   8.3   2.9   0.8   0.3   0.0   0.0   0.0   1.1   1.7   1.4   1.4  1.57  1.35  1.27  0.00  0.00    3.80    6.07    0.00    0.00    0.31
 2002 258     8     1     1     0.8  102.9   16642   81.0   22.0   5.4   8.8  12.5   8.9   8.3   2.9   0.8   0.4   0.0   0.0   0.1   1.0   1.7   1.4   1.4  1.59  1.35  1.26  0.00  0.00    4.32    6.48    0.06    0.00    0.31
 2002 259     9     1     1     0.8  103.4   16641   81.5   21.9   5.7   8.8  12.6   8.9   8.3   2.9   0.9   0.4   0.0   0.0   0.1   0.9   1.7   1.4   1.4  1.60  1.35  1.25  0.00  0.00    4.83    7.09    0.09    0.00    0.33
 2002 260    10     1     1     0.8  103.8   16641   82.1   21.8   6.0   8.9  12.8   8.9   8.3   2.9   0.9   0.4   0.0   0.0   0.1   0.8   1.6   1.4   1.4  1.61  1.34  1.24  0.00  0.00    5.35    7.67    0.11    0.00    0.35
 2002 261    11     1     1     0.8  104.3   16640   82.6   21.7   3.8   8.4  13.2   9.3   8.5   3.0   0.9   0.4   0.0   0.0   0.1   0.8   1.6   1.4   1.4  1.63  1.34  1.23  0.00  0.00    5.87    8.24    0.12    0.00    0.37
 2002 262    12     1     1     0.8  104.7   16640   82.7   22.0   3.5   8.3  13.0   9.3   8.6   3.0   1.0   0.4   0.0   0.0   0.1   0.8   1.7   1.4   1.4  1.64  1.34  1.22  0.00  0.00    6.39    8.45    0.20    0.00    0.39
 2002 263    13     1     1     0.9  105.0   16639   82.8   22.2   3.6   8.2  12.8   9.2   8.5   3.2   1.1   0.5   0.0   0.0   0.1   0.9   1.7   1.5   1.4  1.66  1.34  1.21  0.00  0.00    6.91    8.70    0.30    0.00    0.41
 2002 264    14     1     1     1.0  105.4   16639   82.9   22.5   3.8   8.1  12.7   9.1   8.4   3.3   1.2   0.5   0.0   0.0   0.1   1.0   1.8   1.5   1.4  1.67  1.34  1.20  0.00  0.00    7.43    8.97    0.35    0.00    0.42
 2002 265    15     1     1     1.0  105.9   16638   83.3   22.6   4.1   8.1  12.7   9.0   8.4   3.3   1.2   0.6   0.0   0.0   0.1   0.9   1.9   1.5   1.4  1.68  1.33  1.19  0.00  0.00    7.94    9.41    0.39    0.00    0.42
 2002 266    16     1     1     1.0  106.2   16638   83.8   22.4   4.3   8.1  12.8   9.0   8.4   3.3   1.2   0.6   0.0   0.0   0.1   0.8   1.8   1.5   1.5  1.70  1.33  1.18  0.00  0.00    8.47   10.05    0.41    0.00    0.42
 2002 267    17     1     1     1.0  106.7   16637   84.4   22.4   4.6   8.1  12.9   9.0   8.4   3.3   1.3   0.6   0.0   0.0   0.1   0.8   1.7   1.5   1.5  1.71  1.33  1.17  0.00  0.00    9.00   10.67    0.42    0.00    0.42
 2002 268    18     1     1     1.0  107.2   16637   85.0   22.3   4.9   8.2  13.0   9.0   8.4   3.3   1.3   0.6   0.0   0.0   0.1   0.7   1.7   1.5   1.5  1.72  1.33  1.16  0.00  0.00    9.54   11.29    0.43    0.00    0.43
 2002 269    19     1     1     1.0  107.8   16636   85.6   22.2   5.2   8.3  13.1   9.1   8.5   3.4   1.3   0.6   0.0   0.0   0.1   0.7   1.6   1.5   1.5  1.74  1.33  1.15  0.00  0.00   10.12   11.94    0.44    0.00    0.43
 2002 270    20     1     1     1.0  108.4   16635   86.4   22.0   5.5   8.4  13.3   9.2   8.5   3.4   1.3   0.6   0.0   0.0   0.1   0.6   1.6   1.4   1.5  1.75  1.32  1.14  0.00  0.00   10.74   12.76    0.45    0.00    0.43
 2002 271    21     1     1     1.0  109.0   16635   87.2   21.8   5.8   8.5  13.4   9.3   8.5   3.4   1.3   0.7   0.0   0.0   0.1   0.6   1.6   1.4   1.5  1.77  1.32  1.13  0.00  0.00   11.38   13.59    0.46    0.00    0.44
 2002 272    22     1     1     1.0  109.6   16634   88.0   21.6   2.5   6.5  12.4   9.9   9.2   4.1   1.6   0.7   0.0   0.0   0.1   0.6   1.5   1.3   1.5  1.78  1.32  1.12  0.00  0.00   12.08   14.46    0.47    0.00    0.44
 2002 273    23     1     1     1.4  109.8   16633   87.7   22.1   2.5   6.4  12.2   9.6   9.0   4.2   1.8   0.9   0.0   0.0   0.2   0.7   1.6   1.3   1.5  1.80  1.32  1.11  0.00  0.00   12.75   14.66    0.62    0.00    0.46
 2002 274    24     1     1     1.6  110.0   16633   87.7   22.4   2.7   6.3  12.0   9.5   8.9   4.2   2.0   1.0   0.0   0.0   0.0   0.8   1.7   1.4   1.5  1.82  1.32  1.10  0.00  0.00   13.41   14.99    0.71    0.00    0.50
 2002 275    25     1     1     1.6  110.5   16632   88.0   22.5   1.6   5.4  11.3   9.7   9.3   4.6   2.2   1.0   0.0   0.0   0.1   0.7   1.8   1.4   1.5  1.83  1.32  1.10  0.00  0.00   14.05   15.45    0.76    0.00    0.51
 2002 276    26     1     1     2.0  110.5   16631   87.6   22.9   1.7   5.3  11.1   9.4   9.0   4.6   2.3   1.2   0.0   0.0   0.1   0.8   1.8   1.4   1.6  1.85  1.32  1.09  0.00  0.00   14.68   15.70    0.90    0.00    0.54
 2002 277    27     1     1     2.3  110.2   16631   87.1   23.1   1.9   5.2  10.8   9.2   8.9   4.7   2.4   1.2   0.0   0.0   0.1   0.9   1.9   1.4   1.6  1.86  1.32  1.08  0.00  0.00   15.28   15.98    1.11    0.00    0.56
 2002 278    28     1     1     2.4  110.3   16630   87.0   23.2   2.1   5.2  10.7   9.1   8.8   4.7   2.5   1.3   0.0   0.0   0.1   0.8   2.0   1.4   1.6  1.88  1.32  1.07  0.00  0.00   15.92   16.49    1.21    0.00    0.58
 2002 279    29     1     1     5.2  107.6   16629   84.6   23.0   0.7   2.7   7.5   7.6   8.4   5.8   3.8   2.3   0.0   0.0   0.1   0.7   1.9   1.4   1.6  1.89  1.32  1.06  0.00  0.00   16.57   17.27    1.26    0.00    0.60
 2002 280    30     1     1     5.7  106.9   16629   83.5   23.4   0.6   2.4   6.9   7.4   8.2   5.9   4.0   2.4   0.0   0.0   0.1   0.8   1.9   1.5   1.6  1.91  1.32  1.06  0.00  0.00   17.24   17.50    1.53    0.00    0.62
 2002 281    31     1     1     6.3  106.1   16628   82.4   23.7   0.4   2.1   6.4   7.1   8.1   6.0   4.1   2.6   0.0   0.0   0.2   0.9   1.9   1.5   1.6  1.93  1.33  1.06  0.00  0.00   17.90   17.69    1.80    0.00    0.63
 2002 282    32     1     1     8.0  104.4   16627   80.4   24.0   0.4   1.7   5.4   6.5   7.7   6.1   4.5   2.9   0.0   0.0   0.1   0.9   2.0   1.5   1.6  1.95  1.33  1.05  0.00  0.00   18.54   17.97    2.07    0.00    0.67
 2002 283    33    31     2     8.4  134.0   16627   94.7   39.3  27.5   1.6   5.2   6.4   7.6   6.0   4.5   3.0   0.0   0.0  27.0   1.0   2.0   1.5   1.7  1.96  1.34  1.05  0.00  0.00   19.16   18.18    2.33    0.00    0.73
 2002 284    34    31     2     9.8  132.5   16626  107.0   25.5  52.5   1.6   5.0   6.1   7.3   5.9   4.5   3.1   0.0   0.0   1.5   1.1   2.1   1.6   1.7  1.98  1.34  1.05  0.00  0.00   19.76   32.34    2.66    0.00    0.79
 2002 285    35    31     2    10.7  131.6   16626  106.6   25.0  53.4   1.6   4.9   5.9   7.1   5.9   4.5   3.2   0.0   0.0   0.2   1.2   2.2   1.6   1.7  1.99  1.34  1.05  0.00  0.00   20.35   33.32    2.85    0.00    0.86
 2002 286    36    31     2    11.1  130.6   16625  105.8   24.8  52.3   1.8   4.8   5.9   7.0   5.8   4.5   3.2   0.0   0.0   0.0   1.0   2.2   1.6   1.7  2.01  1.34  1.04  0.00  0.00   20.98   33.93    2.95    0.00    0.95
 2002 287    37    31     2    11.4  129.4   16624  104.9   24.5  50.4   2.0   4.9   5.9   7.0   5.8   4.5   3.2   0.0   0.0   0.1   0.8   2.0   1.6   1.7  2.02  1.34  1.03  0.00  0.00   21.65   34.80    3.00    0.00    0.95
 2002 288    38    31     2    11.5  128.0   16624  103.9   24.1  25.0  11.8   5.7   6.0   7.1   5.8   4.6   3.2   0.0   0.0   0.1   0.7   1.8   1.6   1.7  2.04  1.34  1.02  0.00  0.00   22.37   35.80    3.03    0.00    0.98
 2002 289    39    31     2    12.1  126.3   16623  101.9   24.4  23.6  11.3   5.5   5.8   7.0   5.8   4.6   3.3   0.0   0.0   0.2   0.8   1.9   1.6   1.7  2.05  1.34  1.02  0.00  0.00   23.16   36.09    3.13    0.00    0.99
 2002 290    40    31     2    12.5  124.7   16622  100.2   24.5  22.5  10.8   5.3   5.6   6.9   5.9   4.7   3.4   0.0   0.0   0.0   0.9   1.9   1.6   1.7  2.07  1.34  1.01  0.00  0.00   23.93   36.59    3.19    0.00    1.03
 2002 291    41    31     2    12.5  122.6   16621   98.2   24.4  21.2  10.2   5.1   5.5   6.9   5.9   4.7   3.4   0.0   0.0   0.1   0.8   1.9   1.6   1.7  2.08  1.33  1.00  0.00  0.00   24.67   37.22    3.23    0.00    1.03
 2002 292    42    31     2    17.3  114.6   16621   90.8   23.8   3.2   8.1   6.2   5.0   6.4   6.2   5.4   4.3   0.0   0.0   0.0   0.6   1.7   1.6   1.7  2.09  1.33  0.99  0.00  0.00   25.37   38.14    3.25    0.00    1.06
 2002 293    43    31     2    19.2  111.8   16620   87.7   24.2   3.0   7.7   5.9   4.8   6.1   6.0   5.3   4.2   0.0   0.0   0.2   0.7   1.7   1.6   1.7  2.11  1.34  0.99  0.00  0.00   26.03   38.32    3.50    0.00    1.07
 2002 294    44    31     2    20.4  109.4   16619   85.1   24.3   2.8   7.2   5.5   4.6   6.0   5.9   5.2   4.2   0.0   0.0   0.1   0.8   1.7   1.5   1.8  2.13  1.34  0.98  0.00  0.00   26.68   38.65    3.65    0.00    1.10
 2002 295    45    31     2    21.0  106.6   16619   82.6   24.0   2.7   6.5   5.0   4.3   5.9   5.8   5.2   4.2   0.0   0.0   0.1   0.7   1.7   1.5   1.8  2.14  1.34  0.98  0.00  0.00   27.30   39.12    3.73    0.00    1.12
[...]
 2010 307    57    31     2     1.3  122.0   16612  103.6   18.4  17.5  14.1  11.4   9.8   9.4   3.4   2.4   1.3   0.0   0.0   0.1   0.5   0.9   0.6   0.7  2.18  1.26  0.85  0.00  0.00   34.13   53.22    0.67    0.00    1.21
 2010 308    58    31     2     1.3  118.9   16611  100.7   18.2  16.5  13.3  10.8   9.6   9.2   3.4   2.4   1.3   0.0   0.0   0.1   0.5   0.9   0.6   0.7  2.18  1.26  0.84  0.00  0.00   34.76   53.92    0.67    0.00    1.23
 2010 309    59    31     2     1.3  115.8   16611   97.7   18.1  15.6  12.6  10.2   9.4   9.1   3.5   2.4   1.3   0.0   0.0   0.1   0.4   0.9   0.6   0.6  2.17  1.26  0.84  0.00  0.00   35.43   54.66    0.67    0.00    1.24
 2010 310    60    31     2     1.3  111.5   16610   93.6   17.9   6.0  13.0  11.1   9.1   8.8   3.5   2.4   1.4   0.0   0.0   0.1   0.4   0.8   0.6   0.6  2.17  1.25  0.83  0.00  0.00   36.07   55.40    0.68    0.00    1.26
 2010 311    61    31     2     1.3  108.0   16609   90.0   18.0   5.5  12.0  10.4   8.8   8.6   3.5   2.4   1.4   0.0   0.0   0.1   0.5   0.8   0.6   0.6  2.16  1.25  0.82  0.00  0.00   36.84   55.99    0.68    0.00    1.27
 2010 312    62    31     2     1.3  103.7   16608   85.9   17.9   2.8   9.3  10.8   8.7   8.3   3.5   2.4   1.4   0.0   0.0   0.1   0.5   0.8   0.6   0.6  2.16  1.25  0.82  0.00  0.00   37.63   56.82    0.68    0.00    1.30
 2010 313    63    31     2     1.3   98.5   16608   80.5   18.1   2.5   8.0   9.4   8.3   7.9   3.6   2.4   1.4   0.0   0.0   0.1   0.6   0.9   0.5   0.6  2.15  1.25  0.81  0.00  0.00   38.45   57.32    0.68    0.00    1.31
 2010 314    64    31     2     1.3   98.1   16607   80.0   18.0   2.4   8.0   9.2   8.3   7.8   3.6   2.4   1.4   0.0   0.0   0.2   0.6   0.9   0.5   0.6  2.15  1.25  0.81  0.00  0.00   39.21   58.07    0.68    0.00    1.33
 2010 315    65    31     2     1.3   94.2   16606   76.4   17.8   2.4   7.2   8.2   8.0   7.5   3.6   2.5   1.4   0.0   0.0   0.0   0.5   0.9   0.5   0.6  2.14  1.25  0.80  0.00  0.00   39.94   58.89    0.68    0.00    1.38
 2010 316    66    31     2     1.3   91.5   16606   73.7   17.8   2.2   6.6   7.4   7.8   7.3   3.6   2.5   1.4   0.0   0.0   0.1   0.5   0.9   0.5   0.6  2.13  1.25  0.80  0.00  0.00   40.63   59.53    0.69    0.00    1.38
 2010 317    67    31     2     1.3   88.7   16605   71.1   17.6   2.2   6.0   6.7   7.5   7.1   3.6   2.5   1.4   0.0   0.0   0.1   0.5   0.9   0.5   0.6  2.12  1.24  0.79  0.00  0.00   41.27   60.17    0.69    0.00    1.41
 2010 318    68    31     2     1.3   84.9   16604   67.5   17.4   2.0   5.3   5.9   7.2   6.8   3.6   2.5   1.4   0.0   0.0   0.1   0.5   0.8   0.5   0.6  2.09  1.24  0.78  0.00  0.00   41.84   60.71    0.69    0.00    1.43
 2010 319    69    31     2     1.3   82.4   16604   65.2   17.3   1.9   4.9   5.4   7.0   6.6   3.6   2.5   1.4   0.0   0.0   0.1   0.5   0.8   0.5   0.6  2.07  1.24  0.78  0.00  0.00   42.42   61.28    0.69    0.00    1.44
 2010 320    70    31     2     1.3   78.9   16603   61.9   17.0   1.7   4.3   4.7   6.7   6.3   3.5   2.5   1.5   0.0   0.0   0.1   0.5   0.8   0.5   0.6  2.03  1.24  0.77  0.00  0.00   42.99   61.85    0.69    0.00    1.46
 2010 321    71    31     2     1.3   74.3   16603   57.6   16.7   1.5   3.5   3.8   6.2   5.9   3.4   2.5   1.5   0.0   0.0   0.1   0.5   0.8   0.5   0.6  1.97  1.24  0.77  0.00  0.00   43.55   62.42    0.70    0.00    1.48
 2010 322    72    31     2     1.3   70.0   16602   53.7   16.3   1.3   2.9   3.1   5.8   5.5   3.3   2.5   1.5   0.0   0.0   0.1   0.5   0.7   0.5   0.5  1.91  1.24  0.76  0.00  0.00   44.10   62.99    0.70    0.00    1.50
 2010 323    73   101     3     1.3  135.1   16602   84.5   50.7  63.7   2.1   2.8   5.3   5.1   3.1   2.5   1.5   0.0   0.0  62.9   0.4   0.7   0.5   0.5  1.83  1.24  0.76  0.00  0.00   44.63   63.56    0.70    0.00    1.57
 2010 324    74   101     3     1.3  133.6   16601   89.1   44.5  71.6   2.5   2.8   5.3   5.0   3.1   2.6   1.5   0.0   0.0  51.6   0.5   0.7   0.5   0.5  1.81  1.24  0.75  0.00  0.00   45.28   69.57    0.70    0.00    1.61
 2010 325    75   101     3     1.3  127.9   16600  112.1   15.8 114.3   2.5   2.7   5.2   4.9   3.1   2.6   1.5   0.0   0.0   0.0   0.5   0.8   0.5   0.5  1.79  1.23  0.75  0.00  0.00   45.96   96.70    0.70    0.00    1.65
 2010 326    76   101     3     1.3  121.4   16600  105.7   15.7 104.3   2.4   2.5   5.1   4.8   3.0   2.6   1.5   0.0   0.0   0.2   0.5   0.8   0.5   0.5  1.76  1.23  0.74  0.00  0.00   46.66   97.29    0.70    0.00    1.65
 2010 327    77   101     3     1.3  115.9   16599  100.4   15.5  96.1   2.3   2.4   5.0   4.7   3.0   2.6   1.5   0.0   0.0   0.1   0.5   0.8   0.5   0.5  1.73  1.23  0.74  0.00  0.00   47.35   98.01    0.70    0.00    1.68
 2010 328    78   101     3     1.3  111.7   16598   96.2   15.4  89.6   2.3   2.4   4.9   4.6   3.0   2.6   1.5   0.0   0.0   0.1   0.5   0.8   0.5   0.5  1.71  1.23  0.74  0.00  0.00   48.03   98.64    0.71    0.00    1.69
 2010 329    79   101     3     1.3  106.7   16598   91.4   15.2  82.3   2.3   2.3   4.8   4.5   2.9   2.6   1.5   0.0   0.0   0.1   0.5   0.8   0.5   0.5  1.68  1.23  0.73  0.00  0.00   48.72   99.33    0.71    0.00    1.71
 2010 330    80   101     3     1.3   99.0   16597   84.0   15.0  71.5   2.1   2.1   4.6   4.3   2.8   2.6   1.5   0.0   0.0   0.1   0.5   0.8   0.5   0.5  1.64  1.23  0.73  0.00  0.00   49.36   99.98    0.71    0.00    1.73
 2010 331    81   101     3     1.3   91.6   16597   76.9   14.7  61.2   2.1   1.9   4.4   4.2   2.7   2.6   1.6   0.0   0.0   0.1   0.4   0.7   0.5   0.5  1.60  1.22  0.72  0.00  0.00   49.99  100.65    0.71    0.00    1.75
 2010 332    82   101     3     1.3   83.4   16596   69.1   14.3  16.6  16.9   2.9   4.1   3.9   2.6   2.7   1.6   0.0   0.0   0.1   0.4   0.7   0.5   0.5  1.55  1.20  0.72  0.00  0.00   50.63  101.40    0.71    0.00    1.77
 2010 333    83   101     3     1.3   78.0   16595   63.7   14.2  13.9  14.9   2.7   3.9   3.7   2.5   2.7   1.6   0.0   0.0   0.2   0.5   0.7   0.4   0.5  1.50  1.17  0.71  0.00  0.00   51.38  101.91    0.71    0.00    1.79
 2010 334    84   101     3     1.3   72.5   16595   58.7   13.9  11.8  12.7   2.4   3.7   3.5   2.4   2.8   1.6   0.0   0.0   0.1   0.5   0.7   0.4   0.5  1.46  1.14  0.71  0.00  0.00   52.11  102.72    0.71    0.00    1.81
 2010 335    85   101     3     1.3   64.9   16594   51.3   13.6   9.0   9.6   1.9   3.4   3.3   2.3   2.8   1.6   0.0   0.0   0.1   0.5   0.7   0.4   0.5  1.40  1.12  0.70  0.00  0.00   52.84  103.40    0.71    0.00    1.82
 2010 336    86   101     3     1.3   57.2   16593   44.1   13.1   6.4   6.8   1.5   3.0   3.0   2.1   2.8   1.6   0.0   0.0   0.1   0.5   0.7   0.4   0.5  1.33  1.10  0.70  0.00  0.00   53.56  104.13    0.71    0.00    1.84
 2010 337    87   101     3     1.3   49.8   16593   37.2   12.7   4.0   4.3   1.0   2.6   2.6   1.9   2.9   1.6   0.0   0.0   0.1   0.5   0.7   0.4   0.5  1.25  1.07  0.69  0.00  0.00   54.26  104.82    0.71    0.00    1.86
 2010 338    88   101     3     1.3   43.4   16592   31.2   12.1   2.3   2.5   0.6   2.2   2.2   1.7   2.9   1.6   0.0   0.0   0.1   0.5   0.6   0.4   0.5  1.17  1.05  0.69  0.00  0.00   54.97  105.57    0.71    0.00    1.88
 2010 339    89   101     3     1.3   36.8   16591   25.4   11.5   0.9   1.0   0.3   1.7   1.8   1.4   2.9   1.6   0.0   0.0   0.1   0.4   0.6   0.4   0.4  1.05  1.03  0.69  0.00  0.00   55.67  106.31    0.71    0.00    1.89
 2010 340    90   101     3     1.3   33.0   16591   22.1   10.9   0.0   0.5   0.5   1.3   1.4   1.2   2.9   1.6   0.0   0.0   0.1   0.4   0.5   0.4   0.4  0.96  0.99  0.68  0.00  0.00   56.34  107.04    0.71    0.00    1.91
 2010 341    91   101     3     1.3   30.0   16590   19.3   10.7   0.0   0.3   0.3   1.0   1.1   1.0   2.7   1.6   0.0   0.0   0.2   0.5   0.6   0.4   0.4  0.89  0.93  0.68  0.00  0.00   57.15  107.52    0.71    0.00    1.92
 2010 342    92   101     3     1.3   27.7   16589   17.6   10.1   0.4   0.5   0.3   0.8   0.9   0.8   2.4   1.6   0.0   0.0   0.0   0.5   0.6   0.4   0.4  0.83  0.86  0.67  0.00  0.00   57.96  108.40    0.72    0.00    1.94
 2010 343    93   101     3     1.3   25.5   16588   15.6    9.8   0.2   0.4   0.3   0.6   0.7   0.7   2.1   1.7   0.0   0.0   0.2   0.5   0.6   0.4   0.4  0.78  0.80  0.67  0.00  0.00   58.75  109.03    0.72    0.00    1.94
 2010 344    94   101     3     1.3   23.7   16588   14.3    9.4   0.6   0.4   0.3   0.5   0.6   0.6   1.9   1.7   0.0   0.0   0.0   0.5   0.6   0.4   0.4  0.74  0.75  0.66  0.00  0.00   59.52  109.85    0.72    0.00    1.94
 2010 345    95   101     3     1.3   22.1   16587   12.9    9.2   0.3   0.4   0.3   0.4   0.5   0.5   1.7   1.7   0.0   0.0   0.2   0.4   0.6   0.4   0.4  0.71  0.70  0.66  0.00  0.00   60.27  110.50    0.72    0.00    1.95
 2010 346    96   101     3     1.3   20.9   16586   12.0    8.8   0.6   0.4   0.3   0.4   0.4   0.4   1.5   1.7   0.0   0.0   0.0   0.4   0.6   0.4   0.4  0.68  0.67  0.66  0.00  0.00   61.01  111.30    0.72    0.00    1.95
 2010 347    97   101     3     1.3   19.6   16586   10.9    8.7   0.3   0.4   0.3   0.3   0.3   0.3   1.3   1.7   0.0   0.0   0.2   0.4   0.6   0.4   0.4  0.66  0.63  0.65  0.00  0.00   61.68  111.84    0.72    0.00    1.95
 2010 348    98   101     3     1.3   18.9   16585   10.4    8.5   0.5   0.4   0.3   0.3   0.3   0.3   1.2   1.7   0.0   0.0   0.1   0.4   0.5   0.4   0.4  0.64  0.61  0.65  0.00  0.00   62.33  112.49    0.72    0.00    1.95
 2010 349    99   101     3     1.3   18.2   16585    9.8    8.3   0.1   0.4   0.4   0.3   0.3   0.3   1.0   1.7   0.0   0.0   0.1   0.4   0.5   0.4   0.4  0.62  0.59  0.64  0.00  0.00   62.94  113.05    0.72    0.00    1.95
 2010 350   100   101     3     1.3   17.8   16584    9.4    8.4   0.3   0.3   0.3   0.3   0.3   0.3   0.9   1.7   0.0   0.0   0.1   0.5   0.6   0.4   0.4  0.61  0.57  0.63  0.00  0.00   63.66  113.54    0.72    0.00    1.95
 2010 351   101   101     3     1.3   17.7   16583    9.5    8.2   0.4   0.4   0.3   0.3   0.3   0.3   0.8   1.8   0.0   0.0   0.1   0.5   0.6   0.4   0.4  0.60  0.55  0.61  0.00  0.00   64.38  114.20    0.72    0.00    1.96
 2010 352   102   101     3     1.3   17.5   16583    9.3    8.2   0.2   0.4   0.4   0.3   0.3   0.3   0.7   1.8   0.0   0.0   0.3   0.5   0.6   0.4   0.4  0.59  0.54  0.59  0.00  0.00   65.15  114.84    0.72    0.00    1.96
 2010 353   103   101     3     1.3   17.3   16582    9.0    8.3   0.3   0.3   0.4   0.3   0.3   0.3   0.7   1.8   0.0   0.0   0.4   0.6   0.6   0.4   0.4  0.58  0.52  0.58  0.00  0.00   65.97  115.34    0.72    0.00    1.96
 2010 354   104   101     3     1.3   18.1   16581    9.5    8.6   0.4   0.3   0.5   0.3   0.3   0.3   0.7   1.8   0.0   0.0   0.5   0.8   0.7   0.4   0.4  0.59  0.51  0.56  0.00  0.00   66.75  115.83    0.72    0.00    1.96
 2010 355   105   101     3     1.3   18.9   16580   10.3    8.6   0.5   0.6   0.6   0.4   0.3   0.3   0.7   1.8   0.0   0.0   0.5   0.7   0.7   0.4   0.4  0.60  0.51  0.55  0.00  0.00   67.52  116.63    0.72    0.00    1.96
 2010 356   106   101     3     1.3   19.6   16580   11.3    8.3   1.2   0.8   0.7   0.4   0.4   0.3   0.7   1.9   0.0   0.0   0.0   0.6   0.8   0.4   0.4  0.61  0.50  0.53  0.00  0.00   68.28  117.66    0.72    0.00    1.96
 2010 357   107   101     3     1.3   20.4   16579   12.0    8.4   1.2   1.0   0.8   0.4   0.4   0.3   0.7   1.9   0.0   0.0   0.2   0.5   0.8   0.4   0.4  0.62  0.49  0.52  0.00  0.00   69.04  118.32    0.72    0.00    1.96
 2010 358   108   101     3     1.3   21.1   16578   12.8    8.3   0.6   0.9   0.9   0.6   0.6   0.3   0.7   1.9   0.0   0.0   0.1   0.5   0.9   0.4   0.4  0.62  0.48  0.50  0.00  0.00   69.76  119.15    0.72    0.00    1.96
 2010 359   109   101     3     1.3   22.0   16578   13.0    8.9   0.6   0.9   0.9   0.6   0.6   0.4   0.7   1.9   0.0   0.0   0.2   0.7   1.0   0.4   0.4  0.64  0.48  0.49  0.00  0.00   70.61  119.35    0.72    0.00    1.97
 2010 360   110   101     3     1.3   22.9   16577   13.3    9.6   0.7   0.9   1.0   0.6   0.6   0.4   0.8   1.9   0.0   0.0   0.3   0.8   1.1   0.5   0.4  0.65  0.47  0.48  0.00  0.00   71.55  119.67    0.72    0.00    1.97
 2010 361   111   101     3     1.3   23.8   16576   14.6    9.3   1.2   1.3   1.1   0.7   0.6   0.4   0.8   1.9   0.0   0.0   0.0   0.6   1.1   0.5   0.4  0.67  0.46  0.47  0.00  0.00   72.50  120.89    0.72    0.00    1.97
 2010 362   112   101     3     1.3   24.8   16575   15.4    9.4   1.2   1.5   1.3   0.7   0.7   0.4   0.8   2.0   0.0   0.0   0.2   0.6   1.1   0.5   0.5  0.68  0.46  0.46  0.00  0.00   73.46  121.76    0.72    0.00    1.97
 2010 363   113   101     3     1.3   25.7   16574   16.5    9.3   1.6   1.8   1.5   0.8   0.7   0.4   0.8   2.0   0.0   0.0   0.0   0.5   1.1   0.5   0.5  0.70  0.45  0.44  0.00  0.00   74.39  122.79    0.72    0.00    1.97
 2010 364   114   101     3     1.3   26.7   16574   17.3    9.4   1.7   2.0   1.7   0.8   0.7   0.4   0.8   2.0   0.0   0.0   0.2   0.5   1.1   0.5   0.5  0.71  0.44  0.43  0.00  0.00   75.33  123.64    0.72    0.00    1.97
 2010 365   115   101     3     1.3   25.0   16573   16.0    8.9   1.6   1.6   1.4   0.8   0.7   0.4   0.8   1.9   0.0   0.0   0.0   0.5   0.9   0.5   0.5  0.71  0.44  0.42  0.00  0.00   76.25  124.62    0.72    0.00    1.97
 2011 001   116   101     3     1.3   23.2   16572   14.4    8.8   1.1   1.3   1.1   0.7   0.7   0.4   0.8   1.9   0.0   0.0   0.2   0.5   0.8   0.5   0.5  0.70  0.43  0.41  0.00  0.00   77.13  125.37    0.72    0.00    1.98
 2011 002   117   101     3     1.3   23.7   16571   14.9    8.7   1.3   1.4   1.1   0.8   0.7   0.4   0.8   1.9   0.0   0.0   0.1   0.4   0.8   0.5   0.5  0.71  0.43  0.40  0.00  0.00   77.97  126.20    0.72    0.00    1.98
 2011 003   118   101     3     1.3   23.1   16570   14.4    8.7   1.2   1.3   1.0   0.8   0.7   0.4   0.7   1.9   0.0   0.0   0.1   0.4   0.8   0.5   0.5  0.71  0.42  0.39  0.00  0.00   78.78  126.90    0.72    0.00    1.98
 2011 004   119   101     3     1.3   23.8   16570   15.1    8.7   1.4   1.5   1.1   0.8   0.7   0.4   0.8   1.9   0.0   0.0   0.1   0.4   0.8   0.5   0.5  0.72  0.41  0.38  0.00  0.00   79.54  127.62    0.72    0.00    1.98
 2011 005   120   101     3     1.3   21.7   16569   13.3    8.5   1.0   1.0   0.8   0.7   0.7   0.4   0.7   1.8   0.0   0.0   0.1   0.4   0.7   0.5   0.5  0.71  0.41  0.38  0.00  0.00   80.28  128.31    0.72    0.00    1.98
 2011 006   121   101     3     1.3   20.3   16568   12.0    8.3   0.8   0.8   0.6   0.7   0.6   0.3   0.7   1.8   0.0   0.0   0.1   0.4   0.7   0.5   0.5  0.70  0.41  0.37  0.00  0.00   81.00  128.98    0.72    0.00    1.98
 2011 007   122   101     3     1.3   17.8   16568    9.9    8.0   0.4   0.4   0.3   0.6   0.5   0.3   0.6   1.7   0.0   0.0   0.1   0.4   0.6   0.5   0.5  0.67  0.40  0.36  0.00  0.00   81.69  129.63    0.72    0.00    1.99
 2011 008   123   101     3     1.3   16.8   16567    9.1    7.7   0.2   0.4   0.4   0.5   0.4   0.3   0.5   1.6   0.0   0.0   0.1   0.4   0.6   0.5   0.5  0.65  0.40  0.35  0.00  0.00   82.37  130.30    0.72    0.00    1.99
 2011 009   124   101     3     1.3   16.2   16567    8.2    8.0   0.2   0.3   0.3   0.4   0.4   0.3   0.5   1.5   0.0   0.0   0.3   0.5   0.6   0.5   0.5  0.63  0.39  0.34  0.00  0.00   83.22  130.76    0.72    0.00    1.99
 2011 010   125   101     3     1.3   15.9   16566    8.2    7.6   0.6   0.5   0.4   0.4   0.3   0.3   0.4   1.4   0.0   0.0   0.0   0.5   0.6   0.5   0.5  0.62  0.39  0.33  0.00  0.00   84.09  131.71    0.72    0.00    1.99
 2011 011   126   101     3     1.3   15.3   16565    7.3    8.0   0.3   0.3   0.3   0.3   0.3   0.3   0.4   1.3   0.0   0.0   0.2   0.6   0.7   0.5   0.5  0.61  0.38  0.33  0.00  0.00   84.98  132.05    0.72    0.00    1.99
 2011 012   127   101     3     1.3   15.1   16564    7.0    8.2   0.1   0.2   0.3   0.3   0.4   0.3   0.4   1.3   0.0   0.0   0.3   0.7   0.7   0.5   0.5  0.60  0.38  0.32  0.00  0.00   85.85  132.44    0.72    0.00    1.99
 2011 013   128   101     3     1.3   15.0   16563    6.6    8.5   0.2   0.3   0.3   0.3   0.3   0.3   0.3   1.2   0.0   0.0   0.4   0.8   0.8   0.5   0.5  0.59  0.37  0.31  0.00  0.00   86.72  132.69    0.72    0.00    1.99
 2011 014   129   101     3     1.3   14.9   16563    6.7    8.2   0.8   0.3   0.3   0.3   0.3   0.3   0.3   1.1   0.0   0.0   0.0   0.7   0.8   0.6   0.5  0.59  0.37  0.31  0.00  0.00   87.61  133.32    0.72    0.00    2.00
 2011 015   130   101     3     1.3   14.4   16562    6.6    7.8   0.2   0.5   0.4   0.3   0.3   0.3   0.3   1.1   0.0   0.0   0.2   0.5   0.6   0.6   0.5  0.59  0.37  0.30  0.00  0.00   88.48  134.04    0.72    0.00    2.00
 2011 016   131   101     3     1.3   14.1   16561    6.4    7.8   0.3   0.4   0.3   0.3   0.3   0.3   0.3   1.0   0.0   0.0   0.3   0.5   0.6   0.6   0.5  0.58  0.36  0.29  0.00  0.00   89.36  134.68    0.72    0.00    2.00
 2011 017   132   101     3     1.3   14.0   16560    6.5    7.5   0.8   0.4   0.3   0.3   0.3   0.3   0.3   0.9   0.0   0.0   0.0   0.5   0.6   0.6   0.5  0.58  0.36  0.29  0.00  0.00   90.28  135.60    0.72    0.00    2.00
 2011 018   133   101     3     1.3   13.7   16560    6.1    7.6   0.2   0.4   0.3   0.3   0.3   0.3   0.3   0.9   0.0   0.0   0.2   0.5   0.6   0.5   0.5  0.58  0.35  0.28  0.00  0.00   91.21  136.25    0.72    0.00    2.00
 2011 019   134   101     3     1.3   13.7   16559    6.2    7.4   0.6   0.5   0.3   0.3   0.3   0.3   0.3   0.8   0.0   0.0   0.0   0.5   0.6   0.5   0.5  0.58  0.35  0.28  0.00  0.00   92.15  137.12    0.72    0.00    2.00
 2011 020   135   101     3     1.3   13.4   16558    6.0    7.5   0.3   0.5   0.3   0.3   0.3   0.3   0.3   0.8   0.0   0.0   0.2   0.4   0.6   0.5   0.5  0.58  0.35  0.27  0.00  0.00   93.09  137.80    0.72    0.00    2.00
 2011 021   136   101     3     1.3   13.3   16557    6.0    7.3   0.6   0.4   0.3   0.3   0.3   0.3   0.3   0.8   0.0   0.0   0.0   0.4   0.6   0.5   0.5  0.58  0.34  0.26  0.00  0.00   94.00  138.67    0.72    0.00    2.00
 2011 022   137   101     3     1.3   13.0   16557    5.7    7.3   0.3   0.4   0.3   0.3   0.3   0.3   0.3   0.7   0.0   0.0   0.2   0.4   0.6   0.5   0.5  0.57  0.34  0.26  0.00  0.00   94.87  139.31    0.72    0.00    2.01
 2011 023   138   101     3     1.3   12.9   16556    5.8    7.1   0.6   0.4   0.3   0.3   0.3   0.3   0.3   0.7   0.0   0.0   0.0   0.4   0.6   0.5   0.5  0.57  0.34  0.25  0.00  0.00   95.69  140.14    0.72    0.00    2.01
 2011 024   139   101     3     1.3   12.6   16555    5.5    7.1   0.3   0.4   0.3   0.3   0.3   0.3   0.3   0.6   0.0   0.0   0.2   0.4   0.6   0.5   0.5  0.57  0.34  0.25  0.00  0.00   96.46  140.77    0.72    0.00    2.01
 2011 025   140   101     3     1.3   12.5   16555    5.6    6.9   0.4   0.3   0.4   0.4   0.3   0.3   0.3   0.6   0.0   0.0   0.0   0.4   0.6   0.5   0.5  0.57  0.33  0.24  0.00  0.00   97.20  141.55    0.72    0.00    2.01
 2011 026   141   101     3     1.3   12.6   16554    5.1    7.4   0.2   0.3   0.3   0.3   0.3   0.3   0.3   0.6   0.0   0.0   0.2   0.5   0.7   0.5   0.5  0.57  0.33  0.24  0.00  0.00   98.13  141.86    0.72    0.00    2.01
 2011 027   142   101     3     1.3   12.9   16553    5.3    7.6   0.7   0.3   0.3   0.3   0.3   0.3   0.3   0.6   0.0   0.0   0.0   0.7   0.7   0.5   0.5  0.57  0.33  0.23  0.00  0.00   99.09  142.46    0.72    0.00    2.01
 2011 028   143   101     3     1.3   13.8   16552    6.1    7.7   0.7   0.6   0.4   0.4   0.3   0.3   0.3   0.6   0.0   0.0   0.2   0.6   0.8   0.5   0.5  0.58  0.32  0.23  0.00  0.00  100.05  143.27    0.72    0.00    2.01
 2011 029   144   101     3     1.3   14.8   16551    7.1    7.7   1.1   0.9   0.5   0.4   0.4   0.3   0.3   0.6   0.0   0.0   0.0   0.5   0.8   0.6   0.5  0.59  0.32  0.22  0.00  0.00  101.01  144.29    0.72    0.00    2.01
