*WATER BALANCE OUTPUT FILE

*DSSAT Cropping System Model Ver. 4.0.2.000               Aug 12, 2016; 12:55:20

*RUN   1        : UYMZ                    
 MODEL          : MZCER040 - Maize           
 EXPERIMENT     : UYMZ0197 MZ    late to create DSS                             
 TREATMENT  1   : UYMZ                    


     WATER BALANCE PARAMETERS
     ========================                  --mm--

     Soil H20 (start) on Year/day 2000/250     559.24
     Soil H20 (final) on Year/day 2001/036     468.35
     Effective Irrigation                       59.93
     Precipitation                             736.10
     Drainage                                  233.60
     Runoff                                      2.55
     Soil Evaporation                          175.73
     Transpiration                             475.04
     Potential ET                              709.71

     Final Balance                            -0.0001


*DSSAT Cropping System Model Ver. 4.0.2.000               Aug 12, 2016; 12:55:20

*RUN   2        : UYMZ                    
 MODEL          : MZCER040 - Maize           
 EXPERIMENT     : UYMZ0197 MZ    late to create DSS                             
 TREATMENT  1   : UYMZ                    


     WATER BALANCE PARAMETERS
     ========================                  --mm--

     Soil H20 (start) on Year/day 2001/250     559.24
     Soil H20 (final) on Year/day 2002/033     524.19
     Effective Irrigation                       94.57
     Precipitation                             908.70
     Drainage                                  350.88
     Runoff                                     65.83
     Soil Evaporation                          148.52
     Transpiration                             473.09
     Potential ET                              683.79

     Final Balance                             0.0001


*DSSAT Cropping System Model Ver. 4.0.2.000               Aug 12, 2016; 12:55:20

*RUN   3        : UYMZ                    
 MODEL          : MZCER040 - Maize           
 EXPERIMENT     : UYMZ0197 MZ    late to create DSS                             
 TREATMENT  1   : UYMZ                    


     WATER BALANCE PARAMETERS
     ========================                  --mm--

     Soil H20 (start) on Year/day 2002/250     559.24
     Soil H20 (final) on Year/day 2003/027     458.68
     Effective Irrigation                       31.02
     Precipitation                            1235.10
     Drainage                                  623.76
     Runoff                                    166.98
     Soil Evaporation                          155.04
     Transpiration                             420.89
     Potential ET                              630.77

     Final Balance                            -0.0002


*DSSAT Cropping System Model Ver. 4.0.2.000               Aug 12, 2016; 12:55:20

*RUN   4        : UYMZ                    
 MODEL          : MZCER040 - Maize           
 EXPERIMENT     : UYMZ0197 MZ    late to create DSS                             
 TREATMENT  1   : UYMZ                    


     WATER BALANCE PARAMETERS
     ========================                  --mm--

     Soil H20 (start) on Year/day 2003/250     559.24
     Soil H20 (final) on Year/day 2004/036     501.06
     Effective Irrigation                      121.95
     Precipitation                             601.90
     Drainage                                  142.22
     Runoff                                      3.65
     Soil Evaporation                          138.27
     Transpiration                             497.90
     Potential ET                              735.83

     Final Balance                             0.0000


*DSSAT Cropping System Model Ver. 4.0.2.000               Aug 12, 2016; 12:55:20

*RUN   5        : UYMZ                    
 MODEL          : MZCER040 - Maize           
 EXPERIMENT     : UYMZ0197 MZ    late to create DSS                             
 TREATMENT  1   : UYMZ                    


     WATER BALANCE PARAMETERS
     ========================                  --mm--

     Soil H20 (start) on Year/day 2004/250     559.24
     Soil H20 (final) on Year/day 2005/034     457.06
     Effective Irrigation                      188.40
     Precipitation                             466.30
     Drainage                                  122.46
     Runoff                                      0.21
     Soil Evaporation                          145.43
     Transpiration                             488.78
     Potential ET                              749.97

     Final Balance                             0.0000


*DSSAT Cropping System Model Ver. 4.0.2.000               Aug 12, 2016; 12:55:20

*RUN   6        : UYMZ                    
 MODEL          : MZCER040 - Maize           
 EXPERIMENT     : UYMZ0197 MZ    late to create DSS                             
 TREATMENT  1   : UYMZ                    


     WATER BALANCE PARAMETERS
     ========================                  --mm--

     Soil H20 (start) on Year/day 2005/250     559.24
     Soil H20 (final) on Year/day 2006/032     460.13
     Effective Irrigation                      249.39
     Precipitation                             523.40
     Drainage                                  214.00
     Runoff                                      7.87
     Soil Evaporation                          166.47
     Transpiration                             483.56
     Potential ET                              735.46

     Final Balance                             0.0000


*DSSAT Cropping System Model Ver. 4.0.2.000               Aug 12, 2016; 12:55:20

*RUN   7        : UYMZ                    
 MODEL          : MZCER040 - Maize           
 EXPERIMENT     : UYMZ0197 MZ    late to create DSS                             
 TREATMENT  1   : UYMZ                    


     WATER BALANCE PARAMETERS
     ========================                  --mm--

     Soil H20 (start) on Year/day 2006/250     559.24
     Soil H20 (final) on Year/day 2007/025     546.95
     Effective Irrigation                      121.72
     Precipitation                             511.10
     Drainage                                   54.39
     Runoff                                      4.89
     Soil Evaporation                          117.50
     Transpiration                             468.32
     Potential ET                              702.98

     Final Balance                             0.0000


*DSSAT Cropping System Model Ver. 4.0.2.000               Aug 12, 2016; 12:55:20

*RUN   8        : UYMZ                    
 MODEL          : MZCER040 - Maize           
 EXPERIMENT     : UYMZ0197 MZ    late to create DSS                             
 TREATMENT  1   : UYMZ                    


     WATER BALANCE PARAMETERS
     ========================                  --mm--

     Soil H20 (start) on Year/day 2007/250     559.24
     Soil H20 (final) on Year/day 2008/030     442.77
     Effective Irrigation                      249.37
     Precipitation                             470.00
     Drainage                                  197.52
     Runoff                                      2.46
     Soil Evaporation                          143.96
     Transpiration                             491.90
     Potential ET                              690.51

     Final Balance                            -0.0001


*DSSAT Cropping System Model Ver. 4.0.2.000               Aug 12, 2016; 12:55:20

*RUN   9        : UYMZ                    
 MODEL          : MZCER040 - Maize           
 EXPERIMENT     : UYMZ0197 MZ    late to create DSS                             
 TREATMENT  1   : UYMZ                    


     WATER BALANCE PARAMETERS
     ========================                  --mm--

     Soil H20 (start) on Year/day 2008/250     559.24
     Soil H20 (final) on Year/day 2009/025     450.71
     Effective Irrigation                      317.37
     Precipitation                             230.70
     Drainage                                   46.69
     Runoff                                      0.15
     Soil Evaporation                          127.53
     Transpiration                             482.23
     Potential ET                              712.01

     Final Balance                             0.0000


*DSSAT Cropping System Model Ver. 4.0.2.000               Aug 12, 2016; 12:55:20

*RUN  10        : UYMZ                    
 MODEL          : MZCER040 - Maize           
 EXPERIMENT     : UYMZ0197 MZ    late to create DSS                             
 TREATMENT  1   : UYMZ                    


     WATER BALANCE PARAMETERS
     ========================                  --mm--

     Soil H20 (start) on Year/day 2009/250     559.24
     Soil H20 (final) on Year/day 2010/041     552.51
     Effective Irrigation                        0.00
     Precipitation                            1318.30
     Drainage                                  706.15
     Runoff                                     32.45
     Soil Evaporation                          152.71
     Transpiration                             433.71
     Potential ET                              695.51

     Final Balance                            -0.0003


*DSSAT Cropping System Model Ver. 4.0.2.000               Aug 12, 2016; 12:55:20

*RUN  11        : UYMZ                    
 MODEL          : MZCER040 - Maize           
 EXPERIMENT     : UYMZ0197 MZ    late to create DSS                             
 TREATMENT  1   : UYMZ                    


     WATER BALANCE PARAMETERS
     ========================                  --mm--

     Soil H20 (start) on Year/day 2010/250     559.24
     Soil H20 (final) on Year/day 2011/029     485.87
     Effective Irrigation                      248.92
     Precipitation                             344.20
     Drainage                                   83.68
     Runoff                                      7.91
     Soil Evaporation                          121.51
     Transpiration                             453.39
     Potential ET                              726.98

     Final Balance                             0.0000

