*PLANT N OUTPUT FILE

*DSSAT Cropping System Model Ver. 4.0.2.000               Aug 03, 2016; 15:38:59

*RUN   1        : UYMZ                    
 MODEL          : MZCER040 - Maize           
 EXPERIMENT     : UYMZ0134 MZ    late to create DSS                             
 TREATMENT  1   : UYMZ                    

@YEAR DOY   DAS   DAP   CNAD   GNAD   VNAD   GN%D   VN%D   NUPC   LNAD   SNAD   LN%D   SN%D   RN%D   SNN0C   SNN1C
 1987 215     3     0    0.0    0.0    0.0   0.00   0.00    0.0    0.0    0.0    0.0   0.00   0.00    0.00    0.00
 1987 216     4     1    0.0    0.0    0.0   0.00   0.00    0.0    0.0    0.0    0.0   0.00   0.00    0.00    0.00
 1987 217     5     2    0.0    0.0    0.0   0.00   0.00    0.0    0.0    0.0    0.0   0.00   0.00    0.00    0.00
 1987 218     6     3    0.0    0.0    0.0   0.00   0.00    0.0    0.0    0.0    0.0   0.00   0.00    0.00    0.00
 1987 219     7     4    0.0    0.0    0.0   0.00   0.00    0.0    0.0    0.0    0.0   0.00   0.00    0.00    0.00
 1987 220     8     5    0.0    0.0    0.0   0.00   0.00    0.0    0.0    0.0    0.0   0.00   0.00    0.00    0.00
 1987 221     9     6    0.0    0.0    0.0   0.00   0.00    0.0    0.0    0.0    0.0   0.00   0.00    0.00    0.00
 1987 222    10     7    0.0    0.0    0.0   0.00   0.00    0.0    0.0    0.0    0.0   0.00   0.00    0.00    0.00
 1987 223    11     8    0.0    0.0    0.0   0.00   0.00    0.0    0.0    0.0    0.0   0.00   0.00    0.00    0.00
 1987 224    12     9    0.0    0.0    0.0   0.00   0.00    0.0    0.0    0.0    0.0   0.00   0.00    0.00    0.00
 1987 225    13    10    0.0    0.0    0.0   0.00   0.00    0.0    0.0    0.0    0.0   0.00   0.00    0.00    0.00
 1987 226    14    11    0.0    0.0    0.0   0.00   0.00    0.0    0.0    0.0    0.0   0.00   0.00    0.00    0.00
 1987 227    15    12    0.0    0.0    0.0   0.00   0.00    0.0    0.0    0.0    0.0   0.00   0.00    0.00    0.00
 1987 228    16    13    0.0    0.0    0.0   0.00   0.00    0.0    0.0    0.0    0.0   0.00   0.00    0.00    0.00
 1987 229    17    14    0.0    0.0    0.0   0.00   0.00    0.0    0.0    0.0    0.0   0.00   0.00    0.00    0.00
 1987 230    18    15    0.0    0.0    0.0   0.00   0.00    0.0    0.0    0.0    0.0   0.00   0.00    0.00    0.00
 1987 231    19    16    0.0    0.0    0.0   0.00   0.00    0.0    0.0    0.0    0.0   0.00   0.00    0.00    0.00
 1987 232    20    17    1.2    0.0    1.2   0.00   4.40    0.0    0.6    0.6    4.4   4.40   0.00    0.00    0.00
 1987 233    21    18    1.3    0.0    1.3   0.00   4.56    0.2    0.6    0.6    4.6   4.56   1.07    0.00    0.00
 1987 234    22    19    1.3    0.0    1.3   0.00   4.56    0.2    0.6    0.6    4.6   4.56   1.06    0.00    0.00
 1987 235    23    20    1.3    0.0    1.3   0.00   4.56    0.2    0.6    0.6    4.6   4.56   1.05    0.00    0.00
 1987 236    24    21    1.3    0.0    1.3   0.00   4.56    0.2    0.6    0.6    4.6   4.56   1.03    0.00    0.00
 1987 237    25    22    1.3    0.0    1.3   0.00   4.56    0.2    0.6    0.6    4.6   4.56   0.99    0.00    0.00
 1987 238    26    23    1.3    0.0    1.3   0.00   4.48    0.2    0.6    0.6    4.5   4.48   1.13    0.00    0.00
 1987 239    27    24    1.2    0.0    1.2   0.00   4.46    0.2    0.6    0.6    4.5   4.46   1.13    0.00    0.00
 1987 240    28    25    1.2    0.0    1.2   0.00   4.46    0.2    0.6    0.6    4.5   4.46   1.10    0.00    0.00
 1987 241    29    26    1.2    0.0    1.2   0.00   4.46    0.2    0.6    0.6    4.5   4.46   1.08    0.00    0.00
 1987 242    30    27    1.2    0.0    1.2   0.00   4.43    0.2    0.6    0.6    4.4   4.43   1.26    0.00    0.00
 1987 243    31    28    1.2    0.0    1.2   0.00   4.42    0.3    0.6    0.6    4.4   4.42   1.25    0.00    0.00
 1987 244    32    29    1.2    0.0    1.2   0.00   4.42    0.3    0.6    0.6    4.4   4.42   1.19    0.00    0.00
 1987 245    33    30    1.2    0.0    1.2   0.00   4.42    0.3    0.6    0.6    4.4   4.42   1.17    0.00    0.00
 1987 246    34    31    1.2    0.0    1.2   0.00   4.39    0.3    0.6    0.6    4.4   4.39   1.22    0.00    0.01
 1987 247    35    32    1.2    0.0    1.2   0.00   4.38    0.3    0.6    0.6    4.4   4.38   1.25    0.00    0.01
 1987 248    36    33    1.2    0.0    1.2   0.00   4.38    0.3    0.6    0.6    4.4   4.38   1.20    0.00    0.01
 1987 249    37    34    1.2    0.0    1.2   0.00   4.37    0.3    0.6    0.6    4.4   4.37   1.22    0.00    0.01
 1987 250    38    35    1.2    0.0    1.2   0.00   4.36    0.3    0.6    0.6    4.4   4.36   1.16    0.00    0.01
 1987 251    39    36    1.2    0.0    1.2   0.00   4.34    0.3    0.6    0.6    4.3   4.34   1.12    0.00    0.01
 1987 252    40    37    1.2    0.0    1.2   0.00   4.27    0.3    0.6    0.6    4.3   4.27   1.09    0.00    0.01
 1987 253    41    38    1.2    0.0    1.2   0.00   3.99    0.4    0.7    0.6    4.0   3.99   1.22    0.00    0.01
 1987 254    42    39    1.3    0.0    1.3   0.00   3.99    0.6    0.8    0.6    4.0   3.99   1.27    0.00    0.02
 1987 255    43    40    1.4    0.0    1.4   0.00   4.01    0.8    0.9    0.6    4.0   4.01   1.28    0.00    0.02
 1987 256    44    41    1.5    0.0    1.5   0.00   3.66    0.9    1.0    0.5    3.7   3.66   1.19    0.00    0.02
 1987 257    45    42    1.8    0.0    1.8   0.00   3.66    1.1    1.2    0.5    3.7   3.66   1.08    0.00    0.02
 1987 258    46    43    2.0    0.0    2.0   0.00   3.96    1.5    1.5    0.6    4.0   3.96   1.21    0.00    0.03
 1987 259    47    44    2.2    0.0    2.2   0.00   4.16    1.9    1.6    0.6    4.2   4.16   1.49    0.00    0.03
 1987 260    48    45    2.2    0.0    2.2   0.00   3.94    1.9    1.6    0.6    3.9   3.94   1.35    0.00    0.03
 1987 261    49    46    2.3    0.0    2.3   0.00   3.97    2.0    1.8    0.6    4.0   3.97   1.21    0.00    0.03
 1987 262    50    47    2.5    0.0    2.5   0.00   4.08    2.4    1.9    0.6    4.1   4.08   1.36    0.00    0.04
 1987 263    51    48    2.5    0.0    2.5   0.00   4.02    2.5    2.0    0.6    4.0   4.02   1.29    0.00    0.05
 1987 264    52    49    2.7    0.0    2.7   0.00   4.10    2.6    2.1    0.6    4.1   4.10   1.18    0.00    0.05
 1987 265    53    50    2.7    0.0    2.7   0.00   4.08    2.7    2.1    0.6    4.1   4.08   1.22    0.00    0.06
 1987 266    54    51    2.8    0.0    2.8   0.00   3.94    2.8    2.2    0.6    3.9   3.94   1.15    0.00    0.06
 1987 267    55    52    3.0    0.0    3.0   0.00   3.83    3.1    2.4    0.5    3.8   3.83   1.17    0.00    0.07
 1987 268    56    53    3.2    0.0    3.2   0.00   3.67    3.4    2.7    0.5    3.7   3.67   1.15    0.00    0.08
 1987 269    57    54    3.6    0.0    3.6   0.00   3.49    3.9    3.1    0.5    3.5   3.49   1.12    0.00    0.08
 1987 270    58    55    4.2    0.0    4.2   0.00   3.67    4.7    3.7    0.5    3.7   3.67   1.17    0.00    0.09
 1987 271    59    56    4.7    0.0    4.7   0.00   3.74    5.5    4.2    0.5    3.7   3.74   1.21    0.00    0.10
 1987 272    60    57    5.1    0.0    5.1   0.00   3.61    6.1    4.6    0.5    3.6   3.61   1.18    0.00    0.11
 1987 273    61    58    5.7    0.0    5.7   0.00   3.66    6.6    5.2    0.5    3.7   3.66   1.09    0.00    0.12
 1987 274    62    59    6.3    0.0    6.3   0.00   3.72    7.9    5.8    0.5    3.7   3.72   1.24    0.00    0.13
 1987 275    63    60    6.8    0.0    6.8   0.00   3.81    8.8    6.3    0.5    3.8   3.81   1.25    0.00    0.15
 1987 276    64    61    7.2    0.0    7.2   0.00   3.76    9.2    6.6    0.5    3.8   3.76   1.17    0.00    0.16
 1987 277    65    62    7.6    0.0    7.6   0.00   3.56   10.2    7.1    0.5    3.6   3.56   1.20    0.00    0.18
 1987 278    66    63    8.4    0.0    8.4   0.00   3.50   11.6    8.0    0.5    3.5   3.50   1.20    0.00    0.20
 1987 279    67    64    9.5    0.0    9.5   0.00   3.53   12.8    9.0    0.5    3.5   3.53   1.15    0.00    0.22
 1987 280    68    65   10.5    0.0   10.5   0.00   3.55   13.7   10.0    0.5    3.5   3.55   1.09    0.00    0.24
 1987 281    69    66   11.6    0.0   11.6   0.00   3.57   15.4   11.1    0.5    3.6   3.57   1.15    0.00    0.26
 1987 282    70    67   12.5    0.0   12.5   0.00   3.81   17.7   12.0    0.5    3.8   3.81   1.23    0.00    0.29
 1987 283    71    68   12.8    0.0   12.8   0.00   3.29   18.1   12.4    0.5    3.3   3.29   1.15    0.00    0.32
 1987 284    72    69   14.9    0.0   14.9   0.00   3.35   20.5   14.4    0.5    3.4   3.35   1.14    0.00    0.35
 1987 285    73    70   18.6    0.0   18.6   0.00   3.78   25.5   18.0    0.5    3.8   3.78   1.20    0.00    0.39
 1987 286    74    71   19.2    0.0   19.2   0.00   3.69   27.2   18.7    0.5    3.7   3.69   1.21    0.00    0.43
 1987 287    75    72   19.5    0.0   19.5   0.00   3.60   27.5   19.0    0.5    3.6   3.60   1.14    0.00    0.47
 1987 288    76    73   20.4    0.0   20.4   0.00   3.57   28.4   19.9    0.5    3.6   3.57   1.10    0.00    0.52
 1987 289    77    74   21.6    0.0   21.6   0.00   3.54   30.9   21.1    0.5    3.5   3.54   1.16    0.00    0.57
 1987 290    78    75   22.7    0.0   22.7   0.00   3.52   34.0   22.2    0.5    3.5   3.52   1.21    0.00    0.62
 1987 291    79    76   24.0    0.0   24.0   0.00   3.50   36.8   23.4    0.5    3.5   3.50   1.20    0.00    0.68
 1987 292    80    77   25.4    0.0   25.4   0.00   3.48   39.0   24.8    0.6    3.5   3.48   1.16    0.00    0.75
 1987 293    81    78   27.2    0.0   27.2   0.00   3.46   42.5   26.5    0.6    3.5   3.46   1.17    0.00    0.82
 1987 294    82    79   29.9    0.0   29.9   0.00   3.43   46.1   29.1    0.8    3.4   3.43   1.15    0.00    0.91
 1987 295    83    80   32.3    0.0   32.3   0.00   3.40   49.4   31.4    0.9    3.4   3.40   1.13    0.00    0.99
 1987 296    84    81   35.8    0.0   35.8   0.00   3.36   54.1   34.6    1.2    3.4   3.36   1.14    0.00    1.08
 1987 297    85    82   39.3    0.0   39.3   0.00   3.32   58.2   37.7    1.6    3.3   3.32   1.12    0.00    1.18
 1987 298    86    83   42.5    0.0   42.5   0.00   3.28   61.1   40.4    2.1    3.3   3.28   1.08    0.00    1.28
 1987 299    87    84   46.3    0.0   46.3   0.00   3.25   64.6   43.6    2.8    3.2   3.25   1.07    0.00    1.38
 1987 300    88    85   49.3    0.0   49.3   0.00   3.22   67.9   46.0    3.3    3.2   3.22   1.08    0.00    1.48
 1987 301    89    86   52.5    0.0   52.5   0.00   3.19   72.8   48.4    4.1    3.2   3.19   1.12    0.00    1.58
 1987 302    90    87   56.1    0.0   56.1   0.00   3.15   79.0   51.1    4.9    3.2   3.15   1.16    0.00    1.68
 1987 303    91    88   60.7    0.0   60.7   0.00   3.12   84.8   54.4    6.3    3.1   3.12   1.14    0.00    1.80
 1987 304    92    89   65.6    0.0   65.6   0.00   3.08   91.2   57.7    7.9    3.1   3.08   1.14    0.00    1.93
 1987 305    93    90   70.2    0.0   70.2   0.00   3.04   95.1   60.7    9.5    3.0   3.04   1.09    0.00    2.06
 1987 306    94    91   75.5    0.0   75.5   0.00   3.00  100.1   63.9   11.6    3.0   3.00   1.07    0.00    2.19
 1987 307    95    92   80.3    0.0   80.3   0.00   2.97  105.2   66.7   13.6    3.0   2.97   1.08    0.00    2.32
 1987 308    96    93   83.5    0.0   83.5   0.00   2.94  108.2   68.4   15.1    2.9   2.94   1.07    0.00    2.45
 1987 309    97    94   86.8    0.0   86.8   0.00   2.91  111.5   70.1   16.7    2.9   2.91   1.07    0.00    2.58
 1987 310    98    95   91.3    0.0   91.3   0.00   2.88  116.1   72.3   18.9    2.9   2.88   1.07    0.00    2.70
 1987 311    99    96   95.5    0.0   95.5   0.00   2.86  124.2   74.4   21.1    2.9   2.86   1.15    0.00    2.83
 1987 312   100    97   99.7    0.0   99.7   0.00   2.83  129.2   76.4   23.3    2.8   2.83   1.12    0.00    2.98
 1987 313   101    98  102.4    0.0  102.4   0.00   2.82  135.0   77.6   24.8    2.8   2.82   1.15    0.00    3.13
 1987 314   102    99  106.1    0.0  106.1   0.00   2.80  140.5   79.2   26.9    2.8   2.80   1.14    0.00    3.30
 1987 315   103   100  111.5    0.0  111.5   0.00   2.77  147.0   81.5   30.0    2.8   2.77   1.12    0.00    3.48
 1987 316   104   101  117.7    0.0  117.7   0.00   2.74  153.0   84.0   33.7    2.7   2.74   1.09    0.00    3.66
 1987 317   105   102  128.1    0.0  128.1   0.00   2.71  162.8   91.8   36.2    2.7   2.71   1.07    0.00    3.84
 1987 318   106   103  137.8    0.0  137.8   0.00   2.67  172.6   96.3   41.4    2.7   2.67   1.07    0.00    4.02
 1987 319   107   104  145.8    0.0  145.8   0.00   2.64  181.6   99.3   46.4    2.6   2.64   1.09    0.00    4.20
 1987 320   108   105  149.8    0.0  149.8   0.00   2.62  189.0  100.5   49.3    2.6   2.62   1.13    0.00    4.38
 1987 321   109   106  156.1    0.0  156.1   0.00   2.59  196.2  102.3   53.7    2.6   2.59   1.11    0.00    4.58
 1987 322   110   107  160.4    0.0  160.4   0.00   2.56  199.0  103.2   57.2    2.6   2.56   1.07    0.00    4.79
 1987 323   111   108  164.1    0.0  164.1   0.00   2.53  203.1  103.8   60.3    2.5   2.53   1.08    0.00    4.98
 1987 324   112   109  167.5    0.0  167.5   0.00   2.51  206.2  104.4   63.1    2.5   2.51   1.07    0.00    5.18
 1987 325   113   110  170.0    0.0  170.0   0.00   2.49  213.4  104.7   65.2    2.5   2.49   1.13    0.00    5.38
 1987 326   114   111  172.8    0.0  172.8   0.00   2.47  218.3  105.2   67.6    2.5   2.47   1.12    0.00    5.60
 1987 327   115   112  176.1    0.0  176.1   0.00   2.46  219.7  105.7   70.4    2.5   2.46   1.07    0.00    5.83
 1987 328   116   113  180.5    0.0  180.5   0.00   2.43  223.8  106.3   74.2    2.4   2.43   1.07    0.00    6.05
 1987 329   117   114  185.0    0.0  185.0   0.00   2.40  228.9  106.8   78.2    2.4   2.40   1.08    0.00    6.27
 1987 330   118   115  188.9    0.0  188.9   0.00   2.37  233.1  107.2   81.7    2.4   2.37   1.08    0.00    6.49
 1987 331   119   116  191.1    0.0  191.1   0.00   2.33  236.6  106.8   84.4    2.3   2.33   1.08    0.00    6.72
 1987 332   120   117  193.4    0.0  193.4   0.00   2.28  239.8  106.1   87.3    2.3   2.28   1.06    0.00    6.95
 1987 333   121   118  195.5    0.0  195.5   0.00   2.21  242.5  105.0   90.5    2.2   2.21   1.05    0.00    7.18
 1987 334   122   119  197.5    0.0  197.5   0.00   2.14  244.9  103.8   93.7    2.1   2.14   1.04    0.00    7.42
 1987 335   123   120  199.3    0.0  199.3   0.00   2.32  247.1  111.8   87.6    2.3   2.32   1.03    0.00    7.66
 1987 336   124   121  199.3    0.0  199.3   0.00   2.31  247.1  110.0   89.3    2.3   2.31   1.03    0.00    7.66
 1987 337   125   122  199.3    0.0  199.3   0.00   2.31  247.1  108.8   90.5    2.3   2.31   1.04    0.00    7.66
 1987 338   126   123  199.3    0.0  199.3   0.00   2.31  247.1  107.5   91.8    2.3   2.31   1.04    0.00    7.66
 1987 339   127   124  199.3    0.0  199.3   0.00   2.31  247.1  106.1   93.2    2.3   2.31   1.00    0.00    7.66
 1987 340   128   125  199.3    0.0  199.3   0.00   2.31  247.1  104.7   94.7    2.3   2.31   0.97    0.00    7.66
 1987 341   129   126  199.3    0.0  199.3   0.00   2.31  247.1  103.2   96.1    2.3   2.31   0.97    0.00    7.66
 1987 342   130   127  199.3    0.0  199.3   0.00   2.31  247.1  101.7   97.6    2.3   2.31   0.95    0.00    7.66
 1987 343   131   128  199.3    0.0  199.3   0.00   2.31  247.1  100.1   99.2    2.3   2.31   0.92    0.00    7.66
 1987 344   132   129  199.3    0.0  199.3   0.00   2.31  247.1   98.3  101.0    2.3   2.31   0.90    0.00    7.66
 1987 345   133   130  199.3    0.0  199.3   0.00   2.31  247.1   96.5  102.8    2.3   2.31   0.89    0.00    7.66
 1987 346   134   131  199.3    0.0  199.3   0.00   2.32  247.1   94.9  104.4    2.3   2.32   0.86    0.00    7.66
 1987 347   135   132  199.3    0.0  199.3   0.00   2.32  247.1   93.2  106.1    2.3   2.32   0.84    0.00    7.66
 1987 348   136   133  199.3    0.0  199.3   0.00   2.32  247.1   91.4  107.9    2.3   2.32   0.83    0.00    7.66
 1987 349   137   134  199.3    4.9  194.4   1.70   2.27  247.1   89.1  105.3    2.3   2.27   0.83    0.00    7.66
 1987 350   138   135  199.3    9.6  189.7   1.70   2.23  247.1   87.6  102.2    2.2   2.23   0.84    0.00    7.66
 1987 351   139   136  199.3   13.4  186.0   1.70   2.17  247.1   85.3  100.7    2.2   2.17   0.83    0.00    7.66
 1987 352   140   137  199.3   16.7  182.7   1.70   2.13  247.1   83.8   98.9    2.1   2.13   0.82    0.00    7.66
 1987 353   141   138  199.3   20.1  179.3   1.70   2.09  247.1   82.2   97.1    2.1   2.09   0.81    0.00    7.66
 1987 354   142   139  199.3   24.0  175.4   1.70   2.05  247.1   80.4   95.0    2.0   2.05   0.80    0.00    7.66
 1987 355   143   140  199.3   27.1  172.3   1.70   2.01  247.1   79.0   93.3    2.0   2.01   0.79    0.00    7.66
 1987 356   144   141  199.3   30.3  169.1   1.70   1.97  247.1   77.5   91.5    2.0   1.97   0.79    0.00    7.66
 1987 357   145   142  199.3   33.8  165.5   1.70   1.93  247.1   75.9   89.6    1.9   1.93   0.78    0.00    7.66
 1987 358   146   143  181.9   37.8  144.1   1.70   1.68  249.1   66.1   78.0    1.7   1.68   1.08    0.00    7.90
 1987 359   147   144  181.9   41.8  140.0   1.70   1.64  249.1   64.5   75.6    1.6   1.64   1.09    0.00    7.90
 1987 360   148   145  183.6   46.8  136.8   1.70   1.60  249.1   63.0   73.8    1.6   1.60   1.07    0.00    8.24
 1987 361   149   146  187.3   51.7  135.6   1.70   1.58  253.4   62.2   73.4    1.6   1.58   1.07    0.00    8.57
 1987 362   150   147  189.5   56.7  132.9   1.70   1.55  255.4   60.9   71.9    1.5   1.55   1.07    0.00    8.90
 1987 363   151   148  189.5   61.3  128.2   1.70   1.51  255.4   59.4   68.8    1.5   1.51   1.07    0.00    8.90
 1987 364   152   149  192.9   66.3  126.6   1.70   1.49  257.9   58.6   68.0    1.5   1.49   1.07    0.00    9.23
 1987 365   153   150  196.5   71.2  125.3   1.70   1.46  262.2   57.4   67.8    1.5   1.46   1.07    0.00    9.56
 1988 001   154   151  200.6   76.2  124.4   1.70   1.45  267.1   57.1   67.4    1.5   1.45   1.08    0.00    9.89
 1988 002   155   152  204.0   81.1  122.9   1.70   1.43  271.3   56.4   66.6    1.4   1.43   1.08    0.00   10.22
 1988 003   156   153  206.3   86.1  120.3   1.70   1.40  274.0   55.2   65.1    1.4   1.40   1.08    0.00   10.56
 1988 004   157   154  208.4   91.1  117.3   1.70   1.37  276.6   53.8   63.5    1.4   1.37   1.08    0.00   10.90
 1988 005   158   155  210.5   96.1  114.4   1.70   1.33  278.1   52.5   62.0    1.3   1.33   1.07    0.00   11.24
 1988 006   159   156  211.5   98.9  112.6   1.70   1.31  279.9   51.6   61.0    1.3   1.31   1.07    0.00   11.58
 1988 007   160   157  212.7  102.4  110.2   1.70   1.29  281.6   50.5   59.7    1.3   1.29   1.06    0.00   11.92
 1988 008   161   158  214.0  107.0  107.0   1.70   1.25  283.5   49.1   58.0    1.2   1.25   1.06    0.00   12.27
 1988 009   162   159  215.2  112.0  103.3   1.70   1.20  285.0   47.4   55.9    1.2   1.20   1.06    0.00   12.61
 1988 010   163   160  216.4  116.9   99.4   1.70   1.16  286.3   45.6   53.8    1.2   1.16   1.05    0.00   12.96
 1988 011   164   161  217.5  122.0   95.4   1.70   1.11  287.6   43.8   51.7    1.1   1.11   1.06    0.00   13.31
 1988 012   165   162  218.6  127.0   91.6   1.70   1.07  288.9   42.0   49.6    1.1   1.07   1.05    0.00   13.66
 1988 013   166   163  219.5  131.4   88.0   1.70   1.03  289.9   40.5   47.5    1.0   1.03   1.06    0.00   14.01
 1988 014   167   164  220.4  136.0   84.4   1.70   0.98  290.9   38.7   45.7    1.0   0.98   1.06    0.00   14.36
 1988 015   168   165  221.6  140.4   81.2   1.69   0.95  292.2   37.2   44.0    0.9   0.95   1.06    0.00   14.72
 1988 016   169   166  222.7  144.6   78.1   1.68   0.91  293.4   35.8   42.3    0.9   0.91   1.06    0.00   15.07
 1988 017   170   167  223.9  148.9   75.0   1.68   0.87  294.7   34.4   40.6    0.9   0.87   1.06    0.00   15.42
 1988 018   171   168  224.9  152.9   72.0   1.67   0.85  295.7   33.5   38.4    0.9   0.85   1.06    0.00   15.77
 1988 019   172   169  225.3  156.3   69.0   1.66   0.83  296.2   32.6   36.4    0.8   0.83   1.07    0.00   16.12
 1988 020   173   170  225.7  159.8   65.9   1.65   0.80  296.6   31.5   34.4    0.8   0.80   1.07    0.00   16.48
 1988 021   174   171  225.9  163.0   62.9   1.64   0.77  296.8   30.2   32.7    0.8   0.77   1.08    0.00   16.83
 1988 022   175   172  225.9  163.0   62.9   1.64   0.77  297.0   30.2   32.7    0.8   0.77   1.08    0.00   16.83
 1988 023   176   173  225.9  163.0   62.9   1.64   0.77  297.2   30.2   32.7    0.8   0.77   1.08    0.00   16.83
 1988 024   177   174  225.9  163.0   62.9   1.64   0.77  297.5   30.2   32.7    0.8   0.77   1.08    0.00   16.83
 1988 025   178   175  225.9  163.0   62.9   1.64   0.77  297.7   30.2   32.7    0.8   0.77   1.08    0.00   16.83

*DSSAT Cropping System Model Ver. 4.0.2.000               Aug 03, 2016; 15:38:59

*RUN   2        : UYMZ                    
 MODEL          : MZCER040 - Maize           
 EXPERIMENT     : UYMZ0134 MZ    late to create DSS                             
 TREATMENT  1   : UYMZ                    

@YEAR DOY   DAS   DAP   CNAD   GNAD   VNAD   GN%D   VN%D   NUPC   LNAD   SNAD   LN%D   SN%D   RN%D   SNN0C   SNN1C
 1988 215     3     0    0.0    0.0    0.0   0.00   0.00    0.0    0.0    0.0    0.0   0.00   0.00    0.00    0.00
 1988 216     4     1    0.0    0.0    0.0   0.00   0.00    0.0    0.0    0.0    0.0   0.00   0.00    0.00    0.00
 1988 217     5     2    0.0    0.0    0.0   0.00   0.00    0.0    0.0    0.0    0.0   0.00   0.00    0.00    0.00
 1988 218     6     3    0.0    0.0    0.0   0.00   0.00    0.0    0.0    0.0    0.0   0.00   0.00    0.00    0.00
 1988 219     7     4    0.0    0.0    0.0   0.00   0.00    0.0    0.0    0.0    0.0   0.00   0.00    0.00    0.00
 1988 220     8     5    0.0    0.0    0.0   0.00   0.00    0.0    0.0    0.0    0.0   0.00   0.00    0.00    0.00
 1988 221     9     6    0.0    0.0    0.0   0.00   0.00    0.0    0.0    0.0    0.0   0.00   0.00    0.00    0.00
 1988 222    10     7    0.0    0.0    0.0   0.00   0.00    0.0    0.0    0.0    0.0   0.00   0.00    0.00    0.00
 1988 223    11     8    0.0    0.0    0.0   0.00   0.00    0.0    0.0    0.0    0.0   0.00   0.00    0.00    0.00
 1988 224    12     9    0.0    0.0    0.0   0.00   0.00    0.0    0.0    0.0    0.0   0.00   0.00    0.00    0.00
 1988 225    13    10    0.0    0.0    0.0   0.00   0.00    0.0    0.0    0.0    0.0   0.00   0.00    0.00    0.00
 1988 226    14    11    0.0    0.0    0.0   0.00   0.00    0.0    0.0    0.0    0.0   0.00   0.00    0.00    0.00
 1988 227    15    12    0.0    0.0    0.0   0.00   0.00    0.0    0.0    0.0    0.0   0.00   0.00    0.00    0.00
 1988 228    16    13    0.0    0.0    0.0   0.00   0.00    0.0    0.0    0.0    0.0   0.00   0.00    0.00    0.00
 1988 229    17    14    1.2    0.0    1.2   0.00   4.40    0.0    0.6    0.6    4.4   4.40   0.00    0.00    0.00
 1988 230    18    15    1.3    0.0    1.3   0.00   4.55    0.2    0.6    0.6    4.6   4.55   1.08    0.00    0.00
 1988 231    19    16    1.3    0.0    1.3   0.00   4.55    0.2    0.6    0.6    4.6   4.55   1.06    0.00    0.00
 1988 232    20    17    1.3    0.0    1.3   0.00   4.55    0.2    0.6    0.6    4.6   4.55   1.05    0.00    0.00
 1988 233    21    18    1.3    0.0    1.3   0.00   4.55    0.2    0.6    0.6    4.6   4.55   1.00    0.00    0.00
 1988 234    22    19    1.2    0.0    1.2   0.00   4.46    0.2    0.6    0.6    4.5   4.46   1.16    0.00    0.00
 1988 235    23    20    1.2    0.0    1.2   0.00   4.44    0.2    0.6    0.6    4.4   4.44   1.17    0.00    0.00
 1988 236    24    21    1.2    0.0    1.2   0.00   4.41    0.2    0.6    0.6    4.4   4.41   1.16    0.00    0.00
 1988 237    25    22    1.2    0.0    1.2   0.00   4.38    0.3    0.6    0.6    4.4   4.38   1.17    0.00    0.00
 1988 238    26    23    1.2    0.0    1.2   0.00   4.37    0.3    0.6    0.6    4.4   4.37   1.28    0.00    0.01
 1988 239    27    24    1.2    0.0    1.2   0.00   4.37    0.4    0.6    0.6    4.4   4.37   1.41    0.00    0.01
 1988 240    28    25    1.2    0.0    1.2   0.00   4.37    0.4    0.6    0.6    4.4   4.37   1.36    0.00    0.01
 1988 241    29    26    1.2    0.0    1.2   0.00   4.37    0.4    0.6    0.6    4.4   4.37   1.34    0.00    0.01
 1988 242    30    27    1.2    0.0    1.2   0.00   4.37    0.4    0.6    0.6    4.4   4.37   1.31    0.00    0.01
 1988 243    31    28    1.2    0.0    1.2   0.00   3.97    0.4    0.7    0.6    4.0   3.97   1.26    0.00    0.01
 1988 244    32    29    1.3    0.0    1.3   0.00   3.89    0.5    0.8    0.5    3.9   3.89   1.14    0.00    0.01
 1988 245    33    30    1.5    0.0    1.5   0.00   4.17    0.7    0.9    0.6    4.2   4.17   1.26    0.00    0.01
 1988 246    34    31    1.5    0.0    1.5   0.00   4.25    0.7    0.9    0.6    4.3   4.25   1.31    0.00    0.01
 1988 247    35    32    1.5    0.0    1.5   0.00   4.13    0.7    0.9    0.6    4.1   4.13   1.28    0.00    0.01
 1988 248    36    33    1.5    0.0    1.5   0.00   3.86    0.7    1.0    0.5    3.9   3.86   1.27    0.00    0.01
 1988 249    37    34    1.7    0.0    1.7   0.00   3.69    0.8    1.2    0.5    3.7   3.69   1.07    0.00    0.02
 1988 250    38    35    1.9    0.0    1.9   0.00   3.77    1.1    1.4    0.5    3.8   3.77   1.08    0.00    0.02
 1988 251    39    36    2.2    0.0    2.2   0.00   3.72    1.3    1.6    0.5    3.7   3.72   1.08    0.00    0.02
 1988 252    40    37    2.4    0.0    2.4   0.00   3.50    1.6    2.0    0.5    3.5   3.50   1.11    0.00    0.02
 1988 253    41    38    2.9    0.0    2.9   0.00   3.88    2.2    2.4    0.5    3.9   3.88   1.13    0.00    0.02
 1988 254    42    39    3.1    0.0    3.1   0.00   4.05    2.4    2.6    0.6    4.1   4.05   1.15    0.00    0.03
 1988 255    43    40    3.2    0.0    3.2   0.00   3.87    2.6    2.7    0.5    3.9   3.87   1.22    0.00    0.03
 1988 256    44    41    3.4    0.0    3.4   0.00   3.73    3.0    2.9    0.5    3.7   3.73   1.28    0.00    0.03
 1988 257    45    42    3.8    0.0    3.8   0.00   3.73    3.6    3.3    0.5    3.7   3.73   1.29    0.00    0.03
 1988 258    46    43    4.2    0.0    4.2   0.00   3.91    4.3    3.6    0.5    3.9   3.91   1.38    0.00    0.04
 1988 259    47    44    4.4    0.0    4.4   0.00   4.03    4.7    3.8    0.6    4.0   4.03   1.47    0.00    0.05
 1988 260    48    45    4.4    0.0    4.4   0.00   3.96    4.7    3.9    0.6    4.0   3.96   1.40    0.00    0.05
 1988 261    49    46    4.4    0.0    4.4   0.00   3.88    4.7    3.9    0.5    3.9   3.88   1.36    0.00    0.05
 1988 262    50    47    4.4    0.0    4.4   0.00   3.57    4.7    3.9    0.5    3.6   3.57   1.34    0.00    0.05
 1988 263    51    48    5.0    0.0    5.0   0.00   3.64    5.1    4.5    0.5    3.6   3.64   1.11    0.00    0.05
 1988 264    52    49    5.6    0.0    5.6   0.00   3.63    5.6    5.1    0.5    3.6   3.63   1.09    0.00    0.06
 1988 265    53    50    6.2    0.0    6.2   0.00   3.72    6.2    5.7    0.5    3.7   3.72   1.09    0.00    0.07
 1988 266    54    51    6.6    0.0    6.6   0.00   3.68    6.7    6.1    0.5    3.7   3.68   1.09    0.00    0.07
 1988 267    55    52    7.2    0.0    7.2   0.00   3.46    7.3    6.7    0.5    3.5   3.46   1.11    0.00    0.08
 1988 268    56    53    8.2    0.0    8.2   0.00   3.51    8.5    7.7    0.5    3.5   3.51   1.15    0.00    0.09
 1988 269    57    54    9.2    0.0    9.2   0.00   3.78    9.6    8.7    0.5    3.8   3.78   1.14    0.00    0.09
 1988 270    58    55    9.6    0.0    9.6   0.00   3.85   10.1    9.1    0.5    3.8   3.85   1.16    0.00    0.10
 1988 271    59    56    9.8    0.0    9.8   0.00   3.75   10.4    9.3    0.5    3.8   3.75   1.18    0.00    0.11
 1988 272    60    57   10.2    0.0   10.2   0.00   3.75   11.6    9.7    0.5    3.7   3.75   1.32    0.00    0.12
 1988 273    61    58   10.7    0.0   10.7   0.00   3.60   12.6   10.2    0.5    3.6   3.60   1.28    0.00    0.13
 1988 274    62    59   11.5    0.0   11.5   0.00   3.78   14.2   10.9    0.5    3.8   3.78   1.29    0.00    0.15
 1988 275    63    60   11.8    0.0   11.8   0.00   3.37   14.7   11.4    0.5    3.4   3.37   1.18    0.00    0.17
 1988 276    64    61   13.4    0.0   13.4   0.00   3.34   16.2   12.9    0.5    3.3   3.34   1.11    0.00    0.19
 1988 277    65    62   16.3    0.0   16.3   0.00   3.85   20.0   15.8    0.5    3.8   3.85   1.24    0.00    0.21
 1988 278    66    63   16.8    0.0   16.8   0.00   3.68   21.7   16.3    0.5    3.7   3.68   1.26    0.00    0.23
 1988 279    67    64   17.6    0.0   17.6   0.00   3.58   23.5   17.1    0.5    3.6   3.58   1.25    0.00    0.26
 1988 280    68    65   18.8    0.0   18.8   0.00   3.56   25.8   18.3    0.5    3.6   3.56   1.23    0.00    0.30
 1988 281    69    66   20.4    0.0   20.4   0.00   3.53   28.4   19.9    0.5    3.5   3.53   1.21    0.00    0.34
 1988 282    70    67   22.2    0.0   22.2   0.00   3.50   30.9   21.6    0.6    3.5   3.50   1.18    0.00    0.39
 1988 283    71    68   23.7    0.0   23.7   0.00   3.47   32.2   23.0    0.6    3.5   3.47   1.11    0.00    0.43
 1988 284    72    69   25.0    0.0   25.0   0.00   3.45   35.6   24.4    0.7    3.4   3.45   1.19    0.00    0.48
 1988 285    73    70   27.5    0.0   27.5   0.00   3.42   38.6   26.7    0.8    3.4   3.42   1.15    0.00    0.54
 1988 286    74    71   29.7    0.0   29.7   0.00   3.39   42.5   28.8    0.9    3.4   3.39   1.18    0.00    0.60
 1988 287    75    72   31.2    0.0   31.2   0.00   3.37   44.9   30.2    1.0    3.4   3.37   1.16    0.00    0.67
 1988 288    76    73   33.3    0.0   33.3   0.00   3.35   47.9   32.0    1.2    3.4   3.35   1.15    0.00    0.75
 1988 289    77    74   34.5    0.0   34.5   0.00   3.37   50.7   33.2    1.3    3.4   3.37   1.18    0.00    0.83
 1988 290    78    75   35.5    0.0   35.5   0.00   3.34   53.5   34.1    1.5    3.3   3.34   1.19    0.00    0.91
 1988 291    79    76   37.0    0.0   37.0   0.00   3.31   55.3   35.3    1.7    3.3   3.31   1.14    0.00    1.01
 1988 292    80    77   39.6    0.0   39.6   0.00   3.28   59.3   37.6    2.0    3.3   3.28   1.14    0.00    1.11
 1988 293    81    78   42.1    0.0   42.1   0.00   3.26   61.2   39.7    2.4    3.3   3.26   1.09    0.00    1.21
 1988 294    82    79   44.6    0.0   44.6   0.00   3.23   66.5   41.7    2.9    3.2   3.23   1.15    0.00    1.31
 1988 295    83    80   47.2    0.0   47.2   0.00   3.21   70.2   43.8    3.4    3.2   3.21   1.13    0.00    1.43
 1988 296    84    81   51.1    0.0   51.1   0.00   3.17   73.4   46.8    4.4    3.2   3.17   1.09    0.00    1.55
 1988 297    85    82   54.5    0.0   54.5   0.00   3.14   79.6   49.3    5.2    3.1   3.14   1.14    0.00    1.66
 1988 298    86    83   57.7    0.0   57.7   0.00   3.11   84.3   51.6    6.2    3.1   3.11   1.13    0.00    1.79
 1988 299    87    84   59.9    0.0   59.9   0.00   3.09   86.1   53.0    6.8    3.1   3.09   1.09    0.00    1.93
 1988 300    88    85   61.6    0.0   61.6   0.00   3.09   91.2   54.2    7.3    3.1   3.09   1.16    0.00    2.07
 1988 301    89    86   63.9    0.0   63.9   0.00   3.06   95.0   55.7    8.2    3.1   3.06   1.14    0.00    2.22
 1988 302    90    87   67.7    0.0   67.7   0.00   3.03  100.3   58.2    9.5    3.0   3.03   1.13    0.00    2.38
 1988 303    91    88   73.0    0.0   73.0   0.00   2.99  106.1   61.4   11.6    3.0   2.99   1.11    0.00    2.55
 1988 304    92    89   76.9    0.0   76.9   0.00   2.96  108.7   63.6   13.2    3.0   2.96   1.07    0.00    2.72
 1988 305    93    90   79.9    0.0   79.9   0.00   2.94  115.0   65.3   14.6    2.9   2.94   1.12    0.00    2.88
 1988 306    94    91   82.3    0.0   82.3   0.00   2.93  120.1   66.6   15.7    2.9   2.93   1.13    0.00    3.06
 1988 307    95    92   84.8    0.0   84.8   0.00   2.91  124.7   68.0   16.8    2.9   2.91   1.13    0.00    3.26
 1988 308    96    93   88.7    0.0   88.7   0.00   2.89  130.1   70.0   18.7    2.9   2.89   1.12    0.00    3.46
 1988 309    97    94   93.2    0.0   93.2   0.00   2.86  136.0   72.2   21.0    2.9   2.86   1.11    0.00    3.67
 1988 310    98    95   99.0    0.0   99.0   0.00   2.83  143.1   75.0   24.1    2.8   2.83   1.11    0.00    3.89
 1988 311    99    96  105.6    0.0  105.6   0.00   2.79  150.7   77.9   27.7    2.8   2.79   1.10    0.00    4.12
 1988 312   100    97  113.0    0.0  113.0   0.00   2.76  159.0   80.9   32.1    2.8   2.76   1.10    0.00    4.35
 1988 313   101    98  122.3    0.0  122.3   0.00   2.73  167.2   89.0   33.3    2.7   2.73   1.07    0.00    4.58
 1988 314   102    99  131.7    0.0  131.7   0.00   2.70  178.0   93.8   37.9    2.7   2.70   1.09    0.00    4.81
 1988 315   103   100  137.6    0.0  137.6   0.00   2.67  184.7   96.3   41.3    2.7   2.67   1.09    0.00    5.04
 1988 316   104   101  145.0    0.0  145.0   0.00   2.64  191.3   98.9   46.1    2.6   2.64   1.07    0.00    5.28
 1988 317   105   102  151.4    0.0  151.4   0.00   2.61  199.1  100.9   50.6    2.6   2.61   1.09    0.00    5.52
 1988 318   106   103  158.0    0.0  158.0   0.00   2.58  207.5  102.6   55.4    2.6   2.58   1.10    0.00    5.76
 1988 319   107   104  163.1    0.0  163.1   0.00   2.56  214.4  103.8   59.3    2.6   2.56   1.10    0.00    6.01
 1988 320   108   105  167.8    0.0  167.8   0.00   2.53  220.5  104.7   63.1    2.5   2.53   1.10    0.00    6.27
 1988 321   109   106  173.0    0.0  173.0   0.00   2.47  225.6  105.0   67.9    2.5   2.47   1.08    0.00    6.54
 1988 322   110   107  177.3    0.0  177.3   0.00   2.40  230.3  104.5   72.8    2.4   2.40   1.08    0.00    6.80
 1988 323   111   108  182.0    0.0  182.0   0.00   2.40  234.5  105.8   76.2    2.4   2.40   1.07    0.00    7.07
 1988 324   112   109  185.1    0.0  185.1   0.00   2.33  238.1  104.9   80.2    2.3   2.33   1.07    0.00    7.33
 1988 325   113   110  188.0    0.0  188.0   0.00   2.27  241.2  104.3   83.7    2.3   2.27   1.07    0.00    7.60
 1988 326   114   111  191.0    0.0  191.0   0.00   2.26  244.2  104.8   86.1    2.3   2.26   1.07    0.00    7.87
 1988 327   115   112  192.7    0.0  192.7   0.00   2.23  246.5  104.6   88.1    2.2   2.23   1.05    0.00    8.14
 1988 328   116   113  194.0    0.0  194.0   0.00   2.20  248.6  104.1   89.8    2.2   2.20   1.03    0.00    8.41
 1988 329   117   114  195.4    0.0  195.4   0.00   2.16  250.7  103.5   91.9    2.2   2.16   1.01    0.00    8.69
 1988 330   118   115  196.5    0.0  196.5   0.00   2.11  252.4  102.6   93.9    2.1   2.11   0.99    0.00    8.96
 1988 331   119   116  197.6    0.0  197.6   0.00   2.30  253.8  110.7   86.9    2.3   2.30   0.99    0.00    9.24
 1988 332   120   117  196.1    0.0  196.1   0.00   2.29  255.1  108.8   87.2    2.3   2.29   1.00    0.00    9.53
 1988 333   121   118  194.3    0.0  194.3   0.00   2.27  256.2  106.8   87.5    2.3   2.27   1.02    0.00    9.82
 1988 334   122   119  192.2    0.0  192.2   0.00   2.24  257.2  104.4   87.8    2.2   2.24   1.04    0.00   10.13
 1988 335   123   120  188.6    0.0  188.6   0.00   2.19  258.0  101.0   87.5    2.2   2.19   1.08    0.00   10.46
 1988 336   124   121  188.6    0.0  188.6   0.00   2.19  258.0   99.5   89.0    2.2   2.19   1.07    0.00   10.46
 1988 337   125   122  188.6    0.0  188.6   0.00   2.18  258.0   98.0   90.6    2.2   2.18   1.06    0.00   10.46
 1988 338   126   123  188.6    0.0  188.6   0.00   2.18  258.0   96.2   92.3    2.2   2.18   1.04    0.00   10.46
 1988 339   127   124  188.6    0.0  188.6   0.00   2.17  258.0   94.4   94.2    2.2   2.17   1.02    0.00   10.46
 1988 340   128   125  188.6    0.0  188.6   0.00   2.16  258.0   92.5   96.1    2.2   2.16   1.01    0.00   10.46
 1988 341   129   126  188.6    0.0  188.6   0.00   2.15  258.0   90.5   98.0    2.2   2.15   1.00    0.00   10.46
 1988 342   130   127  188.6    0.0  188.6   0.00   2.15  258.0   88.8   99.8    2.2   2.15   1.01    0.00   10.46
 1988 343   131   128  188.6    0.0  188.6   0.00   2.16  258.0   87.0  101.5    2.2   2.16   1.00    0.00   10.46
 1988 344   132   129  188.6    4.7  183.8   1.70   2.10  258.0   84.9   99.0    2.1   2.10   0.99    0.00   10.46
 1988 345   133   130  188.6    9.5  179.1   1.70   2.05  258.0   82.7   96.4    2.0   2.05   0.99    0.00   10.46
 1988 346   134   131  188.6   15.1  173.5   1.70   1.98  258.0   80.1   93.4    2.0   1.98   0.98    0.00   10.46
 1988 347   135   132  188.6   19.8  168.8   1.70   1.95  258.0   78.7   90.1    1.9   1.95   0.99    0.00   10.46
 1988 348   136   133  188.6   25.4  163.2   1.70   1.87  258.0   75.3   87.8    1.9   1.87   0.98    0.00   10.46
 1988 349   137   134  184.6   30.4  154.2   1.70   1.76  261.4   71.2   83.0    1.8   1.76   1.08    0.00   10.81
 1988 350   138   135  187.9   36.0  151.9   1.70   1.74  265.1   70.1   81.8    1.7   1.74   1.08    0.00   11.19
 1988 351   139   136  190.5   41.4  149.0   1.70   1.70  268.1   68.8   80.2    1.7   1.70   1.08    0.00   11.58
 1988 352   140   137  191.5   47.0  144.4   1.70   1.65  268.3   66.7   77.8    1.7   1.65   1.07    0.00   11.97
 1988 353   141   138  194.2   52.6  141.5   1.70   1.62  271.7   65.3   76.2    1.6   1.62   1.07    0.00   12.35
 1988 354   142   139  196.1   58.2  137.9   1.70   1.58  273.6   63.6   74.2    1.6   1.58   1.07    0.00   12.74
 1988 355   143   140  197.3   61.9  135.5   1.70   1.55  275.3   62.5   72.9    1.5   1.55   1.07    0.00   13.13
 1988 356   144   141  198.5   66.2  132.3   1.70   1.51  276.8   61.1   71.2    1.5   1.51   1.06    0.00   13.52
 1988 357   145   142  199.7   71.8  127.9   1.70   1.46  278.1   59.0   68.9    1.5   1.46   1.06    0.00   13.91
 1988 358   146   143  200.7   77.4  123.4   1.70   1.41  279.3   57.0   66.4    1.4   1.41   1.06    0.00   14.30
 1988 359   147   144  201.6   83.0  118.6   1.70   1.36  280.3   54.7   63.9    1.4   1.36   1.06    0.00   14.69
 1988 360   148   145  202.6   88.7  113.9   1.70   1.30  281.5   52.6   61.3    1.3   1.30   1.05    0.00   15.08
 1988 361   149   146  203.7   94.3  109.4   1.70   1.25  282.7   50.5   58.9    1.3   1.25   1.05    0.00   15.48
 1988 362   150   147  204.8   99.6  105.2   1.70   1.21  283.8   48.7   56.4    1.2   1.21   1.06    0.00   15.87
 1988 363   151   148  205.8  104.8  101.0   1.69   1.15  284.9   46.6   54.4    1.2   1.15   1.06    0.00   16.26
 1988 364   152   149  206.7  108.6   98.1   1.68   1.12  285.9   45.3   52.8    1.1   1.12   1.05    0.00   16.66
 1988 365   153   150  207.4  112.9   94.5   1.68   1.08  286.7   43.6   50.9    1.1   1.08   1.05    0.00   17.05
 1988 366   154   151  208.4  117.7   90.7   1.66   1.04  287.8   41.9   48.8    1.0   1.04   1.05    0.00   17.44
 1989 001   155   152  209.1  122.5   86.6   1.66   0.99  288.7   40.0   46.6    1.0   0.99   1.05    0.00   17.84
 1989 002   156   153  210.0  127.2   82.9   1.65   0.95  289.7   38.2   44.6    0.9   0.95   1.04    0.00   18.23
 1989 003   157   154  210.9  131.6   79.3   1.63   0.91  290.7   36.6   42.7    0.9   0.91   1.04    0.00   18.63
 1989 004   158   155  211.7  136.0   75.7   1.62   0.87  291.6   35.0   40.8    0.9   0.87   1.04    0.00   19.02
 1989 005   159   156  212.5  140.1   72.4   1.61   0.83  292.5   33.4   39.0    0.8   0.83   1.04    0.00   19.42
 1989 006   160   157  213.5  144.1   69.4   1.59   0.79  293.6   32.0   37.4    0.8   0.79   1.04    0.00   19.82
 1989 007   161   158  214.3  148.0   66.3   1.58   0.76  294.4   30.6   35.7    0.8   0.76   1.05    0.00   20.21
 1989 008   162   159  215.2  151.6   63.6   1.56   0.73  295.4   29.4   34.2    0.7   0.73   1.05    0.00   20.61
 1989 009   163   160  215.8  155.0   60.8   1.55   0.69  296.1   28.1   32.7    0.7   0.69   1.05    0.00   21.01
 1989 010   164   161  216.9  158.3   58.6   1.53   0.67  297.2   27.0   31.5    0.7   0.67   1.06    0.00   21.40
 1989 011   165   162  217.6  161.4   56.2   1.51   0.64  298.0   25.9   30.3    0.6   0.64   1.06    0.00   21.80
 1989 012   166   163  217.6  161.4   56.2   1.51   0.64  298.8   25.9   30.3    0.6   0.64   1.06    0.00   21.80
 1989 013   167   164  217.6  161.4   56.2   1.51   0.64  299.5   25.9   30.3    0.6   0.64   1.06    0.00   21.80
 1989 014   168   165  217.6  161.4   56.2   1.51   0.64  300.3   25.9   30.3    0.6   0.64   1.06    0.00   21.80

*DSSAT Cropping System Model Ver. 4.0.2.000               Aug 03, 2016; 15:38:59

*RUN   3        : UYMZ                    
 MODEL          : MZCER040 - Maize           
 EXPERIMENT     : UYMZ0134 MZ    late to create DSS                             
 TREATMENT  1   : UYMZ                    

@YEAR DOY   DAS   DAP   CNAD   GNAD   VNAD   GN%D   VN%D   NUPC   LNAD   SNAD   LN%D   SN%D   RN%D   SNN0C   SNN1C
 1989 215     3     0    0.0    0.0    0.0   0.00   0.00    0.0    0.0    0.0    0.0   0.00   0.00    0.00    0.00
 1989 216     4     1    0.0    0.0    0.0   0.00   0.00    0.0    0.0    0.0    0.0   0.00   0.00    0.00    0.00
 1989 217     5     2    0.0    0.0    0.0   0.00   0.00    0.0    0.0    0.0    0.0   0.00   0.00    0.00    0.00
 1989 218     6     3    0.0    0.0    0.0   0.00   0.00    0.0    0.0    0.0    0.0   0.00   0.00    0.00    0.00
 1989 219     7     4    0.0    0.0    0.0   0.00   0.00    0.0    0.0    0.0    0.0   0.00   0.00    0.00    0.00
 1989 220     8     5    0.0    0.0    0.0   0.00   0.00    0.0    0.0    0.0    0.0   0.00   0.00    0.00    0.00
 1989 221     9     6    0.0    0.0    0.0   0.00   0.00    0.0    0.0    0.0    0.0   0.00   0.00    0.00    0.00
 1989 222    10     7    0.0    0.0    0.0   0.00   0.00    0.0    0.0    0.0    0.0   0.00   0.00    0.00    0.00
 1989 223    11     8    0.0    0.0    0.0   0.00   0.00    0.0    0.0    0.0    0.0   0.00   0.00    0.00    0.00
 1989 224    12     9    0.0    0.0    0.0   0.00   0.00    0.0    0.0    0.0    0.0   0.00   0.00    0.00    0.00
 1989 225    13    10    0.0    0.0    0.0   0.00   0.00    0.0    0.0    0.0    0.0   0.00   0.00    0.00    0.00
 1989 226    14    11    1.2    0.0    1.2   0.00   4.40    0.0    0.6    0.6    4.4   4.40   0.00    0.00    0.00
 1989 227    15    12    1.3    0.0    1.3   0.00   4.52    0.2    0.6    0.6    4.5   4.52   1.10    0.00    0.00
 1989 228    16    13    1.3    0.0    1.3   0.00   4.49    0.2    0.6    0.6    4.5   4.49   1.12    0.00    0.00
 1989 229    17    14    1.2    0.0    1.2   0.00   4.46    0.2    0.6    0.6    4.5   4.46   1.13    0.00    0.00
 1989 230    18    15    1.2    0.0    1.2   0.00   4.43    0.2    0.6    0.6    4.4   4.43   1.15    0.00    0.00
 1989 231    19    16    1.2    0.0    1.2   0.00   4.43    0.2    0.6    0.6    4.4   4.43   1.11    0.00    0.00
 1989 232    20    17    1.2    0.0    1.2   0.00   4.43    0.2    0.6    0.6    4.4   4.43   1.07    0.00    0.00
 1989 233    21    18    1.2    0.0    1.2   0.00   4.36    0.2    0.6    0.6    4.4   4.36   1.13    0.00    0.00
 1989 234    22    19    1.2    0.0    1.2   0.00   4.36    0.2    0.6    0.6    4.4   4.36   1.22    0.00    0.00
 1989 235    23    20    1.2    0.0    1.2   0.00   4.35    0.3    0.6    0.6    4.3   4.35   1.31    0.00    0.01
 1989 236    24    21    1.2    0.0    1.2   0.00   4.34    0.3    0.6    0.6    4.3   4.34   1.22    0.00    0.01
 1989 237    25    22    1.2    0.0    1.2   0.00   4.19    0.4    0.6    0.6    4.2   4.19   1.35    0.00    0.01
 1989 238    26    23    1.2    0.0    1.2   0.00   4.04    0.4    0.7    0.6    4.0   4.04   1.19    0.00    0.01
 1989 239    27    24    1.3    0.0    1.3   0.00   4.18    0.6    0.7    0.6    4.2   4.18   1.39    0.00    0.01
 1989 240    28    25    1.4    0.0    1.4   0.00   4.07    0.7    0.8    0.6    4.1   4.07   1.26    0.00    0.02
 1989 241    29    26    1.4    0.0    1.4   0.00   3.66    0.7    0.9    0.5    3.7   3.66   1.16    0.00    0.02
 1989 242    30    27    1.7    0.0    1.7   0.00   3.85    1.0    1.1    0.5    3.9   3.85   1.14    0.00    0.02
 1989 243    31    28    1.9    0.0    1.9   0.00   4.01    1.2    1.3    0.6    4.0   4.01   1.08    0.00    0.02
 1989 244    32    29    2.0    0.0    2.0   0.00   4.02    1.4    1.4    0.6    4.0   4.02   1.22    0.00    0.03
 1989 245    33    30    2.1    0.0    2.1   0.00   4.06    1.6    1.5    0.6    4.1   4.06   1.24    0.00    0.03
 1989 246    34    31    2.2    0.0    2.2   0.00   3.77    1.7    1.6    0.5    3.8   3.77   1.16    0.00    0.03
 1989 247    35    32    2.4    0.0    2.4   0.00   3.52    2.0    1.9    0.5    3.5   3.52   1.15    0.00    0.04
 1989 248    36    33    2.9    0.0    2.9   0.00   3.85    2.4    2.3    0.5    3.8   3.85   1.12    0.00    0.04
 1989 249    37    34    3.1    0.0    3.1   0.00   3.98    2.9    2.5    0.6    4.0   3.98   1.30    0.00    0.04
 1989 250    38    35    3.2    0.0    3.2   0.00   3.92    3.2    2.7    0.5    3.9   3.92   1.29    0.00    0.05
 1989 251    39    36    3.4    0.0    3.4   0.00   3.98    3.4    2.9    0.6    4.0   3.98   1.24    0.00    0.06
 1989 252    40    37    3.6    0.0    3.6   0.00   3.77    3.6    3.0    0.5    3.8   3.77   1.16    0.00    0.06
 1989 253    41    38    3.9    0.0    3.9   0.00   3.78    4.0    3.4    0.5    3.8   3.78   1.13    0.00    0.07
 1989 254    42    39    4.2    0.0    4.2   0.00   3.72    4.3    3.7    0.5    3.7   3.72   1.08    0.00    0.08
 1989 255    43    40    4.6    0.0    4.6   0.00   3.67    4.7    4.1    0.5    3.7   3.67   1.08    0.00    0.08
 1989 256    44    41    5.1    0.0    5.1   0.00   3.75    5.2    4.6    0.5    3.8   3.75   1.09    0.00    0.09
 1989 257    45    42    5.6    0.0    5.6   0.00   3.77    5.8    5.0    0.5    3.8   3.77   1.15    0.00    0.09
 1989 258    46    43    6.0    0.0    6.0   0.00   3.86    6.7    5.4    0.5    3.9   3.86   1.35    0.00    0.10
 1989 259    47    44    6.2    0.0    6.2   0.00   3.82    7.0    5.7    0.5    3.8   3.82   1.22    0.00    0.11
 1989 260    48    45    6.6    0.0    6.6   0.00   3.77    7.9    6.0    0.5    3.8   3.77   1.28    0.00    0.12
 1989 261    49    46    7.0    0.0    7.0   0.00   3.68    8.7    6.5    0.5    3.7   3.68   1.23    0.00    0.13
 1989 262    50    47    7.6    0.0    7.6   0.00   3.51    9.6    7.1    0.5    3.5   3.51   1.20    0.00    0.15
 1989 263    51    48    8.5    0.0    8.5   0.00   3.52   11.1    8.0    0.5    3.5   3.52   1.21    0.00    0.17
 1989 264    52    49    9.5    0.0    9.5   0.00   3.48   12.5    9.1    0.5    3.5   3.48   1.19    0.00    0.18
 1989 265    53    50   10.7    0.0   10.7   0.00   3.56   13.4   10.2    0.5    3.6   3.56   1.09    0.00    0.20
 1989 266    54    51   11.8    0.0   11.8   0.00   3.68   14.6   11.2    0.5    3.7   3.68   1.11    0.00    0.22
 1989 267    55    52   12.4    0.0   12.4   0.00   3.86   15.8   11.9    0.5    3.9   3.86   1.20    0.00    0.24
 1989 268    56    53   12.5    0.0   12.5   0.00   4.15   16.8   12.0    0.6    4.2   4.15   1.35    0.00    0.27
 1989 269    57    54   12.5    0.0   12.5   0.00   4.05   16.8   12.0    0.6    4.1   4.05   1.26    0.00    0.27
 1989 270    58    55   11.8    0.0   11.8   0.00   3.73   16.8   11.3    0.5    3.7   3.73   1.32    0.00    0.30
 1989 271    59    56   12.6    0.0   12.6   0.00   3.84   17.3   12.0    0.5    3.8   3.84   1.19    0.00    0.33
 1989 272    60    57   12.7    0.0   12.7   0.00   3.71   18.4   12.2    0.5    3.7   3.71   1.23    0.00    0.36
 1989 273    61    58   13.4    0.0   13.4   0.00   3.58   19.3   12.9    0.5    3.6   3.58   1.17    0.00    0.39
 1989 274    62    59   14.9    0.0   14.9   0.00   3.54   21.1   14.3    0.5    3.5   3.54   1.14    0.00    0.43
 1989 275    63    60   16.5    0.0   16.5   0.00   3.50   22.5   16.0    0.5    3.5   3.50   1.09    0.00    0.46
 1989 276    64    61   17.8    0.0   17.8   0.00   3.47   25.4   17.3    0.6    3.5   3.47   1.19    0.00    0.50
 1989 277    65    62   19.1    0.0   19.1   0.00   3.44   27.8   18.5    0.6    3.4   3.44   1.19    0.00    0.54
 1989 278    66    63   20.9    0.0   20.9   0.00   3.41   30.5   20.3    0.7    3.4   3.41   1.17    0.00    0.59
 1989 279    67    64   22.5    0.0   22.5   0.00   3.38   32.8   21.7    0.8    3.4   3.38   1.16    0.00    0.65
 1989 280    68    65   24.3    0.0   24.3   0.00   3.35   35.2   23.4    0.9    3.4   3.35   1.13    0.00    0.70
 1989 281    69    66   25.8    0.0   25.8   0.00   3.33   37.9   24.7    1.1    3.3   3.33   1.16    0.00    0.76
 1989 282    70    67   27.2    0.0   27.2   0.00   3.31   40.9   26.0    1.2    3.3   3.31   1.17    0.00    0.83
 1989 283    71    68   29.0    0.0   29.0   0.00   3.29   43.0   27.6    1.4    3.3   3.29   1.13    0.00    0.90
 1989 284    72    69   31.3    0.0   31.3   0.00   3.26   45.3   29.6    1.7    3.3   3.26   1.10    0.00    0.98
 1989 285    73    70   32.4    0.0   32.4   0.00   3.31   47.2   30.6    1.8    3.3   3.31   1.14    0.00    1.05
 1989 286    74    71   33.1    0.0   33.1   0.00   3.27   48.6   31.2    1.9    3.3   3.27   1.14    0.00    1.13
 1989 287    75    72   34.5    0.0   34.5   0.00   3.22   51.8   32.3    2.2    3.2   3.22   1.16    0.00    1.22
 1989 288    76    73   36.7    0.0   36.7   0.00   3.20   55.1   34.1    2.6    3.2   3.20   1.15    0.00    1.31
 1989 289    77    74   38.9    0.0   38.9   0.00   3.18   59.1   35.8    3.0    3.2   3.18   1.15    0.00    1.41
 1989 290    78    75   40.8    0.0   40.8   0.00   3.16   61.0   37.4    3.4    3.2   3.16   1.11    0.00    1.51
 1989 291    79    76   43.2    0.0   43.2   0.00   3.13   64.8   39.2    4.0    3.1   3.13   1.13    0.00    1.62
 1989 292    80    77   46.5    0.0   46.5   0.00   3.10   69.7   41.6    4.9    3.1   3.10   1.13    0.00    1.73
 1989 293    81    78   50.1    0.0   50.1   0.00   3.07   74.6   44.2    5.9    3.1   3.07   1.13    0.00    1.86
 1989 294    82    79   53.9    0.0   53.9   0.00   3.03   78.2   46.8    7.1    3.0   3.03   1.09    0.00    1.98
 1989 295    83    80   57.5    0.0   57.5   0.00   3.00   84.3   49.1    8.4    3.0   3.00   1.13    0.00    2.11
 1989 296    84    81   62.0    0.0   62.0   0.00   2.97   90.0   51.9   10.1    3.0   2.97   1.12    0.00    2.25
 1989 297    85    82   64.9    0.0   64.9   0.00   2.93   91.4   53.6   11.3    2.9   2.93   1.07    0.00    2.39
 1989 298    86    83   68.5    0.0   68.5   0.00   2.91   95.0   55.7   12.8    2.9   2.91   1.07    0.00    2.53
 1989 299    87    84   71.0    0.0   71.0   0.00   2.89  100.2   57.1   14.0    2.9   2.89   1.12    0.00    2.67
 1989 300    88    85   73.1    0.0   73.1   0.00   2.87  105.0   58.2   14.9    2.9   2.87   1.14    0.00    2.82
 1989 301    89    86   76.2    0.0   76.2   0.00   2.85  109.8   59.8   16.4    2.8   2.85   1.13    0.00    2.98
 1989 302    90    87   81.0    0.0   81.0   0.00   2.82  115.7   62.3   18.8    2.8   2.82   1.12    0.00    3.16
 1989 303    91    88   85.2    0.0   85.2   0.00   2.79  118.4   64.2   20.9    2.8   2.79   1.07    0.00    3.33
 1989 304    92    89   88.4    0.0   88.4   0.00   2.77  125.0   65.7   22.7    2.8   2.77   1.12    0.00    3.50
 1989 305    93    90  100.8    0.0  100.8   0.00   2.76  136.0   75.9   24.9    2.8   2.76   1.07    0.00    3.69
 1989 306    94    91  104.2    0.0  104.2   0.00   2.73  139.1   77.7   26.6    2.7   2.73   1.07    0.00    3.87
 1989 307    95    92  109.3    0.0  109.3   0.00   2.71  144.1   79.9   29.4    2.7   2.71   1.07    0.00    4.05
 1989 308    96    93  115.8    0.0  115.8   0.00   2.69  153.4   82.4   33.5    2.7   2.69   1.11    0.00    4.23
 1989 309    97    94  121.1    0.0  121.1   0.00   2.66  160.5   84.1   37.0    2.7   2.66   1.11    0.00    4.42
 1989 310    98    95  126.3    0.0  126.3   0.00   2.64  167.3   85.7   40.6    2.6   2.64   1.11    0.00    4.62
 1989 311    99    96  131.6    0.0  131.6   0.00   2.61  170.9   87.0   44.5    2.6   2.61   1.07    0.00    4.83
 1989 312   100    97  137.5    0.0  137.5   0.00   2.58  178.9   88.5   49.1    2.6   2.58   1.10    0.00    5.03
 1989 313   101    98  143.7    0.0  143.7   0.00   2.55  186.4   89.8   53.9    2.5   2.55   1.10    0.00    5.24
 1989 314   102    99  150.0    0.0  150.0   0.00   2.51  192.9   90.9   59.1    2.5   2.51   1.09    0.00    5.46
 1989 315   103   100  152.0    0.0  152.0   0.00   2.48  194.0   90.9   61.1    2.5   2.48   1.07    0.00    5.68
 1989 316   104   101  154.6    0.0  154.6   0.00   2.46  196.5   91.2   63.4    2.5   2.46   1.07    0.00    5.89
 1989 317   105   102  157.0    0.0  157.0   0.00   2.45  202.4   91.5   65.5    2.4   2.45   1.11    0.00    6.10
 1989 318   106   103  160.1    0.0  160.1   0.00   2.43  207.8   91.9   68.2    2.4   2.43   1.12    0.00    6.33
 1989 319   107   104  164.5    0.0  164.5   0.00   2.40  213.3   92.5   72.0    2.4   2.40   1.11    0.00    6.57
 1989 320   108   105  167.7    0.0  167.7   0.00   2.38  218.7   92.8   74.8    2.4   2.38   1.11    0.00    6.82
 1989 321   109   106  170.7    0.0  170.7   0.00   2.36  223.6   93.1   77.6    2.4   2.36   1.11    0.00    7.08
 1989 322   110   107  174.9    0.0  174.9   0.00   2.32  228.6   93.5   81.3    2.3   2.32   1.10    0.00    7.35
 1989 323   111   108  179.8    0.0  179.8   0.00   2.29  233.1   94.1   85.7    2.3   2.29   1.08    0.00    7.62
 1989 324   112   109  184.1    0.0  184.1   0.00   2.26  237.5   94.5   89.6    2.3   2.26   1.08    0.00    7.89
 1989 325   113   110  187.3    0.0  187.3   0.00   2.20  241.2   94.2   93.1    2.2   2.20   1.07    0.00    8.16
 1989 326   114   111  190.0    0.0  190.0   0.00   2.42  244.4  102.4   87.7    2.4   2.42   1.07    0.00    8.43
 1989 327   115   112  190.0    0.0  190.0   0.00   2.41  244.4  100.6   89.5    2.4   2.41   1.06    0.00    8.43
 1989 328   116   113  190.0    0.0  190.0   0.00   2.40  244.4   99.2   90.9    2.4   2.40   1.03    0.00    8.43
 1989 329   117   114  190.0    0.0  190.0   0.00   2.40  244.4   97.7   92.3    2.4   2.40   1.01    0.00    8.43
 1989 330   118   115  190.0    0.0  190.0   0.00   2.39  244.4   96.1   93.9    2.4   2.39   1.00    0.00    8.43
 1989 331   119   116  190.0    0.0  190.0   0.00   2.39  244.4   94.7   95.4    2.4   2.39   0.98    0.00    8.43
 1989 332   120   117  190.0    0.0  190.0   0.00   2.39  244.4   93.2   96.9    2.4   2.39   0.95    0.00    8.43
 1989 333   121   118  190.0    0.0  190.0   0.00   2.39  244.4   91.6   98.5    2.4   2.39   0.94    0.00    8.43
 1989 334   122   119  190.0    0.0  190.0   0.00   2.38  244.4   89.7  100.3    2.4   2.38   0.92    0.00    8.43
 1989 335   123   120  190.0    0.0  190.0   0.00   2.37  244.4   87.8  102.3    2.4   2.37   0.91    0.00    8.43
 1989 336   124   121  190.0    0.0  190.0   0.00   2.37  244.4   85.8  104.3    2.4   2.37   0.91    0.00    8.43
 1989 337   125   122  190.0    0.0  190.0   0.00   2.36  244.4   83.9  106.1    2.4   2.36   0.91    0.00    8.43
 1989 338   126   123  190.0    4.0  186.1   1.70   2.32  244.4   82.2  103.9    2.3   2.32   0.90    0.00    8.43
 1989 339   127   124  190.0    9.2  180.9   1.70   2.25  244.4   79.9  101.0    2.3   2.25   0.90    0.00    8.43
 1989 340   128   125  190.0   14.4  175.7   1.70   2.19  244.4   77.6   98.1    2.2   2.19   0.90    0.00    8.43
 1989 341   129   126  190.0   19.6  170.5   1.70   2.12  244.4   75.3   95.2    2.1   2.12   0.90    0.00    8.43
 1989 342   130   127  190.0   24.8  165.3   1.70   2.06  244.4   73.0   92.3    2.1   2.06   0.89    0.00    8.43
 1989 343   131   128  190.0   30.0  160.1   1.70   1.99  244.4   70.7   89.4    2.0   1.99   0.89    0.00    8.43
 1989 344   132   129  190.0   35.2  154.8   1.70   1.93  244.4   68.4   86.4    1.9   1.93   0.89    0.00    8.43
 1989 345   133   130  190.0   40.6  149.4   1.71   1.86  244.4   66.0   83.4    1.9   1.86   0.88    0.00    8.43
 1989 346   134   131  190.0   45.9  144.1   1.71   1.79  244.4   63.6   80.4    1.8   1.79   0.88    0.00    8.43
 1989 347   135   132  179.3   51.2  128.1   1.71   1.59  246.7   56.6   71.5    1.6   1.59   1.08    0.00    8.70
 1989 348   136   133  182.2   56.4  125.7   1.71   1.56  250.2   55.5   70.2    1.6   1.56   1.08    0.00    9.04
 1989 349   137   134  185.2   61.6  123.6   1.71   1.54  253.9   54.6   69.0    1.5   1.54   1.08    0.00    9.38
 1989 350   138   135  187.0   67.0  120.0   1.71   1.49  255.7   53.0   67.0    1.5   1.49   1.07    0.00    9.73
 1989 351   139   136  187.5   70.7  116.8   1.71   1.45  256.1   51.6   65.2    1.5   1.45   1.07    0.00   10.07
 1989 352   140   137  190.7   73.7  117.0   1.71   1.46  261.0   51.7   65.3    1.5   1.46   1.08    0.00   10.42
 1989 353   141   138  194.1   78.2  115.9   1.71   1.44  264.9   51.2   64.7    1.4   1.44   1.08    0.00   10.77
 1989 354   142   139  196.6   82.4  114.3   1.71   1.42  268.2   50.5   63.8    1.4   1.42   1.08    0.00   11.12
 1989 355   143   140  198.6   86.2  112.4   1.71   1.40  270.9   49.6   62.7    1.4   1.40   1.08    0.00   11.48
 1989 356   144   141  200.8   90.6  110.2   1.71   1.37  273.6   48.7   61.5    1.4   1.37   1.08    0.00   11.84
 1989 357   145   142  202.8   95.5  107.3   1.71   1.34  276.0   47.4   59.9    1.3   1.34   1.07    0.00   12.21
 1989 358   146   143  204.7  100.7  104.0   1.71   1.29  278.1   45.9   58.1    1.3   1.29   1.07    0.00   12.57
 1989 359   147   144  207.1  105.9  101.2   1.71   1.28  280.0   45.3   55.9    1.3   1.28   1.07    0.00   12.94
 1989 360   148   145  208.8  111.1   97.7   1.71   1.22  281.7   43.4   54.2    1.2   1.22   1.07    0.00   13.30
 1989 361   149   146  210.4  116.3   94.0   1.71   1.18  283.2   41.8   52.2    1.2   1.18   1.07    0.00   13.67
 1989 362   150   147  211.6  121.6   90.0   1.71   1.12  284.4   39.8   50.3    1.1   1.12   1.07    0.00   14.03
 1989 363   151   148  212.8  126.7   86.1   1.71   1.07  285.6   38.0   48.1    1.1   1.07   1.07    0.00   14.39
 1989 364   152   149  213.9  131.6   82.3   1.70   1.02  286.7   36.4   46.0    1.0   1.02   1.08    0.00   14.76
 1989 365   153   150  214.8  136.3   78.5   1.70   0.98  287.6   34.7   43.8    1.0   0.98   1.07    0.00   15.12
 1990 001   154   151  215.9  140.3   75.6   1.69   0.94  288.8   33.4   42.2    0.9   0.94   1.07    0.00   15.48
 1990 002   155   152  216.9  144.7   72.2   1.68   0.90  289.8   31.9   40.3    0.9   0.90   1.07    0.00   15.84
 1990 003   156   153  217.9  148.8   69.0   1.67   0.86  290.8   30.5   38.5    0.9   0.86   1.06    0.00   16.21
 1990 004   157   154  218.8  152.9   65.9   1.66   0.82  291.8   29.1   36.8    0.8   0.82   1.06    0.00   16.57
 1990 005   158   155  219.7  156.8   62.9   1.64   0.78  292.8   27.8   35.1    0.8   0.78   1.06    0.00   16.93
 1990 006   159   156  220.5  160.5   60.0   1.63   0.75  293.6   26.5   33.5    0.7   0.75   1.06    0.00   17.30
 1990 007   160   157  221.5  164.1   57.4   1.62   0.71  294.7   25.4   32.1    0.7   0.71   1.06    0.00   17.66
 1990 008   161   158  221.5  164.1   57.4   1.62   0.71  295.8   25.4   32.1    0.7   0.71   1.06    0.00   17.66
 1990 009   162   159  221.5  164.1   57.4   1.62   0.71  296.9   25.4   32.1    0.7   0.71   1.06    0.00   17.66
 1990 010   163   160  221.5  164.1   57.4   1.62   0.71  298.0   25.4   32.1    0.7   0.71   1.06    0.00   17.66

*DSSAT Cropping System Model Ver. 4.0.2.000               Aug 03, 2016; 15:38:59

*RUN   4        : UYMZ                    
 MODEL          : MZCER040 - Maize           
 EXPERIMENT     : UYMZ0134 MZ    late to create DSS                             
 TREATMENT  1   : UYMZ                    

@YEAR DOY   DAS   DAP   CNAD   GNAD   VNAD   GN%D   VN%D   NUPC   LNAD   SNAD   LN%D   SN%D   RN%D   SNN0C   SNN1C
 1990 215     3     0    0.0    0.0    0.0   0.00   0.00    0.0    0.0    0.0    0.0   0.00   0.00    0.00    0.00
 1990 216     4     1    0.0    0.0    0.0   0.00   0.00    0.0    0.0    0.0    0.0   0.00   0.00    0.00    0.00
 1990 217     5     2    0.0    0.0    0.0   0.00   0.00    0.0    0.0    0.0    0.0   0.00   0.00    0.00    0.00
 1990 218     6     3    0.0    0.0    0.0   0.00   0.00    0.0    0.0    0.0    0.0   0.00   0.00    0.00    0.00
 1990 219     7     4    0.0    0.0    0.0   0.00   0.00    0.0    0.0    0.0    0.0   0.00   0.00    0.00    0.00
 1990 220     8     5    0.0    0.0    0.0   0.00   0.00    0.0    0.0    0.0    0.0   0.00   0.00    0.00    0.00
 1990 221     9     6    0.0    0.0    0.0   0.00   0.00    0.0    0.0    0.0    0.0   0.00   0.00    0.00    0.00
 1990 222    10     7    1.2    0.0    1.2   0.00   4.40    0.0    0.6    0.6    4.4   4.40   0.00    0.00    0.00
 1990 223    11     8    1.3    0.0    1.3   0.00   4.53    0.2    0.6    0.6    4.5   4.53   1.09    0.00    0.00
 1990 224    12     9    1.3    0.0    1.3   0.00   4.50    0.2    0.6    0.6    4.5   4.50   1.12    0.00    0.00
 1990 225    13    10    1.2    0.0    1.2   0.00   4.46    0.2    0.6    0.6    4.5   4.46   1.14    0.00    0.00
 1990 226    14    11    1.2    0.0    1.2   0.00   4.46    0.2    0.6    0.6    4.5   4.46   1.11    0.00    0.00
 1990 227    15    12    1.2    0.0    1.2   0.00   4.42    0.2    0.6    0.6    4.4   4.42   1.15    0.00    0.00
 1990 228    16    13    1.2    0.0    1.2   0.00   4.40    0.2    0.6    0.6    4.4   4.40   1.20    0.00    0.00
 1990 229    17    14    1.2    0.0    1.2   0.00   4.38    0.3    0.6    0.6    4.4   4.38   1.21    0.00    0.00
 1990 230    18    15    1.2    0.0    1.2   0.00   4.37    0.3    0.6    0.6    4.4   4.37   1.23    0.00    0.01
 1990 231    19    16    1.2    0.0    1.2   0.00   4.35    0.4    0.6    0.6    4.3   4.35   1.21    0.00    0.01
 1990 232    20    17    1.2    0.0    1.2   0.00   3.87    0.4    0.7    0.5    3.9   3.87   1.22    0.00    0.01
 1990 233    21    18    1.4    0.0    1.4   0.00   3.86    0.6    0.8    0.5    3.9   3.86   1.21    0.00    0.01
 1990 234    22    19    1.5    0.0    1.5   0.00   3.90    0.8    1.0    0.5    3.9   3.90   1.20    0.00    0.01
 1990 235    23    20    1.7    0.0    1.7   0.00   4.10    1.1    1.1    0.6    4.1   4.10   1.33    0.00    0.02
 1990 236    24    21    1.7    0.0    1.7   0.00   4.05    1.2    1.2    0.6    4.1   4.05   1.20    0.00    0.02
 1990 237    25    22    1.8    0.0    1.8   0.00   3.63    1.3    1.3    0.5    3.6   3.63   1.15    0.00    0.02
 1990 238    26    23    2.1    0.0    2.1   0.00   3.53    1.7    1.6    0.5    3.5   3.53   1.19    0.00    0.03
 1990 239    27    24    2.5    0.0    2.5   0.00   4.00    2.1    2.0    0.6    4.0   4.00   1.14    0.00    0.03
 1990 240    28    25    2.7    0.0    2.7   0.00   4.22    2.6    2.1    0.6    4.2   4.22   1.56    0.00    0.04
 1990 241    29    26    2.7    0.0    2.7   0.00   4.14    2.6    2.1    0.6    4.1   4.14   1.44    0.00    0.04
 1990 242    30    27    2.7    0.0    2.7   0.00   3.84    2.6    2.1    0.5    3.8   3.84   1.37    0.00    0.04
 1990 243    31    28    2.9    0.0    2.9   0.00   4.16    2.6    2.3    0.6    4.2   4.16   1.09    0.00    0.04
 1990 244    32    29    2.9    0.0    2.9   0.00   4.20    2.7    2.4    0.6    4.2   4.20   1.16    0.00    0.05
 1990 245    33    30    2.9    0.0    2.9   0.00   4.19    2.7    2.4    0.6    4.2   4.19   1.18    0.00    0.05
 1990 246    34    31    2.9    0.0    2.9   0.00   4.01    2.7    2.4    0.6    4.0   4.01   1.18    0.00    0.05
 1990 247    35    32    3.1    0.0    3.1   0.00   3.97    2.8    2.5    0.6    4.0   3.97   1.07    0.00    0.06
 1990 248    36    33    3.2    0.0    3.2   0.00   3.72    2.9    2.7    0.5    3.7   3.72   1.07    0.00    0.06
 1990 249    37    34    3.6    0.0    3.6   0.00   4.04    3.3    3.0    0.6    4.0   4.04   1.07    0.00    0.07
 1990 250    38    35    3.7    0.0    3.7   0.00   3.98    3.4    3.1    0.6    4.0   3.98   1.08    0.00    0.07
 1990 251    39    36    3.8    0.0    3.8   0.00   4.00    3.5    3.3    0.6    4.0   4.00   1.08    0.00    0.08
 1990 252    40    37    3.9    0.0    3.9   0.00   3.45    3.7    3.4    0.5    3.4   3.45   1.11    0.00    0.08
 1990 253    41    38    4.6    0.0    4.6   0.00   3.51    4.4    4.1    0.5    3.5   3.51   1.10    0.00    0.08
 1990 254    42    39    5.3    0.0    5.3   0.00   3.59    5.2    4.8    0.5    3.6   3.59   1.10    0.00    0.09
 1990 255    43    40    6.0    0.0    6.0   0.00   3.68    6.0    5.5    0.5    3.7   3.68   1.23    0.00    0.10
 1990 256    44    41    6.6    0.0    6.6   0.00   4.01    7.0    6.1    0.6    4.0   4.01   1.47    0.00    0.10
 1990 257    45    42    6.7    0.0    6.7   0.00   3.96    7.1    6.1    0.6    4.0   3.96   1.40    0.00    0.11
 1990 258    46    43    6.8    0.0    6.8   0.00   3.84    7.2    6.3    0.5    3.8   3.84   1.22    0.00    0.12
 1990 259    47    44    7.1    0.0    7.1   0.00   3.67    7.5    6.6    0.5    3.7   3.67   1.14    0.00    0.13
 1990 260    48    45    7.8    0.0    7.8   0.00   3.72    8.2    7.3    0.5    3.7   3.72   1.11    0.00    0.13
 1990 261    49    46    8.3    0.0    8.3   0.00   3.70    8.7    7.8    0.5    3.7   3.70   1.10    0.00    0.14
 1990 262    50    47    8.9    0.0    8.9   0.00   3.71    9.6    8.4    0.5    3.7   3.71   1.16    0.00    0.15
 1990 263    51    48    9.5    0.0    9.5   0.00   3.71   10.1    9.0    0.5    3.7   3.71   1.08    0.00    0.16
 1990 264    52    49   10.1    0.0   10.1   0.00   3.65   10.7    9.6    0.5    3.6   3.65   1.09    0.00    0.17
 1990 265    53    50   10.8    0.0   10.8   0.00   3.38   12.0   10.4    0.5    3.4   3.38   1.22    0.00    0.18
 1990 266    54    51   12.5    0.0   12.5   0.00   3.83   14.3   12.0    0.5    3.8   3.83   1.38    0.00    0.19
 1990 267    55    52   12.8    0.0   12.8   0.00   3.81   15.0   12.2    0.5    3.8   3.81   1.40    0.00    0.20
 1990 268    56    53   13.1    0.0   13.1   0.00   3.78   15.5   12.5    0.5    3.8   3.78   1.34    0.00    0.22
 1990 269    57    54   13.4    0.0   13.4   0.00   3.91   16.4   12.9    0.5    3.9   3.91   1.26    0.00    0.24
 1990 270    58    55   13.4    0.0   13.4   0.00   3.50   16.5   12.9    0.5    3.5   3.50   1.18    0.00    0.26
 1990 271    59    56   14.6    0.0   14.6   0.00   3.55   17.4   14.1    0.5    3.5   3.55   1.08    0.00    0.28
 1990 272    60    57   17.2    0.0   17.2   0.00   3.78   20.9   16.6    0.5    3.8   3.78   1.18    0.00    0.30
 1990 273    61    58   18.5    0.0   18.5   0.00   3.68   22.8   18.0    0.5    3.7   3.68   1.18    0.00    0.33
 1990 274    62    59   20.4    0.0   20.4   0.00   3.56   25.3   19.9    0.5    3.6   3.56   1.18    0.00    0.35
 1990 275    63    60   22.1    0.0   22.1   0.00   3.53   28.3   21.6    0.5    3.5   3.53   1.22    0.00    0.38
 1990 276    64    61   24.4    0.0   24.4   0.00   3.49   31.1   23.8    0.6    3.5   3.49   1.18    0.00    0.42
 1990 277    65    62   28.3    0.0   28.3   0.00   3.45   35.0   27.6    0.8    3.4   3.45   1.12    0.00    0.46
 1990 278    66    63   30.6    0.0   30.6   0.00   3.41   37.0   29.7    0.9    3.4   3.41   1.07    0.00    0.50
 1990 279    67    64   33.8    0.0   33.8   0.00   3.38   40.2   32.6    1.2    3.4   3.38   1.08    0.00    0.54
 1990 280    68    65   36.3    0.0   36.3   0.00   3.34   42.7   34.8    1.5    3.3   3.34   1.07    0.00    0.58
 1990 281    69    66   38.5    0.0   38.5   0.00   3.31   45.8   36.8    1.7    3.3   3.31   1.13    0.00    0.61
 1990 282    70    67   40.7    0.0   40.7   0.00   3.29   50.3   38.7    2.1    3.3   3.29   1.23    0.00    0.66
 1990 283    71    68   43.2    0.0   43.2   0.00   3.26   53.7   40.7    2.5    3.3   3.26   1.19    0.00    0.71
 1990 284    72    69   46.2    0.0   46.2   0.00   3.23   55.8   43.2    3.0    3.2   3.23   1.08    0.00    0.77
 1990 285    73    70   48.4    0.0   48.4   0.00   3.21   61.2   44.9    3.5    3.2   3.21   1.22    0.00    0.82
 1990 286    74    71   50.4    0.0   50.4   0.00   3.19   65.1   46.4    3.9    3.2   3.19   1.21    0.00    0.89
 1990 287    75    72   53.2    0.0   53.2   0.00   3.17   69.2   48.6    4.6    3.2   3.17   1.18    0.00    0.97
 1990 288    76    73   55.2    0.0   55.2   0.00   3.15   73.2   50.0    5.2    3.1   3.15   1.18    0.00    1.06
 1990 289    77    74   56.9    0.0   56.9   0.00   3.13   77.0   51.3    5.6    3.1   3.13   1.18    0.00    1.15
 1990 290    78    75   59.2    0.0   59.2   0.00   3.11   79.0   52.9    6.3    3.1   3.11   1.11    0.00    1.26
 1990 291    79    76   63.1    0.0   63.1   0.00   3.08   84.8   55.5    7.5    3.1   3.08   1.14    0.00    1.36
 1990 292    80    77   67.2    0.0   67.2   0.00   3.05   88.8   58.2    9.0    3.1   3.05   1.10    0.00    1.48
 1990 293    81    78   71.4    0.0   71.4   0.00   3.02   93.5   60.8   10.6    3.0   3.02   1.10    0.00    1.59
 1990 294    82    79   75.5    0.0   75.5   0.00   2.99   99.4   63.3   12.3    3.0   2.99   1.12    0.00    1.71
 1990 295    83    80   79.8    0.0   79.8   0.00   2.96  105.7   65.7   14.1    3.0   2.96   1.14    0.00    1.83
 1990 296    84    81   84.3    0.0   84.3   0.00   2.93  110.6   68.2   16.2    2.9   2.93   1.11    0.00    1.97
 1990 297    85    82   88.4    0.0   88.4   0.00   2.90  115.8   70.3   18.1    2.9   2.90   1.11    0.00    2.10
 1990 298    86    83   92.8    0.0   92.8   0.00   2.88  119.8   72.5   20.3    2.9   2.88   1.08    0.00    2.24
 1990 299    87    84   99.0    0.0   99.0   0.00   2.84  127.7   75.4   23.5    2.8   2.84   1.11    0.00    2.38
 1990 300    88    85  105.8    0.0  105.8   0.00   2.81  134.1   78.5   27.3    2.8   2.81   1.08    0.00    2.53
 1990 301    89    86  108.7    0.0  108.7   0.00   2.77  136.6   79.5   29.2    2.8   2.77   1.07    0.00    2.68
 1990 302    90    87  112.9    0.0  112.9   0.00   2.73  140.9   83.2   29.8    2.7   2.73   1.07    0.00    2.82
 1990 303    91    88  123.9    0.0  123.9   0.00   2.70  152.2   88.3   35.6    2.7   2.70   1.08    0.00    2.97
 1990 304    92    89  131.1    0.0  131.1   0.00   2.67  161.1   91.1   40.1    2.7   2.67   1.10    0.00    3.11
 1990 305    93    90  138.2    0.0  138.2   0.00   2.64  168.4   93.4   44.8    2.6   2.64   1.09    0.00    3.27
 1990 306    94    91  144.8    0.0  144.8   0.00   2.61  175.0   95.2   49.5    2.6   2.61   1.08    0.00    3.42
 1990 307    95    92  148.0    0.0  148.0   0.00   2.57  177.9   95.6   52.4    2.6   2.57   1.07    0.00    3.58
 1990 308    96    93  151.9    0.0  151.9   0.00   2.55  183.9   96.5   55.4    2.6   2.55   1.11    0.00    3.73
 1990 309    97    94  154.2    0.0  154.2   0.00   2.54  189.8   97.0   57.2    2.5   2.54   1.15    0.00    3.90
 1990 310    98    95  157.3    0.0  157.3   0.00   2.52  192.1   97.6   59.8    2.5   2.52   1.09    0.00    4.08
 1990 311    99    96  161.8    0.0  161.8   0.00   2.50  197.9   98.4   63.4    2.5   2.50   1.10    0.00    4.26
 1990 312   100    97  164.5    0.0  164.5   0.00   2.48  199.3   98.8   65.7    2.5   2.48   1.07    0.00    4.44
 1990 313   101    98  168.7    0.0  168.7   0.00   2.46  204.3   99.5   69.2    2.5   2.46   1.08    0.00    4.62
 1990 314   102    99  172.9    0.0  172.9   0.00   2.44  209.8  100.1   72.9    2.4   2.44   1.09    0.00    4.80
 1990 315   103   100  177.7    0.0  177.7   0.00   2.41  215.5  100.7   77.0    2.4   2.41   1.10    0.00    4.99
 1990 316   104   101  181.1    0.0  181.1   0.00   2.38  217.9  101.0   80.1    2.4   2.38   1.07    0.00    5.18
 1990 317   105   102  187.3    0.0  187.3   0.00   2.34  225.3  101.7   85.6    2.3   2.34   1.09    0.00    5.37
 1990 318   106   103  190.9    0.0  190.9   0.00   2.30  228.3  101.8   89.1    2.3   2.30   1.07    0.00    5.56
 1990 319   107   104  192.3    0.0  192.3   0.00   2.28  229.6  101.6   90.7    2.3   2.28   1.07    0.00    5.76
 1990 320   108   105  195.2    0.0  195.2   0.00   2.26  233.9  101.9   93.3    2.3   2.26   1.09    0.00    5.95
 1990 321   109   106  197.3    0.0  197.3   0.00   2.23  238.1  101.8   95.5    2.2   2.23   1.10    0.00    6.14
 1990 322   110   107  200.3    0.0  200.3   0.00   2.45  241.9  110.7   89.5    2.5   2.45   1.09    0.00    6.35
 1990 323   111   108  200.3    0.0  200.3   0.00   2.43  241.9  108.6   91.6    2.4   2.43   1.07    0.00    6.35
 1990 324   112   109  200.3    0.0  200.3   0.00   2.43  241.9  107.2   93.1    2.4   2.43   1.07    0.00    6.35
 1990 325   113   110  200.3    0.0  200.3   0.00   2.42  241.9  105.4   94.9    2.4   2.42   1.04    0.00    6.35
 1990 326   114   111  200.3    0.0  200.3   0.00   2.41  241.9  103.7   96.6    2.4   2.41   1.01    0.00    6.35
 1990 327   115   112  200.3    0.0  200.3   0.00   2.41  241.9  102.0   98.3    2.4   2.41   0.98    0.00    6.35
 1990 328   116   113  200.3    0.0  200.3   0.00   2.40  241.9  100.1  100.1    2.4   2.40   0.96    0.00    6.35
 1990 329   117   114  200.3    0.0  200.3   0.00   2.40  241.9   98.2  102.1    2.4   2.40   0.95    0.00    6.35
 1990 330   118   115  200.3    0.0  200.3   0.00   2.40  241.9   96.5  103.8    2.4   2.40   0.94    0.00    6.35
 1990 331   119   116  200.3    0.0  200.3   0.00   2.41  241.9   95.0  105.2    2.4   2.41   0.89    0.00    6.35
 1990 332   120   117  200.3    0.0  200.3   0.00   2.41  241.9   93.5  106.8    2.4   2.41   0.86    0.00    6.35
 1990 333   121   118  200.3    0.0  200.3   0.00   2.42  241.9   91.7  108.6    2.4   2.42   0.83    0.00    6.35
 1990 334   122   119  200.3    4.8  195.5   1.70   2.36  241.9   89.5  106.0    2.4   2.36   0.83    0.00    6.35
 1990 335   123   120  200.3    9.5  190.8   1.70   2.30  241.9   87.3  103.4    2.3   2.30   0.83    0.00    6.35
 1990 336   124   121  200.3   13.4  186.9   1.70   2.27  241.9   86.0  100.9    2.3   2.27   0.83    0.00    6.35
 1990 337   125   122  200.3   16.5  183.7   1.70   2.22  241.9   84.1   99.6    2.2   2.22   0.82    0.00    6.35
 1990 338   126   123  200.3   20.6  179.7   1.70   2.17  241.9   82.3   97.4    2.2   2.17   0.81    0.00    6.35
 1990 339   127   124  200.3   26.3  174.0   1.71   2.10  241.9   79.7   94.3    2.1   2.10   0.81    0.00    6.35
 1990 340   128   125  200.3   31.4  168.9   1.71   2.04  241.9   77.3   91.6    2.0   2.04   0.82    0.00    6.35
 1990 341   129   126  200.3   36.1  164.2   1.70   1.98  241.9   75.2   89.0    2.0   1.98   0.81    0.00    6.35
 1990 342   130   127  200.3   39.8  160.4   1.70   1.94  241.9   73.4   87.0    1.9   1.94   0.80    0.00    6.35
 1990 343   131   128  200.3   42.9  157.4   1.70   1.90  241.9   72.1   85.3    1.9   1.90   0.80    0.00    6.35
 1990 344   132   129  200.3   46.3  154.0   1.70   1.86  241.9   70.6   83.4    1.9   1.86   0.81    0.00    6.35
 1990 345   133   130  186.1   50.6  135.5   1.70   1.63  242.4   62.0   73.5    1.6   1.63   1.08    0.00    6.56
 1990 346   134   131  186.1   53.4  132.8   1.70   1.60  242.4   60.8   72.0    1.6   1.60   1.08    0.00    6.56
 1990 347   135   132  189.0   57.4  131.6   1.70   1.59  245.2   60.3   71.3    1.6   1.59   1.07    0.00    6.84
 1990 348   136   133  191.4   60.1  131.3   1.70   1.58  249.3   60.1   71.2    1.6   1.58   1.09    0.00    7.13
 1990 349   137   134  194.7   64.1  130.6   1.70   1.58  253.4   59.8   70.8    1.6   1.58   1.09    0.00    7.42
 1990 350   138   135  198.0   69.4  128.6   1.70   1.55  256.8   58.9   69.7    1.6   1.55   1.08    0.00    7.72
 1990 351   139   136  198.0   75.0  123.0   1.70   1.49  256.8   56.5   66.5    1.5   1.49   1.08    0.00    7.72
 1990 352   140   137  201.4   80.1  121.4   1.70   1.46  260.3   55.6   65.8    1.5   1.46   1.08    0.00    8.01
 1990 353   141   138  204.3   84.5  119.9   1.70   1.45  263.8   54.9   65.0    1.4   1.45   1.07    0.00    8.31
 1990 354   142   139  206.8   89.2  117.6   1.70   1.42  266.7   53.8   63.8    1.4   1.42   1.07    0.00    8.61
 1990 355   143   140  209.1   94.7  114.4   1.70   1.38  269.3   52.4   62.0    1.4   1.38   1.07    0.00    8.91
 1990 356   144   141  211.2  100.2  111.0   1.70   1.36  271.1   51.6   59.4    1.4   1.36   1.07    0.00    9.21
 1990 357   145   142  212.9  105.8  107.2   1.70   1.31  272.8   49.6   57.6    1.3   1.31   1.07    0.00    9.51
 1990 358   146   143  214.4  110.2  104.2   1.70   1.27  274.2   48.2   56.0    1.3   1.27   1.07    0.00    9.81
 1990 359   147   144  215.6  114.2  101.4   1.70   1.22  275.6   46.4   55.0    1.2   1.22   1.06    0.00   10.11
 1990 360   148   145  216.9  119.7   97.2   1.70   1.17  277.0   44.5   52.7    1.2   1.17   1.06    0.00   10.42
 1990 361   149   146  218.2  124.9   93.3   1.70   1.13  278.5   42.7   50.6    1.1   1.13   1.05    0.00   10.72
 1990 362   150   147  219.3  127.8   91.5   1.69   1.10  279.8   41.9   49.6    1.1   1.10   1.04    0.00   11.02
 1990 363   151   148  220.3  130.3   90.0   1.69   1.09  281.1   41.2   48.8    1.1   1.09   1.03    0.00   11.32
 1990 364   152   149  221.2  133.9   87.3   1.68   1.05  282.2   40.0   47.3    1.1   1.05   1.03    0.00   11.63
 1990 365   153   150  222.1  138.6   83.5   1.68   1.01  283.2   38.2   45.2    1.0   1.01   1.02    0.00   11.93
 1991 001   154   151  223.0  143.3   79.7   1.67   0.96  284.3   36.5   43.2    1.0   0.96   1.02    0.00   12.24
 1991 002   155   152  223.8  147.8   76.0   1.66   0.92  285.3   34.8   41.2    0.9   0.92   1.03    0.00   12.54
 1991 003   156   153  224.7  152.2   72.6   1.64   0.88  286.3   33.2   39.3    0.9   0.88   1.03    0.00   12.85
 1991 004   157   154  225.6  155.8   69.8   1.63   0.84  287.3   32.0   37.9    0.8   0.84   1.02    0.00   13.16
 1991 005   158   155  226.4  159.2   67.2   1.62   0.81  288.3   30.8   36.4    0.8   0.81   1.02    0.00   13.47
 1991 006   159   156  227.2  162.8   64.4   1.61   0.78  289.2   29.5   34.9    0.8   0.78   1.02    0.00   13.78
 1991 007   160   157  228.0  166.4   61.6   1.59   0.74  290.1   28.2   33.4    0.7   0.74   1.02    0.00   14.09
 1991 008   161   158  228.8  170.0   58.8   1.58   0.71  291.0   26.9   31.9    0.7   0.71   1.02    0.00   14.39
 1991 009   162   159  229.4  173.3   56.1   1.56   0.69  291.7   26.3   29.8    0.7   0.69   1.03    0.00   14.70
 1991 010   163   160  230.4  176.4   54.0   1.54   0.67  292.8   25.2   28.7    0.7   0.67   1.03    0.00   15.01
 1991 011   164   161  230.4  176.4   54.0   1.54   0.67  293.8   25.2   28.7    0.7   0.67   1.03    0.00   15.01
 1991 012   165   162  230.4  176.4   54.0   1.54   0.67  294.9   25.2   28.7    0.7   0.67   1.03    0.00   15.01
 1991 013   166   163  230.4  176.4   54.0   1.54   0.67  296.0   25.2   28.7    0.7   0.67   1.03    0.00   15.01
 1991 014   167   164  230.4  176.4   54.0   1.54   0.67  297.1   25.2   28.7    0.7   0.67   1.03    0.00   15.01

*DSSAT Cropping System Model Ver. 4.0.2.000               Aug 03, 2016; 15:38:59

*RUN   5        : UYMZ                    
 MODEL          : MZCER040 - Maize           
 EXPERIMENT     : UYMZ0134 MZ    late to create DSS                             
 TREATMENT  1   : UYMZ                    

@YEAR DOY   DAS   DAP   CNAD   GNAD   VNAD   GN%D   VN%D   NUPC   LNAD   SNAD   LN%D   SN%D   RN%D   SNN0C   SNN1C
 1991 215     3     0    0.0    0.0    0.0   0.00   0.00    0.0    0.0    0.0    0.0   0.00   0.00    0.00    0.00
 1991 216     4     1    0.0    0.0    0.0   0.00   0.00    0.0    0.0    0.0    0.0   0.00   0.00    0.00    0.00
 1991 217     5     2    0.0    0.0    0.0   0.00   0.00    0.0    0.0    0.0    0.0   0.00   0.00    0.00    0.00
 1991 218     6     3    0.0    0.0    0.0   0.00   0.00    0.0    0.0    0.0    0.0   0.00   0.00    0.00    0.00
 1991 219     7     4    0.0    0.0    0.0   0.00   0.00    0.0    0.0    0.0    0.0   0.00   0.00    0.00    0.00
 1991 220     8     5    0.0    0.0    0.0   0.00   0.00    0.0    0.0    0.0    0.0   0.00   0.00    0.00    0.00
 1991 221     9     6    0.0    0.0    0.0   0.00   0.00    0.0    0.0    0.0    0.0   0.00   0.00    0.00    0.00
 1991 222    10     7    0.0    0.0    0.0   0.00   0.00    0.0    0.0    0.0    0.0   0.00   0.00    0.00    0.00
 1991 223    11     8    0.0    0.0    0.0   0.00   0.00    0.0    0.0    0.0    0.0   0.00   0.00    0.00    0.00
[...]

*DSSAT Cropping System Model Ver. 4.0.2.000               Aug 03, 2016; 15:38:59

*RUN   6        : UYMZ                    
 MODEL          : MZCER040 - Maize           
 EXPERIMENT     : UYMZ0134 MZ    late to create DSS                             
 TREATMENT  1   : UYMZ                    

@YEAR DOY   DAS   DAP   CNAD   GNAD   VNAD   GN%D   VN%D   NUPC   LNAD   SNAD   LN%D   SN%D   RN%D   SNN0C   SNN1C
 1992 215     3     0    0.0    0.0    0.0   0.00   0.00    0.0    0.0    0.0    0.0   0.00   0.00    0.00    0.00
 1992 216     4     1    0.0    0.0    0.0   0.00   0.00    0.0    0.0    0.0    0.0   0.00   0.00    0.00    0.00
 1992 217     5     2    0.0    0.0    0.0   0.00   0.00    0.0    0.0    0.0    0.0   0.00   0.00    0.00    0.00
 1992 218     6     3    0.0    0.0    0.0   0.00   0.00    0.0    0.0    0.0    0.0   0.00   0.00    0.00    0.00
 1992 219     7     4    0.0    0.0    0.0   0.00   0.00    0.0    0.0    0.0    0.0   0.00   0.00    0.00    0.00
 1992 220     8     5    0.0    0.0    0.0   0.00   0.00    0.0    0.0    0.0    0.0   0.00   0.00    0.00    0.00
 1992 221     9     6    0.0    0.0    0.0   0.00   0.00    0.0    0.0    0.0    0.0   0.00   0.00    0.00    0.00
 1992 222    10     7    0.0    0.0    0.0   0.00   0.00    0.0    0.0    0.0    0.0   0.00   0.00    0.00    0.00
 1992 223    11     8    0.0    0.0    0.0   0.00   0.00    0.0    0.0    0.0    0.0   0.00   0.00    0.00    0.00
 1992 224    12     9    0.0    0.0    0.0   0.00   0.00    0.0    0.0    0.0    0.0   0.00   0.00    0.00    0.00
 1992 225    13    10    0.0    0.0    0.0   0.00   0.00    0.0    0.0    0.0    0.0   0.00   0.00    0.00    0.00
 1992 226    14    11    0.0    0.0    0.0   0.00   0.00    0.0    0.0    0.0    0.0   0.00   0.00    0.00    0.00
 1992 227    15    12    0.0    0.0    0.0   0.00   0.00    0.0    0.0    0.0    0.0   0.00   0.00    0.00    0.00
 1992 228    16    13    0.0    0.0    0.0   0.00   0.00    0.0    0.0    0.0    0.0   0.00   0.00    0.00    0.00
 1992 229    17    14    0.0    0.0    0.0   0.00   0.00    0.0    0.0    0.0    0.0   0.00   0.00    0.00    0.00
 1992 230    18    15    0.0    0.0    0.0   0.00   0.00    0.0    0.0    0.0    0.0   0.00   0.00    0.00    0.00
 1992 231    19    16    1.2    0.0    1.2   0.00   4.40    0.0    0.6    0.6    4.4   4.40   0.00    0.00    0.00
 1992 232    20    17    1.3    0.0    1.3   0.00   4.54    0.2    0.6    0.6    4.5   4.54   1.08    0.00    0.00
 1992 233    21    18    1.3    0.0    1.3   0.00   4.53    0.2    0.6    0.6    4.5   4.53   1.10    0.00    0.00
 1992 234    22    19    1.3    0.0    1.3   0.00   4.50    0.2    0.6    0.6    4.5   4.50   1.11    0.00    0.00
 1992 235    23    20    1.3    0.0    1.3   0.00   4.50    0.2    0.6    0.6    4.5   4.50   1.08    0.00    0.00
 1992 236    24    21    1.2    0.0    1.2   0.00   4.46    0.2    0.6    0.6    4.5   4.46   1.15    0.00    0.00
 1992 237    25    22    1.2    0.0    1.2   0.00   4.44    0.2    0.6    0.6    4.4   4.44   1.17    0.00    0.00
 1992 238    26    23    1.2    0.0    1.2   0.00   4.43    0.3    0.6    0.6    4.4   4.43   1.18    0.00    0.00
 1992 239    27    24    1.2    0.0    1.2   0.00   4.41    0.3    0.6    0.6    4.4   4.41   1.18    0.00    0.01
 1992 240    28    25    1.2    0.0    1.2   0.00   4.39    0.3    0.6    0.6    4.4   4.39   1.18    0.00    0.01
 1992 241    29    26    1.2    0.0    1.2   0.00   4.37    0.3    0.6    0.6    4.4   4.37   1.15    0.00    0.01
 1992 242    30    27    1.2    0.0    1.2   0.00   4.34    0.4    0.6    0.6    4.3   4.34   1.19    0.00    0.01
 1992 243    31    28    1.2    0.0    1.2   0.00   3.98    0.4    0.7    0.6    4.0   3.98   1.17    0.00    0.01
 1992 244    32    29    1.3    0.0    1.3   0.00   4.05    0.5    0.8    0.6    4.0   4.05   1.15    0.00    0.01
 1992 245    33    30    1.4    0.0    1.4   0.00   4.11    0.6    0.8    0.6    4.1   4.11   1.18    0.00    0.01
 1992 246    34    31    1.5    0.0    1.5   0.00   4.03    0.6    0.9    0.6    4.0   4.03   1.13    0.00    0.02
 1992 247    35    32    1.6    0.0    1.6   0.00   3.95    0.8    1.0    0.6    3.9   3.95   1.28    0.00    0.02
 1992 248    36    33    1.7    0.0    1.7   0.00   3.89    1.1    1.1    0.5    3.9   3.89   1.30    0.00    0.02
 1992 249    37    34    1.8    0.0    1.8   0.00   3.81    1.4    1.3    0.5    3.8   3.81   1.26    0.00    0.02
 1992 250    38    35    2.0    0.0    2.0   0.00   3.83    1.7    1.5    0.5    3.8   3.83   1.25    0.00    0.03
 1992 251    39    36    2.3    0.0    2.3   0.00   3.73    2.1    1.7    0.5    3.7   3.73   1.23    0.00    0.03
 1992 252    40    37    2.5    0.0    2.5   0.00   3.68    2.3    2.0    0.5    3.7   3.68   1.09    0.00    0.04
 1992 253    41    38    2.9    0.0    2.9   0.00   3.67    2.8    2.4    0.5    3.7   3.67   1.16    0.00    0.04
 1992 254    42    39    3.3    0.0    3.3   0.00   3.62    3.3    2.7    0.5    3.6   3.62   1.18    0.00    0.05
 1992 255    43    40    3.7    0.0    3.7   0.00   3.59    3.7    3.2    0.5    3.6   3.59   1.12    0.00    0.05
 1992 256    44    41    4.2    0.0    4.2   0.00   3.68    4.7    3.7    0.5    3.7   3.68   1.25    0.00    0.06
 1992 257    45    42    4.7    0.0    4.7   0.00   3.84    5.2    4.2    0.5    3.8   3.84   1.19    0.00    0.07
 1992 258    46    43    5.0    0.0    5.0   0.00   3.78    5.9    4.5    0.5    3.8   3.78   1.24    0.00    0.08
 1992 259    47    44    5.4    0.0    5.4   0.00   3.67    6.7    4.9    0.5    3.7   3.67   1.24    0.00    0.09
 1992 260    48    45    5.9    0.0    5.9   0.00   3.57    7.3    5.4    0.5    3.6   3.57   1.15    0.00    0.10
 1992 261    49    46    6.7    0.0    6.7   0.00   3.41    8.3    6.2    0.5    3.4   3.41   1.16    0.00    0.11
 1992 262    50    47    7.8    0.0    7.8   0.00   3.75   10.2    7.3    0.5    3.8   3.75   1.27    0.00    0.13
 1992 263    51    48    8.3    0.0    8.3   0.00   3.74   11.3    7.8    0.5    3.7   3.74   1.25    0.00    0.15
 1992 264    52    49    8.8    0.0    8.8   0.00   3.57   12.2    8.3    0.5    3.6   3.57   1.21    0.00    0.17
 1992 265    53    50    9.7    0.0    9.7   0.00   3.38   13.6    9.2    0.5    3.4   3.38   1.19    0.00    0.19
 1992 266    54    51   11.2    0.0   11.2   0.00   3.81   14.9   10.7    0.5    3.8   3.81   1.11    0.00    0.22
 1992 267    55    52   11.5    0.0   11.5   0.00   3.71   16.0   11.0    0.5    3.7   3.71   1.18    0.00    0.24
 1992 268    56    53   12.1    0.0   12.1   0.00   3.75   16.3   11.6    0.5    3.8   3.75   1.11    0.00    0.27
 1992 269    57    54   12.6    0.0   12.6   0.00   3.84   18.2   12.0    0.5    3.8   3.84   1.31    0.00    0.30
 1992 270    58    55   12.7    0.0   12.7   0.00   4.13   19.2   12.2    0.6    4.1   4.13   1.36    0.00    0.33
 1992 271    59    56   12.7    0.0   12.7   0.00   3.88   19.2   12.2    0.5    3.9   3.88   1.24    0.00    0.33
 1992 272    60    57   12.7    0.0   12.7   0.00   3.59   19.2   12.2    0.5    3.6   3.59   1.14    0.00    0.33
 1992 273    61    58   14.7    0.0   14.7   0.00   3.78   22.0   14.2    0.5    3.8   3.78   1.16    0.00    0.37
 1992 274    62    59   16.2    0.0   16.2   0.00   3.68   24.0   15.6    0.5    3.7   3.68   1.15    0.00    0.41
 1992 275    63    60   17.5    0.0   17.5   0.00   3.57   25.2   17.0    0.5    3.6   3.57   1.10    0.00    0.46
 1992 276    64    61   19.0    0.0   19.0   0.00   3.54   27.1   18.5    0.5    3.5   3.54   1.10    0.00    0.50
 1992 277    65    62   20.4    0.0   20.4   0.00   3.51   29.5   19.9    0.6    3.5   3.51   1.14    0.00    0.55
 1992 278    66    63   22.3    0.0   22.3   0.00   3.48   32.0   21.7    0.6    3.5   3.48   1.14    0.00    0.60
 1992 279    67    64   23.6    0.0   23.6   0.00   3.45   32.9   23.0    0.7    3.5   3.45   1.08    0.00    0.65
 1992 280    68    65   24.6    0.0   24.6   0.00   3.47   36.3   23.9    0.7    3.5   3.47   1.22    0.00    0.71
 1992 281    69    66   25.2    0.0   25.2   0.00   3.47   37.6   24.5    0.7    3.5   3.47   1.21    0.00    0.77
 1992 282    70    67   25.9    0.0   25.9   0.00   3.43   39.2   25.1    0.8    3.4   3.43   1.19    0.00    0.84
 1992 283    71    68   27.0    0.0   27.0   0.00   3.40   41.3   26.1    0.9    3.4   3.40   1.16    0.00    0.91
 1992 284    72    69   29.2    0.0   29.2   0.00   3.37   44.5   28.1    1.1    3.4   3.37   1.15    0.00    0.99
 1992 285    73    70   31.8    0.0   31.8   0.00   3.34   47.1   30.5    1.3    3.3   3.34   1.11    0.00    1.07
 1992 286    74    71   34.6    0.0   34.6   0.00   3.31   51.3   32.9    1.7    3.3   3.31   1.14    0.00    1.15
 1992 287    75    72   37.0    0.0   37.0   0.00   3.28   55.4   35.0    2.0    3.3   3.28   1.15    0.00    1.24
 1992 288    76    73   40.6    0.0   40.6   0.00   3.25   59.9   37.9    2.6    3.2   3.25   1.13    0.00    1.34
 1992 289    77    74   43.2    0.0   43.2   0.00   3.20   61.3   40.0    3.2    3.2   3.20   1.07    0.00    1.44
 1992 290    78    75   46.2    0.0   46.2   0.00   3.17   64.5   42.3    3.9    3.2   3.17   1.07    0.00    1.54
 1992 291    79    76   48.9    0.0   48.9   0.00   3.15   69.8   44.2    4.6    3.1   3.15   1.14    0.00    1.63
 1992 292    80    77   50.9    0.0   50.9   0.00   3.13   73.9   45.7    5.2    3.1   3.13   1.15    0.00    1.74
 1992 293    81    78   53.3    0.0   53.3   0.00   3.11   75.0   47.4    5.9    3.1   3.11   1.08    0.00    1.86
 1992 294    82    79   55.4    0.0   55.4   0.00   3.09   80.1   48.9    6.5    3.1   3.09   1.14    0.00    1.98
 1992 295    83    80   57.3    0.0   57.3   0.00   3.07   84.1   50.2    7.2    3.1   3.07   1.15    0.00    2.11
 1992 296    84    81   60.1    0.0   60.1   0.00   3.05   88.1   52.0    8.1    3.0   3.05   1.13    0.00    2.24
 1992 297    85    82   64.3    0.0   64.3   0.00   3.02   93.3   54.6    9.7    3.0   3.02   1.12    0.00    2.39
 1992 298    86    83   69.8    0.0   69.8   0.00   2.98   99.6   57.9   11.9    3.0   2.98   1.11    0.00    2.54
 1992 299    87    84   73.3    0.0   73.3   0.00   2.94  101.9   59.8   13.5    2.9   2.94   1.07    0.00    2.69
 1992 300    88    85   79.1    0.0   79.1   0.00   2.90  110.2   62.9   16.2    2.9   2.90   1.11    0.00    2.84
 1992 301    89    86   85.5    0.0   85.5   0.00   2.86  117.7   66.1   19.4    2.9   2.86   1.11    0.00    3.00
 1992 302    90    87   87.4    0.0   87.4   0.00   2.88  119.4   67.2   20.2    2.9   2.88   1.09    0.00    3.17
 1992 303    91    88   89.2    0.0   89.2   0.00   2.84  124.6   67.8   21.4    2.8   2.84   1.14    0.00    3.33
 1992 304    92    89   92.0    0.0   92.0   0.00   2.82  129.1   69.2   22.8    2.8   2.82   1.13    0.00    3.51
 1992 305    93    90   95.4    0.0   95.4   0.00   2.80  134.1   70.7   24.7    2.8   2.80   1.12    0.00    3.70
 1992 306    94    91  100.1    0.0  100.1   0.00   2.78  140.0   72.8   27.3    2.8   2.78   1.11    0.00    3.90
 1992 307    95    92  106.8    0.0  106.8   0.00   2.74  147.3   75.5   31.3    2.7   2.74   1.10    0.00    4.11
 1992 308    96    93  114.8    0.0  114.8   0.00   2.73  154.9   80.8   33.9    2.7   2.73   1.08    0.00    4.31
 1992 309    97    94  119.2    0.0  119.2   0.00   2.76  162.3   83.7   35.5    2.8   2.76   1.13    0.00    4.52
 1992 310    98    95  121.3    0.0  121.3   0.00   2.74  165.0   84.8   36.6    2.7   2.74   1.12    0.00    4.74
 1992 311    99    96  123.8    0.0  123.8   0.00   2.71  168.7   85.7   38.1    2.7   2.71   1.11    0.00    4.96
 1992 312   100    97  127.9    0.0  127.9   0.00   2.68  174.2   87.4   40.5    2.7   2.68   1.11    0.00    5.19
 1992 313   101    98  133.3    0.0  133.3   0.00   2.66  180.8   89.5   43.9    2.7   2.66   1.10    0.00    5.42
 1992 314   102    99  140.0    0.0  140.0   0.00   2.64  188.2   91.7   48.4    2.6   2.64   1.09    0.00    5.66
 1992 315   103   100  142.4    0.0  142.4   0.00   2.61  189.2   92.1   50.3    2.6   2.61   1.07    0.00    5.91
 1992 316   104   101  149.4    0.0  149.4   0.00   2.58  197.2   93.8   55.5    2.6   2.58   1.08    0.00    6.14
 1992 317   105   102  155.9    0.0  155.9   0.00   2.54  205.1   95.3   60.6    2.5   2.54   1.09    0.00    6.39
 1992 318   106   103  161.1    0.0  161.1   0.00   2.51  211.9   96.3   64.8    2.5   2.51   1.10    0.00    6.63
 1992 319   107   104  167.1    0.0  167.1   0.00   2.48  216.7   97.3   69.8    2.5   2.48   1.07    0.00    6.89
 1992 320   108   105  172.2    0.0  172.2   0.00   2.45  223.0   98.0   74.1    2.4   2.45   1.08    0.00    7.14
 1992 321   109   106  175.0    0.0  175.0   0.00   2.43  229.0   98.4   76.6    2.4   2.43   1.11    0.00    7.40
 1992 322   110   107  177.4    0.0  177.4   0.00   2.42  233.5   98.7   78.7    2.4   2.42   1.11    0.00    7.67
 1992 323   111   108  180.1    0.0  180.1   0.00   2.40  238.1   99.0   81.1    2.4   2.40   1.11    0.00    7.95
 1992 324   112   109  184.1    0.0  184.1   0.00   2.37  243.2   99.5   84.6    2.4   2.37   1.10    0.00    8.25
 1992 325   113   110  188.7    0.0  188.7   0.00   2.34  247.2  100.0   88.6    2.3   2.34   1.08    0.00    8.54
 1992 326   114   111  190.7    0.0  190.7   0.00   2.32  248.4  100.1   90.6    2.3   2.32   1.07    0.00    8.84
 1992 327   115   112  192.1    0.0  192.1   0.00   2.30  252.3  100.0   92.1    2.3   2.30   1.08    0.00    9.13
 1992 328   116   113  193.7    0.0  193.7   0.00   2.29  255.3  100.1   93.6    2.3   2.29   1.08    0.00    9.43
 1992 329   117   114  195.5    0.0  195.5   0.00   2.25  257.8   99.7   95.8    2.2   2.25   1.07    0.00    9.74
 1992 330   118   115  197.3    0.0  197.3   0.00   2.20  259.9   99.3   98.0    2.2   2.20   1.07    0.00   10.05
 1992 331   119   116  198.8    0.0  198.8   0.00   2.42  261.7  107.7   91.1    2.4   2.42   1.06    0.00   10.37
 1992 332   120   117  198.8    0.0  198.8   0.00   2.41  261.7  106.3   92.6    2.4   2.41   1.04    0.00   10.37
 1992 333   121   118  198.8    0.0  198.8   0.00   2.40  261.7  104.8   94.1    2.4   2.40   1.03    0.00   10.37
 1992 334   122   119  198.8    0.0  198.8   0.00   2.39  261.7  103.0   95.8    2.4   2.39   1.03    0.00   10.37
 1992 335   123   120  198.8    0.0  198.8   0.00   2.38  261.7  101.3   97.5    2.4   2.38   1.02    0.00   10.37
 1992 336   124   121  198.8    0.0  198.8   0.00   2.38  261.7   99.9   99.0    2.4   2.38   1.00    0.00   10.37
 1992 337   125   122  198.8    0.0  198.8   0.00   2.38  261.7   98.5  100.3    2.4   2.38   0.97    0.00   10.37
 1992 338   126   123  198.8    0.0  198.8   0.00   2.38  261.7   97.1  101.8    2.4   2.38   0.95    0.00   10.37
 1992 339   127   124  198.8    0.0  198.8   0.00   2.38  261.7   95.4  103.5    2.4   2.38   0.94    0.00   10.37
 1992 340   128   125  198.8    0.0  198.8   0.00   2.38  261.7   93.7  105.2    2.4   2.38   0.93    0.00   10.37
 1992 341   129   126  198.8    0.0  198.8   0.00   2.37  261.7   91.7  107.1    2.4   2.37   0.93    0.00   10.37
 1992 342   130   127  198.8    0.0  198.8   0.00   2.37  261.7   89.9  108.9    2.4   2.37   0.92    0.00   10.37
 1992 343   131   128  198.8    0.0  198.8   0.00   2.37  261.7   88.1  110.7    2.4   2.37   0.91    0.00   10.37
 1992 344   132   129  198.8    0.0  198.8   0.00   2.37  261.7   86.2  112.6    2.4   2.37   0.90    0.00   10.37
 1992 345   133   130  198.8    5.1  193.7   1.70   2.31  261.7   84.0  109.7    2.3   2.31   0.90    0.00   10.37
 1992 346   134   131  198.8    9.7  189.2   1.70   2.25  261.7   82.0  107.1    2.3   2.25   0.90    0.00   10.37
 1992 347   135   132  198.8   13.9  184.9   1.70   2.20  261.7   80.2  104.7    2.2   2.20   0.89    0.00   10.37
 1992 348   136   133  198.8   19.0  179.8   1.70   2.14  261.7   78.0  101.8    2.1   2.14   0.89    0.00   10.37
 1992 349   137   134  198.8   23.9  174.9   1.70   2.08  261.7   75.8   99.1    2.1   2.08   0.88    0.00   10.37
 1992 350   138   135  198.8   27.6  171.2   1.70   2.04  261.7   74.2   97.0    2.0   2.04   0.87    0.00   10.37
 1992 351   139   136  198.8   32.2  166.7   1.70   1.99  261.7   72.3   94.4    2.0   1.99   0.87    0.00   10.37
 1992 352   140   137  198.8   37.3  161.5   1.70   1.93  261.7   70.0   91.5    1.9   1.93   0.87    0.00   10.37
 1992 353   141   138  198.8   42.4  156.4   1.70   1.86  261.7   67.8   88.6    1.9   1.86   0.87    0.00   10.37
 1992 354   142   139  198.8   47.5  151.3   1.70   1.80  261.7   65.6   85.7    1.8   1.80   0.87    0.00   10.37
 1992 355   143   140  187.8   52.7  135.1   1.70   1.61  266.2   58.6   76.5    1.6   1.61   1.08    0.00   10.68
 1992 356   144   141  189.4   57.8  131.6   1.70   1.57  267.7   57.1   74.5    1.6   1.57   1.07    0.00   11.08
 1992 357   145   142  189.4   62.9  126.5   1.70   1.52  267.7   55.3   71.1    1.5   1.52   1.08    0.00   11.08
 1992 358   146   143  191.1   68.0  123.0   1.70   1.49  268.1   54.3   68.7    1.5   1.49   1.07    0.00   11.47
 1992 359   147   144  195.8   73.2  122.7   1.70   1.46  273.9   53.3   69.4    1.5   1.46   1.07    0.00   11.85
 1992 360   148   145  199.5   77.8  121.7   1.70   1.45  277.5   52.8   68.9    1.5   1.45   1.07    0.00   12.24
 1992 361   149   146  203.1   82.0  121.2   1.70   1.44  282.4   52.5   68.6    1.4   1.44   1.08    0.00   12.63
 1992 362   150   147  205.3   86.2  119.1   1.70   1.42  285.1   51.6   67.5    1.4   1.42   1.08    0.00   13.03
 1992 363   151   148  207.1   91.3  115.8   1.70   1.38  287.1   50.2   65.6    1.4   1.38   1.07    0.00   13.43
 1992 364   152   149  208.5   96.4  112.1   1.70   1.35  287.5   49.3   62.8    1.4   1.35   1.07    0.00   13.83
 1992 365   153   150  209.9  101.1  108.8   1.70   1.33  288.5   48.4   60.4    1.3   1.33   1.07    0.00   14.22
 1992 366   154   151  211.1  105.1  106.0   1.70   1.30  289.4   47.4   58.6    1.3   1.30   1.07    0.00   14.62
 1993 001   155   152  212.0  109.3  102.8   1.70   1.27  290.2   46.3   56.4    1.3   1.27   1.07    0.00   15.01
 1993 002   156   153  213.2  113.6   99.6   1.70   1.24  291.2   45.3   54.3    1.2   1.24   1.07    0.00   15.40
 1993 003   157   154  214.3  118.0   96.2   1.70   1.21  292.1   44.2   52.0    1.2   1.21   1.07    0.00   15.78
 1993 004   158   155  215.1  123.2   91.9   1.70   1.16  292.8   42.2   49.7    1.2   1.16   1.08    0.00   16.17
 1993 005   159   156  215.9  128.3   87.6   1.70   1.09  293.7   39.8   47.8    1.1   1.09   1.08    0.00   16.56
 1993 006   160   157  217.1  133.3   83.8   1.70   1.03  294.9   37.4   46.4    1.0   1.03   1.07    0.00   16.95
 1993 007   161   158  218.3  138.0   80.3   1.69   0.99  296.1   36.2   44.2    1.0   0.99   1.07    0.00   17.33
 1993 008   162   159  219.2  142.4   76.8   1.69   0.95  297.0   34.4   42.4    0.9   0.95   1.08    0.00   17.72
 1993 009   163   160  219.9  146.3   73.5   1.68   0.89  297.7   32.4   41.1    0.9   0.89   1.07    0.00   18.10
 1993 010   164   161  220.9  150.4   70.4   1.67   0.84  298.7   30.6   39.8    0.8   0.84   1.07    0.00   18.49
 1993 011   165   162  222.0  154.3   67.7   1.66   0.81  299.9   29.3   38.3    0.8   0.81   1.07    0.00   18.88
 1993 012   166   163  223.1  158.0   65.1   1.64   0.78  301.1   28.2   36.8    0.8   0.78   1.06    0.00   19.26
 1993 013   167   164  224.1  161.6   62.5   1.63   0.74  302.1   27.1   35.4    0.7   0.74   1.07    0.00   19.65
 1993 014   168   165  225.3  165.1   60.2   1.61   0.72  303.3   26.2   33.9    0.7   0.72   1.07    0.00   20.04
 1993 015   169   166  225.3  165.1   60.2   1.61   0.72  304.4   26.2   33.9    0.7   0.72   1.07    0.00   20.04
 1993 016   170   167  225.3  165.1   60.2   1.61   0.72  305.5   26.2   33.9    0.7   0.72   1.07    0.00   20.04
 1993 017   171   168  225.3  165.1   60.2   1.61   0.72  306.6   26.2   33.9    0.7   0.72   1.07    0.00   20.04
 1993 018   172   169  225.3  165.1   60.2   1.61   0.72  307.8   26.2   33.9    0.7   0.72   1.07    0.00   20.04
