*SOIL TEMPERATURE OUTPUT FILE (DAILY)

*DSSAT Cropping System Model Ver. 4.0.2.000               Aug 03, 2016; 15:38:59

*RUN   1        : UYMZ                    
 MODEL          : MZCER040 - Maize           
 EXPERIMENT     : UYMZ0134 MZ    late to create DSS                             
 TREATMENT  1   : UYMZ                    

@YEAR DOY   DAS  TS1D  TS2D  TS3D  TS4D  TS5D  TS6D  TS7D  TS8D  TS9D  TS10
 1987 212     0  11.6  12.4  13.5  14.6  15.5  16.5  17.0  17.2   0.0   0.0
 1987 213     1  12.3  13.0  14.0  15.0  15.8  16.6  17.1  17.3   0.0   0.0
 1987 214     2  13.4  13.9  14.7  15.5  16.2  16.9  17.3  17.4   0.0   0.0
 1987 215     3  14.0  14.4  15.1  15.8  16.4  17.0  17.4  17.5   0.0   0.0
 1987 216     4  14.0  14.4  15.1  15.8  16.4  17.0  17.3  17.5   0.0   0.0
 1987 217     5  14.3  14.6  15.2  15.9  16.4  17.0  17.4  17.5   0.0   0.0
 1987 218     6  13.0  13.6  14.4  15.2  15.9  16.7  17.2  17.3   0.0   0.0
 1987 219     7  12.2  12.8  13.7  14.8  15.6  16.5  17.0  17.2   0.0   0.0
 1987 220     8  11.9  12.5  13.6  14.6  15.4  16.4  16.9  17.2   0.0   0.0
 1987 221     9  12.6  13.1  14.0  14.9  15.7  16.5  17.1  17.3   0.0   0.0
 1987 222    10  13.4  13.8  14.6  15.3  16.0  16.7  17.2  17.3   0.0   0.0
 1987 223    11  15.0  15.2  15.7  16.2  16.6  17.1  17.4  17.5   0.0   0.0
 1987 224    12  15.7  15.8  16.1  16.5  16.9  17.3  17.5  17.6   0.0   0.0
 1987 225    13  15.9  16.0  16.2  16.6  16.9  17.3  17.5  17.6   0.0   0.0
 1987 226    14  16.3  16.3  16.5  16.7  17.0  17.4  17.6  17.6   0.0   0.0
 1987 227    15  16.2  16.2  16.4  16.7  17.0  17.3  17.6  17.6   0.0   0.0
 1987 228    16  15.2  15.3  15.7  16.1  16.6  17.1  17.4  17.5   0.0   0.0
 1987 229    17  13.6  14.0  14.6  15.3  15.9  16.6  17.1  17.3   0.0   0.0
 1987 230    18  12.5  13.0  13.8  14.7  15.5  16.4  16.9  17.2   0.0   0.0
 1987 231    19  10.9  11.6  12.7  13.9  14.8  15.9  16.7  17.0   0.0   0.0
 1987 232    20   9.8  10.6  12.0  13.3  14.4  15.6  16.5  16.8   0.0   0.0
 1987 233    21   9.7  10.6  11.9  13.2  14.4  15.6  16.4  16.8   0.0   0.0
 1987 234    22  11.3  11.9  13.0  14.0  15.0  16.0  16.7  17.0   0.0   0.0
 1987 235    23  12.8  13.2  14.0  14.8  15.5  16.4  16.9  17.2   0.0   0.0
 1987 236    24  14.4  14.6  15.1  15.6  16.1  16.7  17.2  17.3   0.0   0.0
 1987 237    25  16.4  16.4  16.4  16.6  16.9  17.2  17.5  17.6   0.0   0.0
 1987 238    26  17.8  17.6  17.4  17.3  17.4  17.6  17.7  17.7   0.0   0.0
 1987 239    27  18.6  18.2  17.9  17.7  17.7  17.8  17.8  17.8   0.0   0.0
 1987 240    28  18.4  18.1  17.8  17.6  17.6  17.7  17.8  17.8   0.0   0.0
 1987 241    29  17.4  17.2  17.0  17.1  17.2  17.4  17.6  17.6   0.0   0.0
 1987 242    30  15.9  15.9  16.0  16.3  16.6  17.0  17.3  17.5   0.0   0.0
 1987 243    31  14.7  14.9  15.2  15.7  16.1  16.7  17.1  17.3   0.0   0.0
 1987 244    32  13.7  14.0  14.5  15.1  15.7  16.4  17.0  17.2   0.0   0.0
 1987 245    33  13.2  13.5  14.1  14.8  15.5  16.3  16.9  17.1   0.0   0.0
 1987 246    34  13.8  14.1  14.6  15.2  15.7  16.4  17.0  17.2   0.0   0.0
 1987 247    35  14.1  14.3  14.7  15.3  15.8  16.5  17.0  17.2   0.0   0.0
 1987 248    36  14.1  14.3  14.7  15.3  15.8  16.5  17.0  17.2   0.0   0.0
 1987 249    37  13.9  14.1  14.5  15.1  15.7  16.4  16.9  17.2   0.0   0.0
 1987 250    38  14.4  14.5  14.9  15.4  15.9  16.5  17.0  17.2   0.0   0.0
 1987 251    39  14.9  15.0  15.3  15.7  16.1  16.6  17.1  17.3   0.0   0.0
 1987 252    40  15.8  15.8  15.9  16.1  16.4  16.8  17.2  17.4   0.0   0.0
 1987 253    41  16.3  16.2  16.2  16.3  16.6  16.9  17.3  17.4   0.0   0.0
 1987 254    42  16.9  16.7  16.5  16.6  16.8  17.1  17.3  17.5   0.0   0.0
 1987 255    43  17.0  16.8  16.7  16.7  16.8  17.1  17.4  17.5   0.0   0.0
 1987 256    44  17.7  17.4  17.1  17.0  17.1  17.3  17.4  17.5   0.0   0.0
 1987 257    45  17.5  17.2  17.0  16.9  17.0  17.2  17.4  17.5   0.0   0.0
 1987 258    46  17.5  17.2  16.9  16.9  17.0  17.2  17.4  17.5   0.0   0.0
 1987 259    47  16.5  16.4  16.3  16.4  16.6  16.9  17.2  17.4   0.0   0.0
 1987 260    48  16.2  16.0  16.0  16.1  16.4  16.8  17.1  17.3   0.0   0.0
 1987 261    49  14.8  14.8  15.1  15.4  15.9  16.4  16.9  17.1   0.0   0.0
 1987 262    50  13.9  14.1  14.5  15.0  15.5  16.2  16.8  17.0   0.0   0.0
 1987 263    51  13.9  14.1  14.4  15.0  15.5  16.2  16.7  17.0   0.0   0.0
 1987 264    52  14.1  14.2  14.5  15.0  15.5  16.2  16.8  17.0   0.0   0.0
 1987 265    53  13.7  13.9  14.3  14.8  15.4  16.1  16.7  17.0   0.0   0.0
 1987 266    54  13.8  14.0  14.3  14.9  15.4  16.1  16.7  17.0   0.0   0.0
 1987 267    55  14.8  14.8  15.0  15.4  15.8  16.3  16.8  17.1   0.0   0.0
 1987 268    56  16.0  15.9  15.9  16.0  16.2  16.7  17.0  17.2   0.0   0.0
 1987 269    57  18.2  17.7  17.3  17.1  17.0  17.2  17.4  17.5   0.0   0.0
 1987 270    58  19.5  18.9  18.2  17.7  17.5  17.5  17.5  17.6   0.0   0.0
 1987 271    59  20.1  19.4  18.6  18.0  17.8  17.6  17.6  17.7   0.0   0.0
 1987 272    60  20.8  20.0  19.1  18.4  18.0  17.8  17.7  17.7   0.0   0.0
 1987 273    61  20.1  19.4  18.6  18.0  17.8  17.6  17.6  17.6   0.0   0.0
 1987 274    62  19.1  18.6  17.9  17.5  17.4  17.3  17.4  17.5   0.0   0.0
 1987 275    63  18.4  18.0  17.4  17.1  17.1  17.2  17.3  17.4   0.0   0.0
 1987 276    64  18.2  17.7  17.3  17.0  17.0  17.1  17.3  17.4   0.0   0.0
 1987 277    65  18.1  17.7  17.2  17.0  16.9  17.1  17.2  17.4   0.0   0.0
 1987 278    66  19.2  18.6  17.9  17.5  17.3  17.3  17.4  17.5   0.0   0.0
 1987 279    67  19.9  19.3  18.5  17.9  17.6  17.5  17.5  17.6   0.0   0.0
 1987 280    68  20.6  19.8  18.9  18.2  17.8  17.6  17.6  17.6   0.0   0.0
 1987 281    69  20.9  20.1  19.1  18.3  17.9  17.7  17.6  17.6   0.0   0.0
 1987 282    70  20.6  19.9  18.9  18.2  17.8  17.6  17.6  17.6   0.0   0.0
 1987 283    71  21.5  20.6  19.5  18.7  18.2  17.8  17.7  17.7   0.0   0.0
 1987 284    72  21.6  20.7  19.5  18.7  18.2  17.8  17.7  17.7   0.0   0.0
 1987 285    73  22.0  21.0  19.8  18.9  18.3  17.9  17.8  17.7   0.0   0.0
 1987 286    74  21.6  20.7  19.6  18.7  18.2  17.8  17.7  17.7   0.0   0.0
 1987 287    75  20.8  20.0  19.0  18.3  17.9  17.6  17.6  17.6   0.0   0.0
 1987 288    76  18.5  18.0  17.4  17.1  17.0  17.0  17.2  17.3   0.0   0.0
 1987 289    77  17.6  17.2  16.8  16.6  16.6  16.8  17.0  17.2   0.0   0.0
 1987 290    78  17.3  17.0  16.6  16.4  16.5  16.7  17.0  17.1   0.0   0.0
 1987 291    79  18.0  17.5  17.0  16.8  16.7  16.8  17.1  17.2   0.0   0.0
 1987 292    80  18.7  18.1  17.5  17.1  17.0  17.0  17.2  17.3   0.0   0.0
 1987 293    81  20.2  19.4  18.5  17.9  17.5  17.4  17.4  17.4   0.0   0.0
 1987 294    82  21.4  20.5  19.4  18.5  18.0  17.7  17.6  17.6   0.0   0.0
 1987 295    83  21.9  20.9  19.7  18.8  18.2  17.8  17.6  17.6   0.0   0.0
 1987 296    84  23.3  22.2  20.7  19.5  18.7  18.1  17.9  17.8   0.0   0.0
 1987 297    85  24.3  23.1  21.4  20.0  19.1  18.4  18.0  17.9   0.0   0.0
 1987 298    86  23.9  22.7  21.1  19.8  18.9  18.3  17.9  17.8   0.0   0.0
 1987 299    87  23.7  22.5  20.9  19.6  18.8  18.2  17.9  17.8   0.0   0.0
 1987 300    88  23.2  22.1  20.6  19.4  18.7  18.1  17.8  17.7   0.0   0.0
 1987 301    89  22.1  21.1  19.8  18.8  18.2  17.8  17.6  17.6   0.0   0.0
 1987 302    90  22.3  21.3  20.0  19.0  18.3  17.8  17.6  17.6   0.0   0.0
 1987 303    91  24.0  22.8  21.1  19.8  19.0  18.2  17.9  17.8   0.0   0.0
 1987 304    92  25.2  23.8  22.0  20.4  19.4  18.5  18.1  17.9   0.0   0.0
 1987 305    93  26.2  24.7  22.7  20.9  19.8  18.8  18.2  18.0   0.0   0.0
 1987 306    94  27.0  25.3  23.2  21.3  20.1  19.0  18.3  18.1   0.0   0.0
 1987 307    95  26.7  25.1  23.0  21.2  20.0  18.9  18.3  18.1   0.0   0.0
 1987 308    96  24.9  23.5  21.7  20.2  19.3  18.4  18.0  17.9   0.0   0.0
 1987 309    97  23.1  22.0  20.6  19.4  18.6  18.0  17.7  17.6   0.0   0.0
 1987 310    98  22.3  21.3  20.0  18.9  18.3  17.8  17.6  17.5   0.0   0.0
 1987 311    99  22.0  21.0  19.8  18.8  18.2  17.7  17.5  17.5   0.0   0.0
 1987 312   100  21.6  20.7  19.5  18.6  18.0  17.6  17.5  17.5   0.0   0.0
 1987 313   101  21.5  20.6  19.5  18.5  18.0  17.6  17.4  17.4   0.0   0.0
 1987 314   102  22.0  21.0  19.8  18.8  18.1  17.7  17.5  17.5   0.0   0.0
 1987 315   103  22.9  21.8  20.4  19.2  18.5  17.9  17.6  17.6   0.0   0.0
 1987 316   104  23.2  22.1  20.6  19.4  18.6  17.9  17.7  17.6   0.0   0.0
 1987 317   105  24.0  22.8  21.2  19.8  18.9  18.2  17.8  17.7   0.0   0.0
 1987 318   106  25.4  24.0  22.1  20.5  19.4  18.5  18.0  17.8   0.0   0.0
 1987 319   107  26.0  24.6  22.6  20.9  19.7  18.7  18.1  17.9   0.0   0.0
 1987 320   108  25.7  24.3  22.4  20.7  19.6  18.6  18.1  17.9   0.0   0.0
 1987 321   109  26.1  24.6  22.7  20.9  19.8  18.7  18.1  17.9   0.0   0.0
 1987 322   110  25.7  24.3  22.4  20.7  19.6  18.6  18.1  17.9   0.0   0.0
 1987 323   111  25.0  23.7  21.9  20.4  19.3  18.4  17.9  17.8   0.0   0.0
 1987 324   112  24.0  22.8  21.2  19.8  18.9  18.1  17.8  17.7   0.0   0.0
 1987 325   113  23.4  22.3  20.8  19.5  18.7  18.0  17.7  17.6   0.0   0.0
 1987 326   114  22.2  21.2  20.0  18.9  18.2  17.7  17.5  17.4   0.0   0.0
 1987 327   115  21.1  20.3  19.2  18.3  17.8  17.4  17.3  17.3   0.0   0.0
 1987 328   116  20.9  20.1  19.1  18.3  17.7  17.3  17.2  17.3   0.0   0.0
 1987 329   117  21.6  20.7  19.6  18.6  18.0  17.5  17.4  17.3   0.0   0.0
 1987 330   118  22.0  21.1  19.9  18.8  18.2  17.6  17.4  17.4   0.0   0.0
 1987 331   119  22.5  21.5  20.2  19.1  18.4  17.8  17.5  17.4   0.0   0.0
 1987 332   120  24.2  23.0  21.4  20.0  19.0  18.2  17.8  17.6   0.0   0.0
 1987 333   121  25.9  24.5  22.5  20.8  19.7  18.6  18.0  17.8   0.0   0.0
 1987 334   122  27.6  25.9  23.7  21.7  20.3  19.0  18.3  18.0   0.0   0.0
 1987 335   123  29.9  28.0  25.3  22.9  21.2  19.6  18.7  18.3   0.0   0.0
 1987 336   124  30.9  28.8  25.9  23.4  21.6  19.8  18.8  18.4   0.0   0.0
 1987 337   125  30.0  28.0  25.3  22.9  21.2  19.6  18.6  18.3   0.0   0.0
 1987 338   126  27.6  26.0  23.7  21.7  20.3  19.0  18.3  18.0   0.0   0.0
 1987 339   127  26.0  24.6  22.7  21.0  19.8  18.7  18.1  17.8   0.0   0.0
 1987 340   128  24.3  23.1  21.5  20.1  19.1  18.2  17.8  17.6   0.0   0.0
 1987 341   129  23.0  22.0  20.6  19.4  18.6  17.9  17.6  17.5   0.0   0.0
 1987 342   130  22.9  21.9  20.6  19.4  18.6  17.9  17.5  17.5   0.0   0.0
 1987 343   131  24.0  22.8  21.3  19.9  19.0  18.1  17.7  17.6   0.0   0.0
 1987 344   132  24.8  23.6  21.9  20.4  19.3  18.3  17.8  17.7   0.0   0.0
 1987 345   133  24.7  23.5  21.8  20.3  19.3  18.3  17.8  17.6   0.0   0.0
 1987 346   134  25.0  23.8  22.0  20.5  19.4  18.4  17.9  17.7   0.0   0.0
 1987 347   135  25.5  24.2  22.3  20.7  19.6  18.5  17.9  17.7   0.0   0.0
 1987 348   136  25.5  24.2  22.4  20.7  19.6  18.5  17.9  17.7   0.0   0.0
 1987 349   137  25.8  24.4  22.6  20.9  19.7  18.6  18.0  17.8   0.0   0.0
 1987 350   138  25.4  24.1  22.3  20.7  19.5  18.5  17.9  17.7   0.0   0.0
 1987 351   139  25.3  24.0  22.3  20.7  19.6  18.5  17.9  17.7   0.0   0.0
 1987 352   140  24.8  23.6  22.0  20.5  19.4  18.4  17.9  17.7   0.0   0.0
 1987 353   141  24.8  23.6  22.0  20.5  19.4  18.4  17.8  17.7   0.0   0.0
 1987 354   142  23.7  22.7  21.2  19.9  19.0  18.1  17.7  17.5   0.0   0.0
 1987 355   143  23.7  22.7  21.2  19.9  19.0  18.1  17.7  17.5   0.0   0.0
 1987 356   144  23.7  22.7  21.2  19.9  19.0  18.1  17.7  17.5   0.0   0.0
 1987 357   145  23.9  22.8  21.4  20.0  19.1  18.2  17.7  17.5   0.0   0.0
 1987 358   146  24.3  23.2  21.6  20.2  19.2  18.3  17.8  17.6   0.0   0.0
 1987 359   147  24.1  23.0  21.5  20.2  19.2  18.2  17.7  17.6   0.0   0.0
 1987 360   148  24.4  23.3  21.8  20.3  19.3  18.3  17.8  17.6   0.0   0.0
 1987 361   149  25.5  24.2  22.5  20.9  19.7  18.6  18.0  17.7   0.0   0.0
 1987 362   150  26.2  24.8  23.0  21.3  20.0  18.8  18.1  17.8   0.0   0.0
 1987 363   151  25.5  24.3  22.5  20.9  19.8  18.6  18.0  17.7   0.0   0.0
 1987 364   152  25.9  24.7  22.9  21.2  20.0  18.8  18.1  17.8   0.0   0.0
 1987 365   153  26.3  24.9  23.1  21.4  20.1  18.8  18.1  17.8   0.0   0.0
 1988 001   154  26.4  25.1  23.2  21.4  20.1  18.9  18.1  17.9   0.0   0.0
 1988 002   155  26.3  25.0  23.1  21.4  20.1  18.9  18.1  17.8   0.0   0.0
 1988 003   156  27.8  26.2  24.1  22.1  20.7  19.2  18.4  18.0   0.0   0.0
 1988 004   157  29.3  27.6  25.2  22.9  21.3  19.6  18.6  18.2   0.0   0.0
 1988 005   158  29.3  27.6  25.2  22.9  21.3  19.6  18.6  18.2   0.0   0.0
 1988 006   159  27.8  26.3  24.2  22.2  20.7  19.3  18.4  18.0   0.0   0.0
 1988 007   160  27.6  26.1  24.1  22.1  20.7  19.2  18.4  18.0   0.0   0.0
 1988 008   161  27.1  25.7  23.7  21.9  20.5  19.1  18.3  17.9   0.0   0.0
 1988 009   162  26.5  25.2  23.3  21.5  20.2  18.9  18.2  17.9   0.0   0.0
 1988 010   163  27.5  26.0  24.0  22.1  20.6  19.2  18.3  18.0   0.0   0.0
 1988 011   164  29.6  27.9  25.4  23.1  21.4  19.7  18.7  18.2   0.0   0.0
 1988 012   165  31.1  29.1  26.4  23.9  22.0  20.1  18.9  18.4   0.0   0.0
 1988 013   166  30.4  28.5  26.0  23.6  21.8  19.9  18.8  18.3   0.0   0.0
 1988 014   167  30.0  28.3  25.8  23.5  21.7  19.9  18.8  18.3   0.0   0.0
 1988 015   168  29.3  27.7  25.3  23.1  21.4  19.7  18.7  18.2   0.0   0.0
 1988 016   169  28.0  26.6  24.5  22.4  20.9  19.4  18.5  18.1   0.0   0.0
 1988 017   170  28.4  26.8  24.7  22.6  21.1  19.5  18.5  18.1   0.0   0.0
 1988 018   171  28.6  27.1  24.8  22.8  21.2  19.6  18.6  18.1   0.0   0.0
 1988 019   172  27.5  26.1  24.1  22.2  20.8  19.3  18.4  18.0   0.0   0.0
 1988 020   173  26.3  25.1  23.4  21.7  20.4  19.1  18.3  17.9   0.0   0.0
 1988 021   174  25.7  24.6  22.9  21.4  20.2  18.9  18.2  17.8   0.0   0.0
 1988 022   175  23.8  22.9  21.6  20.4  19.4  18.4  17.8  17.6   0.0   0.0
 1988 023   176  23.6  22.7  21.5  20.3  19.4  18.4  17.8  17.6   0.0   0.0
 1988 024   177  24.7  23.7  22.3  20.9  19.8  18.7  18.0  17.7   0.0   0.0
 1988 025   178  26.0  24.8  23.2  21.5  20.3  19.0  18.2  17.9   0.0   0.0

*DSSAT Cropping System Model Ver. 4.0.2.000               Aug 03, 2016; 15:38:59

*RUN   2        : UYMZ                    
 MODEL          : MZCER040 - Maize           
 EXPERIMENT     : UYMZ0134 MZ    late to create DSS                             
 TREATMENT  1   : UYMZ                    

@YEAR DOY   DAS  TS1D  TS2D  TS3D  TS4D  TS5D  TS6D  TS7D  TS8D  TS9D  TS10
 1988 212     0  23.6  22.7  21.7  20.7  20.1  19.4  18.9  18.6   0.0   0.0
 1988 213     1  22.7  22.0  21.0  20.3  19.7  19.2  18.7  18.5   0.0   0.0
 1988 214     2  20.5  20.0  19.5  19.1  18.9  18.6  18.4  18.2   0.0   0.0
 1988 215     3  18.0  17.9  17.8  17.8  17.9  18.0  18.0  17.9   0.0   0.0
 1988 216     4  15.1  15.4  15.8  16.3  16.8  17.2  17.5  17.6   0.0   0.0
 1988 217     5  12.7  13.3  14.1  15.0  15.8  16.6  17.1  17.3   0.0   0.0
 1988 218     6  12.0  12.6  13.6  14.6  15.5  16.4  17.0  17.2   0.0   0.0
 1988 219     7  12.8  13.4  14.2  15.1  15.8  16.6  17.1  17.3   0.0   0.0
 1988 220     8  13.9  14.3  14.9  15.6  16.2  16.9  17.3  17.4   0.0   0.0
 1988 221     9  15.0  15.2  15.7  16.2  16.6  17.1  17.4  17.5   0.0   0.0
 1988 222    10  14.4  14.7  15.2  15.9  16.4  17.0  17.3  17.5   0.0   0.0
 1988 223    11  13.5  13.9  14.6  15.4  16.0  16.7  17.2  17.4   0.0   0.0
 1988 224    12  13.1  13.6  14.3  15.2  15.9  16.6  17.1  17.3   0.0   0.0
 1988 225    13  13.3  13.7  14.5  15.2  15.9  16.6  17.1  17.3   0.0   0.0
 1988 226    14  13.4  13.8  14.5  15.3  15.9  16.6  17.1  17.3   0.0   0.0
 1988 227    15  15.3  15.4  15.8  16.2  16.6  17.1  17.4  17.5   0.0   0.0
 1988 228    16  16.9  16.9  16.9  17.1  17.3  17.5  17.7  17.7   0.0   0.0
 1988 229    17  17.3  17.1  17.1  17.2  17.4  17.6  17.7  17.7   0.0   0.0
 1988 230    18  17.1  17.0  17.0  17.1  17.3  17.5  17.7  17.7   0.0   0.0
 1988 231    19  18.3  18.0  17.8  17.7  17.7  17.8  17.9  17.8   0.0   0.0
 1988 232    20  18.9  18.5  18.2  18.0  17.9  18.0  17.9  17.9   0.0   0.0
 1988 233    21  18.9  18.5  18.2  18.0  17.9  17.9  17.9  17.9   0.0   0.0
 1988 234    22  19.3  18.8  18.4  18.2  18.1  18.0  18.0  17.9   0.0   0.0
 1988 235    23  19.9  19.4  18.9  18.5  18.3  18.2  18.1  18.0   0.0   0.0
 1988 236    24  21.0  20.3  19.6  19.0  18.7  18.4  18.2  18.1   0.0   0.0
 1988 237    25  20.9  20.3  19.5  19.0  18.7  18.4  18.2  18.1   0.0   0.0
 1988 238    26  20.4  19.8  19.2  18.7  18.4  18.2  18.1  18.0   0.0   0.0
 1988 239    27  19.0  18.6  18.2  17.9  17.9  17.9  17.9  17.8   0.0   0.0
 1988 240    28  17.4  17.2  17.1  17.1  17.2  17.5  17.6  17.7   0.0   0.0
 1988 241    29  14.7  14.9  15.2  15.7  16.2  16.8  17.2  17.3   0.0   0.0
 1988 242    30  14.1  14.4  14.8  15.4  15.9  16.6  17.1  17.3   0.0   0.0
 1988 243    31  14.6  14.7  15.1  15.6  16.1  16.7  17.1  17.3   0.0   0.0
 1988 244    32  16.1  16.1  16.1  16.4  16.7  17.0  17.3  17.5   0.0   0.0
 1988 245    33  16.4  16.3  16.3  16.5  16.8  17.1  17.4  17.5   0.0   0.0
 1988 246    34  16.1  16.1  16.1  16.4  16.6  17.0  17.3  17.5   0.0   0.0
 1988 247    35  14.9  15.0  15.3  15.7  16.1  16.7  17.1  17.3   0.0   0.0
 1988 248    36  14.7  14.8  15.1  15.6  16.0  16.6  17.1  17.3   0.0   0.0
 1988 249    37  15.0  15.1  15.3  15.7  16.1  16.7  17.1  17.3   0.0   0.0
 1988 250    38  15.7  15.7  15.8  16.1  16.4  16.9  17.2  17.4   0.0   0.0
 1988 251    39  17.1  16.9  16.7  16.8  16.9  17.2  17.4  17.5   0.0   0.0
 1988 252    40  18.9  18.5  18.0  17.7  17.6  17.6  17.7  17.7   0.0   0.0
 1988 253    41  18.8  18.4  17.9  17.6  17.5  17.6  17.7  17.7   0.0   0.0
 1988 254    42  17.2  17.0  16.8  16.8  16.9  17.2  17.4  17.5   0.0   0.0
 1988 255    43  17.2  16.9  16.7  16.7  16.9  17.1  17.4  17.5   0.0   0.0
 1988 256    44  17.4  17.2  16.9  16.9  17.0  17.2  17.4  17.5   0.0   0.0
 1988 257    45  17.0  16.8  16.6  16.6  16.8  17.1  17.3  17.4   0.0   0.0
 1988 258    46  16.8  16.6  16.5  16.5  16.7  17.0  17.3  17.4   0.0   0.0
 1988 259    47  16.9  16.6  16.5  16.5  16.7  17.0  17.3  17.4   0.0   0.0
 1988 260    48  15.9  15.8  15.8  16.0  16.3  16.7  17.1  17.3   0.0   0.0
 1988 261    49  14.5  14.6  14.8  15.3  15.7  16.4  16.9  17.1   0.0   0.0
 1988 262    50  13.8  14.0  14.4  14.9  15.4  16.2  16.7  17.0   0.0   0.0
 1988 263    51  14.6  14.7  14.9  15.3  15.8  16.4  16.9  17.1   0.0   0.0
 1988 264    52  16.4  16.2  16.1  16.2  16.4  16.8  17.1  17.3   0.0   0.0
 1988 265    53  17.4  17.1  16.8  16.7  16.8  17.0  17.3  17.4   0.0   0.0
 1988 266    54  18.7  18.2  17.7  17.4  17.3  17.3  17.5  17.5   0.0   0.0
 1988 267    55  19.6  19.0  18.3  17.9  17.7  17.6  17.6  17.6   0.0   0.0
 1988 268    56  18.8  18.3  17.7  17.4  17.3  17.3  17.5  17.5   0.0   0.0
 1988 269    57  17.5  17.2  16.9  16.8  16.8  17.0  17.2  17.4   0.0   0.0
 1988 270    58  16.5  16.3  16.1  16.2  16.4  16.7  17.1  17.2   0.0   0.0
 1988 271    59  15.9  15.8  15.7  15.9  16.1  16.6  16.9  17.2   0.0   0.0
 1988 272    60  14.9  14.9  15.1  15.4  15.7  16.3  16.8  17.0   0.0   0.0
 1988 273    61  15.7  15.6  15.6  15.7  16.0  16.5  16.9  17.1   0.0   0.0
 1988 274    62  16.9  16.6  16.4  16.3  16.5  16.8  17.1  17.2   0.0   0.0
 1988 275    63  19.2  18.6  18.0  17.5  17.4  17.3  17.4  17.5   0.0   0.0
 1988 276    64  20.6  19.8  18.9  18.2  17.9  17.7  17.6  17.7   0.0   0.0
 1988 277    65  20.3  19.6  18.7  18.1  17.8  17.6  17.6  17.6   0.0   0.0
 1988 278    66  20.2  19.5  18.6  18.0  17.7  17.6  17.6  17.6   0.0   0.0
 1988 279    67  19.8  19.1  18.3  17.8  17.5  17.4  17.5  17.5   0.0   0.0
 1988 280    68  19.1  18.6  17.9  17.5  17.3  17.3  17.4  17.4   0.0   0.0
 1988 281    69  19.2  18.6  17.9  17.5  17.3  17.3  17.4  17.4   0.0   0.0
 1988 282    70  20.8  20.0  19.0  18.3  17.9  17.7  17.6  17.6   0.0   0.0
 1988 283    71  20.8  20.0  19.0  18.3  17.9  17.7  17.6  17.6   0.0   0.0
 1988 284    72  21.1  20.3  19.2  18.4  18.0  17.7  17.6  17.6   0.0   0.0
 1988 285    73  21.4  20.5  19.4  18.6  18.1  17.8  17.7  17.7   0.0   0.0
 1988 286    74  21.4  20.5  19.4  18.6  18.1  17.8  17.7  17.7   0.0   0.0
 1988 287    75  20.4  19.7  18.7  18.1  17.7  17.5  17.5  17.5   0.0   0.0
 1988 288    76  20.8  20.0  19.0  18.3  17.8  17.6  17.6  17.6   0.0   0.0
 1988 289    77  20.1  19.4  18.5  17.9  17.5  17.4  17.4  17.5   0.0   0.0
 1988 290    78  19.2  18.6  17.9  17.4  17.2  17.2  17.3  17.4   0.0   0.0
 1988 291    79  18.6  18.1  17.5  17.1  17.0  17.0  17.2  17.3   0.0   0.0
 1988 292    80  19.8  19.1  18.3  17.7  17.4  17.3  17.3  17.4   0.0   0.0
 1988 293    81  19.6  19.0  18.2  17.6  17.3  17.2  17.3  17.4   0.0   0.0
 1988 294    82  20.8  20.0  19.0  18.2  17.8  17.5  17.5  17.5   0.0   0.0
 1988 295    83  22.1  21.1  19.9  18.9  18.3  17.8  17.7  17.6   0.0   0.0
 1988 296    84  23.1  22.0  20.5  19.4  18.7  18.1  17.8  17.8   0.0   0.0
 1988 297    85  23.1  22.0  20.5  19.4  18.6  18.1  17.8  17.7   0.0   0.0
 1988 298    86  24.1  22.8  21.2  19.9  19.0  18.3  18.0  17.8   0.0   0.0
 1988 299    87  23.1  22.0  20.5  19.3  18.6  18.0  17.8  17.7   0.0   0.0
 1988 300    88  21.7  20.7  19.5  18.6  18.1  17.7  17.6  17.5   0.0   0.0
 1988 301    89  21.3  20.4  19.3  18.4  17.9  17.6  17.5  17.5   0.0   0.0
 1988 302    90  21.8  20.8  19.6  18.7  18.1  17.7  17.6  17.5   0.0   0.0
 1988 303    91  22.8  21.7  20.3  19.2  18.5  17.9  17.7  17.7   0.0   0.0
 1988 304    92  23.7  22.5  20.9  19.6  18.8  18.1  17.8  17.7   0.0   0.0
 1988 305    93  24.1  22.9  21.2  19.9  19.0  18.2  17.9  17.8   0.0   0.0
 1988 306    94  23.4  22.3  20.8  19.5  18.7  18.1  17.8  17.7   0.0   0.0
 1988 307    95  22.4  21.3  20.0  19.0  18.3  17.8  17.6  17.6   0.0   0.0
 1988 308    96  21.0  20.2  19.1  18.3  17.8  17.5  17.4  17.4   0.0   0.0
 1988 309    97  21.8  20.8  19.6  18.7  18.1  17.6  17.5  17.5   0.0   0.0
 1988 310    98  23.6  22.4  20.9  19.6  18.8  18.1  17.8  17.7   0.0   0.0
 1988 311    99  25.7  24.2  22.3  20.6  19.6  18.6  18.1  17.9   0.0   0.0
 1988 312   100  27.5  25.8  23.5  21.6  20.2  19.0  18.4  18.1   0.0   0.0
 1988 313   101  27.9  26.2  23.8  21.8  20.4  19.1  18.4  18.2   0.0   0.0
 1988 314   102  28.0  26.2  23.9  21.8  20.4  19.1  18.4  18.1   0.0   0.0
 1988 315   103  27.1  25.4  23.3  21.4  20.1  18.9  18.3  18.0   0.0   0.0
 1988 316   104  26.0  24.5  22.5  20.8  19.7  18.7  18.1  17.9   0.0   0.0
 1988 317   105  24.8  23.5  21.7  20.2  19.2  18.3  17.9  17.8   0.0   0.0
 1988 318   106  25.3  23.9  22.1  20.5  19.4  18.5  18.0  17.8   0.0   0.0
 1988 319   107  25.1  23.7  21.9  20.4  19.3  18.4  18.0  17.8   0.0   0.0
 1988 320   108  25.6  24.1  22.2  20.6  19.5  18.5  18.0  17.8   0.0   0.0
 1988 321   109  27.1  25.4  23.3  21.4  20.1  18.9  18.3  18.0   0.0   0.0
 1988 322   110  28.9  27.0  24.5  22.3  20.8  19.3  18.5  18.2   0.0   0.0
 1988 323   111  28.3  26.5  24.1  22.0  20.5  19.2  18.4  18.1   0.0   0.0
 1988 324   112  28.9  27.1  24.5  22.3  20.8  19.3  18.5  18.2   0.0   0.0
 1988 325   113  29.2  27.3  24.7  22.5  20.9  19.4  18.6  18.2   0.0   0.0
 1988 326   114  26.9  25.3  23.2  21.3  20.0  18.8  18.2  18.0   0.0   0.0
 1988 327   115  24.5  23.2  21.5  20.1  19.1  18.2  17.8  17.7   0.0   0.0
 1988 328   116  24.1  22.9  21.3  19.9  19.0  18.2  17.8  17.6   0.0   0.0
 1988 329   117  23.6  22.4  20.9  19.6  18.7  18.0  17.7  17.6   0.0   0.0
 1988 330   118  23.6  22.5  20.9  19.6  18.8  18.0  17.7  17.6   0.0   0.0
 1988 331   119  24.6  23.4  21.6  20.2  19.1  18.3  17.8  17.7   0.0   0.0
 1988 332   120  24.7  23.4  21.7  20.2  19.2  18.3  17.8  17.7   0.0   0.0
 1988 333   121  24.4  23.2  21.5  20.1  19.1  18.2  17.8  17.6   0.0   0.0
 1988 334   122  24.5  23.2  21.6  20.1  19.1  18.2  17.8  17.6   0.0   0.0
 1988 335   123  24.4  23.1  21.5  20.0  19.0  18.2  17.8  17.6   0.0   0.0
 1988 336   124  24.5  23.2  21.6  20.1  19.1  18.2  17.8  17.6   0.0   0.0
 1988 337   125  25.7  24.3  22.4  20.7  19.6  18.5  18.0  17.8   0.0   0.0
 1988 338   126  27.3  25.7  23.5  21.5  20.2  18.9  18.2  17.9   0.0   0.0
 1988 339   127  28.7  26.9  24.5  22.3  20.7  19.3  18.4  18.1   0.0   0.0
 1988 340   128  30.3  28.3  25.6  23.1  21.3  19.7  18.7  18.3   0.0   0.0
 1988 341   129  31.8  29.6  26.5  23.8  21.9  20.0  18.9  18.4   0.0   0.0
 1988 342   130  31.8  29.6  26.5  23.8  21.9  20.0  18.9  18.4   0.0   0.0
 1988 343   131  30.9  28.8  25.9  23.4  21.5  19.8  18.7  18.3   0.0   0.0
 1988 344   132  29.8  27.9  25.2  22.9  21.1  19.5  18.6  18.2   0.0   0.0
 1988 345   133  28.5  26.7  24.3  22.2  20.6  19.2  18.4  18.0   0.0   0.0
 1988 346   134  28.3  26.6  24.2  22.1  20.6  19.1  18.3  18.0   0.0   0.0
 1988 347   135  27.4  25.8  23.6  21.6  20.2  18.9  18.2  17.9   0.0   0.0
 1988 348   136  27.4  25.8  23.7  21.7  20.3  19.0  18.2  17.9   0.0   0.0
 1988 349   137  27.8  26.2  23.9  21.9  20.5  19.1  18.3  18.0   0.0   0.0
 1988 350   138  27.6  26.0  23.8  21.8  20.4  19.0  18.3  18.0   0.0   0.0
 1988 351   139  27.1  25.6  23.5  21.6  20.2  18.9  18.2  17.9   0.0   0.0
 1988 352   140  28.6  26.9  24.5  22.3  20.8  19.3  18.4  18.1   0.0   0.0
 1988 353   141  29.3  27.5  25.0  22.7  21.0  19.4  18.5  18.1   0.0   0.0
 1988 354   142  29.2  27.4  24.9  22.6  21.0  19.4  18.5  18.1   0.0   0.0
 1988 355   143  28.7  27.0  24.6  22.4  20.8  19.3  18.4  18.1   0.0   0.0
 1988 356   144  28.2  26.5  24.2  22.1  20.6  19.2  18.3  18.0   0.0   0.0
 1988 357   145  27.7  26.1  23.9  21.9  20.4  19.0  18.2  17.9   0.0   0.0
 1988 358   146  28.0  26.4  24.1  22.0  20.6  19.1  18.3  18.0   0.0   0.0
 1988 359   147  29.1  27.3  24.9  22.6  21.0  19.4  18.5  18.1   0.0   0.0
 1988 360   148  30.7  28.8  26.0  23.5  21.6  19.8  18.7  18.3   0.0   0.0
 1988 361   149  32.0  29.9  26.9  24.1  22.1  20.1  18.9  18.4   0.0   0.0
 1988 362   150  32.3  30.1  27.1  24.3  22.2  20.2  19.0  18.4   0.0   0.0
 1988 363   151  31.8  29.7  26.7  24.0  22.0  20.1  18.9  18.4   0.0   0.0
 1988 364   152  30.6  28.6  25.9  23.4  21.6  19.8  18.7  18.2   0.0   0.0
 1988 365   153  29.5  27.7  25.2  22.9  21.2  19.6  18.6  18.2   0.0   0.0
 1988 366   154  29.1  27.4  25.0  22.7  21.1  19.5  18.5  18.1   0.0   0.0
 1989 001   155  30.2  28.3  25.7  23.2  21.4  19.7  18.6  18.2   0.0   0.0
 1989 002   156  31.4  29.3  26.5  23.8  21.9  20.0  18.8  18.3   0.0   0.0
 1989 003   157  32.7  30.5  27.4  24.5  22.4  20.3  19.0  18.5   0.0   0.0
 1989 004   158  34.0  31.6  28.3  25.2  22.9  20.7  19.3  18.6   0.0   0.0
 1989 005   159  34.6  32.1  28.6  25.5  23.1  20.8  19.3  18.7   0.0   0.0
 1989 006   160  34.2  31.8  28.4  25.3  23.0  20.7  19.3  18.6   0.0   0.0
 1989 007   161  33.7  31.3  28.0  25.0  22.8  20.6  19.2  18.6   0.0   0.0
 1989 008   162  33.0  30.7  27.6  24.7  22.5  20.4  19.1  18.5   0.0   0.0
 1989 009   163  32.2  30.1  27.1  24.4  22.3  20.3  19.0  18.5   0.0   0.0
 1989 010   164  31.6  29.5  26.7  24.0  22.1  20.1  18.9  18.4   0.0   0.0
 1989 011   165  31.1  29.2  26.4  23.8  21.9  20.0  18.8  18.3   0.0   0.0
 1989 012   166  31.1  29.1  26.3  23.8  21.9  20.0  18.8  18.3   0.0   0.0
 1989 013   167  31.1  29.1  26.3  23.8  21.9  20.0  18.8  18.3   0.0   0.0
 1989 014   168  31.0  29.1  26.3  23.8  21.9  20.0  18.8  18.3   0.0   0.0

*DSSAT Cropping System Model Ver. 4.0.2.000               Aug 03, 2016; 15:38:59

*RUN   3        : UYMZ                    
 MODEL          : MZCER040 - Maize           
 EXPERIMENT     : UYMZ0134 MZ    late to create DSS                             
 TREATMENT  1   : UYMZ                    

@YEAR DOY   DAS  TS1D  TS2D  TS3D  TS4D  TS5D  TS6D  TS7D  TS8D  TS9D  TS10
 1989 212     0  13.6  14.1  14.9  15.7  16.3  17.0  17.3  17.5   0.0   0.0
 1989 213     1  14.2  14.6  15.2  15.9  16.5  17.1  17.4  17.5   0.0   0.0
 1989 214     2  15.6  15.8  16.2  16.6  17.0  17.4  17.6  17.7   0.0   0.0
 1989 215     3  17.5  17.4  17.4  17.6  17.7  17.9  17.9  17.9   0.0   0.0
 1989 216     4  18.1  18.0  17.9  17.9  18.0  18.0  18.0  17.9   0.0   0.0
 1989 217     5  18.8  18.5  18.3  18.2  18.2  18.2  18.1  18.0   0.0   0.0
 1989 218     6  19.2  18.9  18.6  18.4  18.3  18.2  18.1  18.0   0.0   0.0
 1989 219     7  18.8  18.5  18.3  18.2  18.2  18.1  18.1  18.0   0.0   0.0
 1989 220     8  17.2  17.1  17.2  17.3  17.5  17.7  17.8  17.8   0.0   0.0
 1989 221     9  16.7  16.7  16.8  17.1  17.3  17.6  17.7  17.7   0.0   0.0
 1989 222    10  16.7  16.7  16.8  17.0  17.3  17.5  17.7  17.7   0.0   0.0
 1989 223    11  16.5  16.6  16.7  16.9  17.2  17.5  17.7  17.7   0.0   0.0
 1989 224    12  16.2  16.2  16.4  16.7  17.0  17.4  17.6  17.7   0.0   0.0
 1989 225    13  17.3  17.2  17.2  17.3  17.5  17.7  17.8  17.8   0.0   0.0
 1989 226    14  18.6  18.3  18.1  18.0  18.0  18.0  18.0  17.9   0.0   0.0
 1989 227    15  19.7  19.3  18.8  18.5  18.4  18.2  18.1  18.0   0.0   0.0
 1989 228    16  21.1  20.5  19.7  19.2  18.9  18.6  18.3  18.2   0.0   0.0
 1989 229    17  22.2  21.4  20.5  19.7  19.3  18.8  18.5  18.3   0.0   0.0
 1989 230    18  23.2  22.3  21.2  20.3  19.7  19.1  18.7  18.4   0.0   0.0
 1989 231    19  23.0  22.2  21.0  20.2  19.6  19.0  18.6  18.4   0.0   0.0
 1989 232    20  22.0  21.3  20.3  19.6  19.2  18.8  18.4  18.3   0.0   0.0
 1989 233    21  20.5  19.9  19.3  18.8  18.6  18.3  18.2  18.1   0.0   0.0
 1989 234    22  18.3  18.0  17.8  17.7  17.7  17.8  17.8  17.8   0.0   0.0
 1989 235    23  15.9  15.9  16.1  16.4  16.7  17.1  17.4  17.5   0.0   0.0
 1989 236    24  14.7  14.9  15.2  15.7  16.2  16.8  17.2  17.4   0.0   0.0
 1989 237    25  14.2  14.5  14.9  15.5  16.0  16.7  17.1  17.3   0.0   0.0
 1989 238    26  14.0  14.3  14.8  15.4  15.9  16.6  17.1  17.3   0.0   0.0
 1989 239    27  14.3  14.5  15.0  15.5  16.0  16.7  17.1  17.3   0.0   0.0
 1989 240    28  14.7  14.8  15.2  15.7  16.2  16.8  17.2  17.3   0.0   0.0
 1989 241    29  16.2  16.2  16.2  16.5  16.7  17.1  17.4  17.5   0.0   0.0
 1989 242    30  17.4  17.2  17.0  17.1  17.2  17.4  17.6  17.6   0.0   0.0
 1989 243    31  16.9  16.8  16.7  16.8  17.0  17.3  17.5  17.6   0.0   0.0
 1989 244    32  17.2  17.0  16.9  16.9  17.1  17.3  17.5  17.6   0.0   0.0
 1989 245    33  17.1  16.9  16.8  16.8  17.0  17.3  17.5  17.6   0.0   0.0
 1989 246    34  16.6  16.5  16.5  16.6  16.8  17.1  17.4  17.5   0.0   0.0
 1989 247    35  17.2  17.0  16.8  16.9  17.0  17.3  17.5  17.6   0.0   0.0
 1989 248    36  17.7  17.4  17.1  17.1  17.2  17.4  17.5  17.6   0.0   0.0
 1989 249    37  17.6  17.4  17.1  17.1  17.2  17.4  17.5  17.6   0.0   0.0
 1989 250    38  17.8  17.5  17.2  17.1  17.2  17.4  17.5  17.6   0.0   0.0
 1989 251    39  16.9  16.7  16.6  16.7  16.9  17.1  17.4  17.5   0.0   0.0
 1989 252    40  15.7  15.7  15.8  16.0  16.4  16.8  17.2  17.3   0.0   0.0
 1989 253    41  15.9  15.9  15.9  16.1  16.4  16.9  17.2  17.4   0.0   0.0
 1989 254    42  16.5  16.4  16.3  16.4  16.6  17.0  17.3  17.4   0.0   0.0
 1989 255    43  16.8  16.6  16.5  16.5  16.7  17.0  17.3  17.4   0.0   0.0
 1989 256    44  16.7  16.5  16.4  16.5  16.7  17.0  17.3  17.4   0.0   0.0
 1989 257    45  16.3  16.1  16.1  16.2  16.5  16.9  17.2  17.4   0.0   0.0
 1989 258    46  15.7  15.6  15.7  15.9  16.3  16.7  17.1  17.3   0.0   0.0
 1989 259    47  15.4  15.4  15.5  15.8  16.1  16.6  17.0  17.2   0.0   0.0
 1989 260    48  15.6  15.5  15.6  15.9  16.2  16.7  17.1  17.2   0.0   0.0
 1989 261    49  16.5  16.3  16.2  16.3  16.5  16.9  17.2  17.3   0.0   0.0
 1989 262    50  18.0  17.6  17.3  17.1  17.1  17.2  17.4  17.5   0.0   0.0
 1989 263    51  19.8  19.2  18.5  18.0  17.8  17.7  17.7  17.7   0.0   0.0
 1989 264    52  21.5  20.7  19.6  18.9  18.4  18.1  18.0  17.9   0.0   0.0
 1989 265    53  21.5  20.7  19.6  18.9  18.4  18.1  17.9  17.9   0.0   0.0
 1989 266    54  20.6  19.9  19.0  18.4  18.1  17.9  17.8  17.8   0.0   0.0
 1989 267    55  18.3  17.9  17.4  17.2  17.1  17.2  17.4  17.5   0.0   0.0
 1989 268    56  15.9  15.8  15.8  15.9  16.2  16.6  17.0  17.2   0.0   0.0
 1989 269    57  13.7  13.9  14.3  14.8  15.3  16.0  16.6  16.9   0.0   0.0
 1989 270    58  12.7  13.0  13.6  14.2  14.9  15.8  16.5  16.8   0.0   0.0
 1989 271    59  12.6  12.9  13.4  14.2  14.8  15.7  16.4  16.8   0.0   0.0
 1989 272    60  13.7  13.9  14.2  14.8  15.3  16.0  16.6  16.9   0.0   0.0
 1989 273    61  15.5  15.4  15.4  15.6  15.9  16.4  16.9  17.1   0.0   0.0
 1989 274    62  17.5  17.1  16.8  16.7  16.7  16.9  17.2  17.3   0.0   0.0
 1989 275    63  19.4  18.8  18.1  17.7  17.5  17.4  17.5  17.5   0.0   0.0
 1989 276    64  20.6  19.9  18.9  18.3  17.9  17.7  17.7  17.7   0.0   0.0
 1989 277    65  21.3  20.5  19.4  18.6  18.2  17.9  17.8  17.7   0.0   0.0
 1989 278    66  21.9  21.0  19.8  18.9  18.4  18.0  17.8  17.8   0.0   0.0
 1989 279    67  21.8  20.9  19.7  18.8  18.3  18.0  17.8  17.8   0.0   0.0
 1989 280    68  21.5  20.6  19.5  18.7  18.2  17.9  17.7  17.7   0.0   0.0
 1989 281    69  21.1  20.3  19.3  18.5  18.0  17.8  17.7  17.7   0.0   0.0
 1989 282    70  20.9  20.1  19.1  18.4  17.9  17.7  17.6  17.6   0.0   0.0
 1989 283    71  20.3  19.6  18.7  18.0  17.7  17.5  17.5  17.6   0.0   0.0
 1989 284    72  19.6  19.0  18.2  17.7  17.4  17.3  17.4  17.5   0.0   0.0
 1989 285    73  17.9  17.5  17.0  16.8  16.7  16.9  17.1  17.3   0.0   0.0
 1989 286    74  17.1  16.8  16.5  16.4  16.4  16.7  17.0  17.2   0.0   0.0
 1989 287    75  17.1  16.8  16.4  16.3  16.4  16.7  17.0  17.1   0.0   0.0
 1989 288    76  17.4  17.0  16.6  16.5  16.5  16.7  17.0  17.2   0.0   0.0
 1989 289    77  17.7  17.3  16.9  16.7  16.6  16.8  17.0  17.2   0.0   0.0
 1989 290    78  18.9  18.3  17.7  17.3  17.1  17.1  17.2  17.3   0.0   0.0
 1989 291    79  20.0  19.3  18.4  17.8  17.5  17.3  17.4  17.4   0.0   0.0
 1989 292    80  20.9  20.1  19.0  18.3  17.8  17.6  17.5  17.5   0.0   0.0
 1989 293    81  21.8  20.8  19.6  18.7  18.2  17.8  17.6  17.6   0.0   0.0
 1989 294    82  22.5  21.4  20.1  19.1  18.4  17.9  17.8  17.7   0.0   0.0
 1989 295    83  23.9  22.7  21.1  19.8  19.0  18.3  18.0  17.8   0.0   0.0
 1989 296    84  25.3  23.9  22.1  20.5  19.5  18.6  18.2  18.0   0.0   0.0
 1989 297    85  24.9  23.5  21.8  20.3  19.3  18.5  18.1  17.9   0.0   0.0
 1989 298    86  23.6  22.4  20.9  19.6  18.8  18.2  17.9  17.8   0.0   0.0
 1989 299    87  22.4  21.4  20.1  19.0  18.4  17.9  17.7  17.6   0.0   0.0
 1989 300    88  21.3  20.4  19.3  18.5  18.0  17.6  17.5  17.5   0.0   0.0
 1989 301    89  20.1  19.4  18.5  17.8  17.5  17.3  17.3  17.4   0.0   0.0
 1989 302    90  21.3  20.4  19.3  18.4  17.9  17.6  17.5  17.5   0.0   0.0
 1989 303    91  21.4  20.5  19.4  18.5  18.0  17.6  17.5  17.5   0.0   0.0
 1989 304    92  21.8  20.8  19.6  18.7  18.1  17.7  17.5  17.5   0.0   0.0
 1989 305    93  21.8  20.9  19.7  18.7  18.1  17.7  17.5  17.5   0.0   0.0
 1989 306    94  21.1  20.3  19.2  18.3  17.8  17.5  17.4  17.4   0.0   0.0
 1989 307    95  19.5  18.9  18.1  17.5  17.2  17.1  17.2  17.2   0.0   0.0
 1989 308    96  19.8  19.2  18.3  17.7  17.3  17.2  17.2  17.3   0.0   0.0
 1989 309    97  20.1  19.4  18.5  17.8  17.4  17.2  17.2  17.3   0.0   0.0
 1989 310    98  20.9  20.1  19.0  18.2  17.7  17.4  17.4  17.4   0.0   0.0
 1989 311    99  21.8  20.8  19.6  18.7  18.1  17.6  17.5  17.5   0.0   0.0
 1989 312   100  23.1  22.0  20.6  19.4  18.6  18.0  17.7  17.6   0.0   0.0
 1989 313   101  24.1  22.8  21.2  19.8  18.9  18.2  17.8  17.7   0.0   0.0
 1989 314   102  25.4  24.0  22.1  20.5  19.5  18.5  18.0  17.9   0.0   0.0
 1989 315   103  25.1  23.7  21.9  20.3  19.3  18.4  18.0  17.8   0.0   0.0
 1989 316   104  24.1  22.9  21.3  19.9  19.0  18.2  17.8  17.7   0.0   0.0
 1989 317   105  22.5  21.5  20.2  19.1  18.4  17.8  17.6  17.5   0.0   0.0
 1989 318   106  21.7  20.8  19.6  18.6  18.0  17.6  17.4  17.4   0.0   0.0
 1989 319   107  21.4  20.5  19.4  18.5  17.9  17.5  17.4  17.4   0.0   0.0
 1989 320   108  21.5  20.7  19.5  18.6  18.0  17.5  17.4  17.4   0.0   0.0
 1989 321   109  22.8  21.7  20.3  19.2  18.4  17.8  17.6  17.5   0.0   0.0
 1989 322   110  24.9  23.6  21.8  20.3  19.3  18.4  17.9  17.8   0.0   0.0
 1989 323   111  26.2  24.7  22.7  20.9  19.8  18.7  18.1  17.9   0.0   0.0
 1989 324   112  26.2  24.7  22.7  20.9  19.7  18.7  18.1  17.9   0.0   0.0
 1989 325   113  27.2  25.6  23.4  21.5  20.1  18.9  18.3  18.0   0.0   0.0
 1989 326   114  28.6  26.8  24.3  22.2  20.7  19.3  18.5  18.2   0.0   0.0
 1989 327   115  28.8  26.9  24.5  22.3  20.7  19.3  18.5  18.2   0.0   0.0
 1989 328   116  27.7  26.0  23.7  21.7  20.3  19.0  18.3  18.0   0.0   0.0
 1989 329   117  27.2  25.6  23.4  21.5  20.1  18.9  18.2  18.0   0.0   0.0
 1989 330   118  26.6  25.0  23.0  21.1  19.9  18.8  18.1  17.9   0.0   0.0
 1989 331   119  25.1  23.7  21.9  20.4  19.3  18.4  17.9  17.7   0.0   0.0
 1989 332   120  24.2  23.0  21.3  19.9  19.0  18.1  17.8  17.6   0.0   0.0
 1989 333   121  24.5  23.2  21.6  20.1  19.1  18.2  17.8  17.7   0.0   0.0
 1989 334   122  25.3  24.0  22.1  20.5  19.4  18.4  17.9  17.7   0.0   0.0
 1989 335   123  26.3  24.8  22.8  21.0  19.8  18.7  18.1  17.8   0.0   0.0
 1989 336   124  27.4  25.7  23.5  21.5  20.2  18.9  18.2  18.0   0.0   0.0
 1989 337   125  27.4  25.8  23.5  21.6  20.2  18.9  18.2  18.0   0.0   0.0
 1989 338   126  27.4  25.8  23.6  21.6  20.2  18.9  18.2  18.0   0.0   0.0
 1989 339   127  27.6  26.0  23.7  21.7  20.3  19.0  18.3  18.0   0.0   0.0
 1989 340   128  27.2  25.6  23.5  21.5  20.2  18.9  18.2  17.9   0.0   0.0
 1989 341   129  27.2  25.6  23.4  21.5  20.1  18.9  18.2  17.9   0.0   0.0
 1989 342   130  28.0  26.3  24.0  21.9  20.5  19.1  18.3  18.0   0.0   0.0
 1989 343   131  28.7  26.9  24.5  22.3  20.7  19.3  18.4  18.1   0.0   0.0
 1989 344   132  29.1  27.2  24.7  22.5  20.9  19.3  18.5  18.1   0.0   0.0
 1989 345   133  29.9  28.0  25.3  22.9  21.2  19.5  18.6  18.2   0.0   0.0
 1989 346   134  30.7  28.7  25.9  23.4  21.5  19.8  18.7  18.3   0.0   0.0
 1989 347   135  31.1  29.0  26.1  23.5  21.7  19.9  18.8  18.3   0.0   0.0
 1989 348   136  31.3  29.2  26.3  23.6  21.8  19.9  18.8  18.4   0.0   0.0
 1989 349   137  31.2  29.1  26.2  23.6  21.7  19.9  18.8  18.3   0.0   0.0
 1989 350   138  31.2  29.1  26.2  23.6  21.7  19.9  18.8  18.3   0.0   0.0
 1989 351   139  29.4  27.5  25.0  22.7  21.0  19.4  18.5  18.1   0.0   0.0
 1989 352   140  28.0  26.4  24.1  22.1  20.6  19.2  18.3  18.0   0.0   0.0
 1989 353   141  27.3  25.8  23.7  21.7  20.3  19.0  18.2  17.9   0.0   0.0
 1989 354   142  26.4  25.0  23.0  21.3  20.0  18.8  18.1  17.8   0.0   0.0
 1989 355   143  25.1  23.9  22.2  20.6  19.5  18.4  17.9  17.7   0.0   0.0
 1989 356   144  26.0  24.6  22.8  21.1  19.8  18.7  18.0  17.8   0.0   0.0
 1989 357   145  26.8  25.4  23.3  21.5  20.1  18.9  18.1  17.9   0.0   0.0
 1989 358   146  27.6  26.0  23.9  21.9  20.4  19.1  18.3  17.9   0.0   0.0
 1989 359   147  27.8  26.2  24.0  22.0  20.5  19.1  18.3  18.0   0.0   0.0
 1989 360   148  28.5  26.8  24.5  22.3  20.8  19.3  18.4  18.0   0.0   0.0
 1989 361   149  28.5  26.8  24.5  22.3  20.8  19.3  18.4  18.0   0.0   0.0
 1989 362   150  28.6  26.9  24.6  22.4  20.9  19.3  18.4  18.1   0.0   0.0
 1989 363   151  28.0  26.4  24.2  22.1  20.6  19.2  18.3  18.0   0.0   0.0
 1989 364   152  28.0  26.4  24.2  22.1  20.6  19.2  18.3  18.0   0.0   0.0
 1989 365   153  27.9  26.3  24.2  22.1  20.6  19.2  18.3  18.0   0.0   0.0
 1990 001   154  28.0  26.4  24.2  22.1  20.6  19.2  18.3  18.0   0.0   0.0
 1990 002   155  27.9  26.3  24.1  22.1  20.6  19.2  18.3  18.0   0.0   0.0
 1990 003   156  28.3  26.6  24.4  22.3  20.7  19.2  18.4  18.0   0.0   0.0
 1990 004   157  29.3  27.6  25.1  22.8  21.2  19.5  18.5  18.1   0.0   0.0
 1990 005   158  30.2  28.3  25.7  23.3  21.5  19.7  18.7  18.2   0.0   0.0
 1990 006   159  31.1  29.1  26.3  23.8  21.9  20.0  18.8  18.3   0.0   0.0
 1990 007   160  32.0  29.9  26.9  24.2  22.2  20.2  19.0  18.4   0.0   0.0
 1990 008   161  32.0  29.9  27.0  24.2  22.2  20.2  19.0  18.4   0.0   0.0
 1990 009   162  31.2  29.2  26.4  23.8  21.9  20.0  18.8  18.3   0.0   0.0
 1990 010   163  30.2  28.4  25.8  23.3  21.6  19.8  18.7  18.2   0.0   0.0

*DSSAT Cropping System Model Ver. 4.0.2.000               Aug 03, 2016; 15:38:59

*RUN   4        : UYMZ                    
 MODEL          : MZCER040 - Maize           
 EXPERIMENT     : UYMZ0134 MZ    late to create DSS                             
 TREATMENT  1   : UYMZ                    

@YEAR DOY   DAS  TS1D  TS2D  TS3D  TS4D  TS5D  TS6D  TS7D  TS8D  TS9D  TS10
 1990 212     0  10.5  11.4  12.8  14.1  15.1  16.2  16.9  17.1   0.0   0.0
 1990 213     1  11.4  12.2  13.3  14.5  15.4  16.4  17.0  17.2   0.0   0.0
 1990 214     2  12.7  13.3  14.2  15.1  15.9  16.7  17.2  17.3   0.0   0.0
 1990 215     3  14.3  14.6  15.3  15.9  16.5  17.1  17.4  17.5   0.0   0.0
 1990 216     4  16.0  16.1  16.4  16.8  17.1  17.5  17.7  17.7   0.0   0.0
 1990 217     5  18.1  18.0  17.9  17.9  17.9  18.0  18.0  17.9   0.0   0.0
 1990 218     6  19.5  19.2  18.8  18.6  18.5  18.3  18.2  18.1   0.0   0.0
 1990 219     7  20.9  20.3  19.7  19.2  19.0  18.7  18.4  18.2   0.0   0.0
 1990 220     8  21.7  21.0  20.3  19.6  19.2  18.8  18.5  18.3   0.0   0.0
 1990 221     9  21.7  21.0  20.2  19.6  19.2  18.8  18.5  18.3   0.0   0.0
 1990 222    10  21.2  20.6  19.9  19.3  19.0  18.7  18.4  18.2   0.0   0.0
 1990 223    11  21.7  21.0  20.2  19.6  19.2  18.8  18.5  18.3   0.0   0.0
 1990 224    12  22.1  21.3  20.5  19.8  19.3  18.9  18.5  18.3   0.0   0.0
 1990 225    13  22.6  21.8  20.8  20.0  19.5  19.0  18.6  18.4   0.0   0.0
 1990 226    14  23.2  22.3  21.2  20.3  19.7  19.1  18.7  18.4   0.0   0.0
 1990 227    15  22.3  21.5  20.6  19.8  19.4  18.9  18.5  18.3   0.0   0.0
 1990 228    16  20.8  20.2  19.5  19.1  18.8  18.5  18.3  18.2   0.0   0.0
 1990 229    17  19.6  19.1  18.7  18.4  18.3  18.2  18.1  18.0   0.0   0.0
 1990 230    18  18.3  18.0  17.8  17.7  17.8  17.8  17.9  17.8   0.0   0.0
 1990 231    19  17.5  17.4  17.3  17.3  17.4  17.6  17.7  17.8   0.0   0.0
 1990 232    20  18.4  18.1  17.8  17.7  17.7  17.8  17.9  17.8   0.0   0.0
 1990 233    21  18.7  18.3  18.0  17.9  17.8  17.9  17.9  17.9   0.0   0.0
 1990 234    22  18.2  17.9  17.7  17.6  17.6  17.7  17.8  17.8   0.0   0.0
 1990 235    23  17.4  17.2  17.1  17.2  17.3  17.5  17.7  17.7   0.0   0.0
 1990 236    24  16.6  16.5  16.6  16.8  17.0  17.3  17.5  17.6   0.0   0.0
 1990 237    25  16.9  16.8  16.8  16.9  17.1  17.4  17.6  17.6   0.0   0.0
 1990 238    26  17.8  17.6  17.4  17.3  17.4  17.6  17.7  17.7   0.0   0.0
 1990 239    27  17.5  17.3  17.1  17.2  17.3  17.5  17.6  17.7   0.0   0.0
 1990 240    28  16.6  16.5  16.5  16.7  16.9  17.2  17.5  17.6   0.0   0.0
 1990 241    29  16.0  16.0  16.1  16.4  16.7  17.1  17.4  17.5   0.0   0.0
 1990 242    30  15.5  15.6  15.7  16.1  16.5  16.9  17.3  17.4   0.0   0.0
 1990 243    31  13.1  13.5  14.1  14.8  15.5  16.3  16.9  17.1   0.0   0.0
 1990 244    32  11.9  12.4  13.2  14.2  15.0  16.0  16.7  17.0   0.0   0.0
 1990 245    33  11.9  12.4  13.2  14.2  15.0  16.0  16.7  17.0   0.0   0.0
 1990 246    34  12.4  12.8  13.6  14.4  15.2  16.1  16.7  17.0   0.0   0.0
 1990 247    35  11.5  12.0  12.9  13.9  14.8  15.8  16.6  16.9   0.0   0.0
 1990 248    36  12.6  13.0  13.7  14.5  15.2  16.1  16.7  17.0   0.0   0.0
 1990 249    37  13.9  14.1  14.6  15.2  15.7  16.4  16.9  17.2   0.0   0.0
 1990 250    38  15.0  15.0  15.3  15.7  16.1  16.7  17.1  17.3   0.0   0.0
 1990 251    39  14.7  14.8  15.1  15.5  16.0  16.6  17.0  17.2   0.0   0.0
 1990 252    40  16.1  16.0  16.0  16.2  16.5  16.9  17.2  17.4   0.0   0.0
 1990 253    41  17.6  17.3  17.0  17.0  17.1  17.3  17.5  17.5   0.0   0.0
 1990 254    42  18.6  18.2  17.7  17.5  17.5  17.5  17.6  17.7   0.0   0.0
 1990 255    43  18.3  17.9  17.5  17.3  17.3  17.4  17.5  17.6   0.0   0.0
 1990 256    44  17.8  17.5  17.2  17.1  17.1  17.3  17.5  17.5   0.0   0.0
 1990 257    45  16.2  16.1  16.1  16.2  16.5  16.9  17.2  17.3   0.0   0.0
 1990 258    46  14.7  14.8  15.0  15.4  15.9  16.5  16.9  17.2   0.0   0.0
 1990 259    47  14.5  14.6  14.9  15.3  15.8  16.4  16.9  17.1   0.0   0.0
 1990 260    48  15.1  15.1  15.3  15.6  16.0  16.5  17.0  17.2   0.0   0.0
 1990 261    49  16.1  16.0  16.0  16.1  16.4  16.8  17.1  17.3   0.0   0.0
 1990 262    50  16.8  16.6  16.5  16.5  16.6  16.9  17.2  17.4   0.0   0.0
 1990 263    51  16.9  16.6  16.5  16.5  16.6  16.9  17.2  17.4   0.0   0.0
 1990 264    52  16.8  16.5  16.4  16.4  16.6  16.9  17.2  17.3   0.0   0.0
 1990 265    53  17.0  16.7  16.5  16.5  16.6  16.9  17.2  17.4   0.0   0.0
 1990 266    54  16.4  16.2  16.1  16.2  16.4  16.8  17.1  17.3   0.0   0.0
 1990 267    55  15.9  15.8  15.8  15.9  16.2  16.6  17.0  17.2   0.0   0.0
 1990 268    56  15.6  15.5  15.6  15.8  16.1  16.5  17.0  17.2   0.0   0.0
 1990 269    57  15.6  15.5  15.5  15.7  16.0  16.5  16.9  17.2   0.0   0.0
 1990 270    58  16.4  16.2  16.1  16.2  16.4  16.7  17.1  17.2   0.0   0.0
 1990 271    59  17.7  17.3  16.9  16.8  16.8  17.0  17.2  17.4   0.0   0.0
 1990 272    60  18.9  18.4  17.8  17.4  17.3  17.3  17.4  17.5   0.0   0.0
 1990 273    61  20.5  19.7  18.8  18.2  17.9  17.7  17.7  17.7   0.0   0.0
 1990 274    62  21.9  20.9  19.8  18.9  18.4  18.0  17.9  17.8   0.0   0.0
 1990 275    63  22.1  21.1  20.0  19.0  18.5  18.1  17.9  17.8   0.0   0.0
 1990 276    64  23.2  22.1  20.7  19.6  18.9  18.4  18.1  18.0   0.0   0.0
 1990 277    65  24.7  23.3  21.7  20.3  19.4  18.7  18.3  18.1   0.0   0.0
 1990 278    66  24.0  22.8  21.2  20.0  19.2  18.5  18.2  18.0   0.0   0.0
 1990 279    67  23.0  21.9  20.6  19.5  18.8  18.3  18.0  17.9   0.0   0.0
 1990 280    68  22.5  21.5  20.2  19.2  18.6  18.1  17.9  17.8   0.0   0.0
 1990 281    69  21.4  20.5  19.4  18.6  18.1  17.8  17.7  17.7   0.0   0.0
 1990 282    70  20.0  19.3  18.5  17.9  17.6  17.5  17.5  17.5   0.0   0.0
 1990 283    71  20.3  19.6  18.7  18.1  17.7  17.5  17.5  17.6   0.0   0.0
 1990 284    72  20.2  19.4  18.6  18.0  17.6  17.5  17.5  17.5   0.0   0.0
 1990 285    73  19.9  19.2  18.4  17.8  17.5  17.4  17.4  17.5   0.0   0.0
 1990 286    74  20.1  19.4  18.6  17.9  17.6  17.4  17.5  17.5   0.0   0.0
 1990 287    75  20.3  19.5  18.6  18.0  17.6  17.5  17.5  17.5   0.0   0.0
 1990 288    76  20.0  19.3  18.4  17.8  17.5  17.4  17.4  17.5   0.0   0.0
 1990 289    77  19.8  19.2  18.3  17.8  17.5  17.3  17.4  17.4   0.0   0.0
 1990 290    78  19.9  19.2  18.4  17.8  17.5  17.3  17.4  17.4   0.0   0.0
 1990 291    79  20.4  19.7  18.7  18.0  17.7  17.5  17.5  17.5   0.0   0.0
 1990 292    80  20.6  19.8  18.9  18.1  17.7  17.5  17.5  17.5   0.0   0.0
 1990 293    81  21.2  20.3  19.2  18.4  17.9  17.6  17.6  17.6   0.0   0.0
 1990 294    82  21.8  20.9  19.7  18.7  18.2  17.8  17.6  17.6   0.0   0.0
 1990 295    83  22.7  21.7  20.3  19.2  18.5  18.0  17.8  17.7   0.0   0.0
 1990 296    84  22.9  21.8  20.4  19.3  18.6  18.0  17.8  17.7   0.0   0.0
 1990 297    85  22.7  21.6  20.3  19.2  18.5  18.0  17.8  17.7   0.0   0.0
 1990 298    86  22.7  21.6  20.2  19.1  18.5  18.0  17.7  17.7   0.0   0.0
 1990 299    87  23.2  22.1  20.6  19.4  18.7  18.1  17.8  17.7   0.0   0.0
 1990 300    88  23.8  22.6  21.0  19.7  18.9  18.2  17.9  17.8   0.0   0.0
 1990 301    89  23.5  22.3  20.8  19.5  18.8  18.1  17.8  17.8   0.0   0.0
 1990 302    90  24.3  23.0  21.4  20.0  19.1  18.3  18.0  17.8   0.0   0.0
 1990 303    91  25.4  23.9  22.1  20.5  19.5  18.6  18.1  18.0   0.0   0.0
 1990 304    92  24.8  23.5  21.7  20.3  19.3  18.5  18.0  17.9   0.0   0.0
 1990 305    93  24.2  22.9  21.3  19.9  19.0  18.3  17.9  17.8   0.0   0.0
 1990 306    94  24.7  23.3  21.6  20.2  19.2  18.4  18.0  17.8   0.0   0.0
 1990 307    95  24.8  23.5  21.7  20.2  19.3  18.4  18.0  17.9   0.0   0.0
 1990 308    96  23.6  22.4  20.9  19.6  18.8  18.1  17.8  17.7   0.0   0.0
 1990 309    97  22.7  21.7  20.3  19.2  18.5  17.9  17.7  17.6   0.0   0.0
 1990 310    98  22.0  21.0  19.8  18.8  18.2  17.7  17.5  17.5   0.0   0.0
 1990 311    99  21.4  20.5  19.4  18.5  17.9  17.5  17.4  17.4   0.0   0.0
 1990 312   100  19.6  19.0  18.2  17.6  17.2  17.1  17.1  17.2   0.0   0.0
 1990 313   101  19.5  18.9  18.1  17.5  17.2  17.0  17.1  17.2   0.0   0.0
 1990 314   102  20.4  19.6  18.7  18.0  17.5  17.3  17.2  17.3   0.0   0.0
 1990 315   103  21.6  20.7  19.5  18.6  18.0  17.6  17.4  17.4   0.0   0.0
 1990 316   104  21.7  20.8  19.6  18.6  18.0  17.6  17.4  17.4   0.0   0.0
 1990 317   105  24.7  23.4  21.7  20.2  19.2  18.3  17.9  17.8   0.0   0.0
 1990 318   106  26.7  25.1  23.0  21.2  19.9  18.8  18.2  18.0   0.0   0.0
 1990 319   107  26.5  25.0  22.9  21.1  19.9  18.8  18.2  18.0   0.0   0.0
 1990 320   108  25.6  24.2  22.3  20.6  19.5  18.5  18.0  17.9   0.0   0.0
 1990 321   109  26.0  24.6  22.6  20.9  19.7  18.7  18.1  17.9   0.0   0.0
 1990 322   110  25.2  23.9  22.0  20.5  19.4  18.5  18.0  17.8   0.0   0.0
 1990 323   111  25.5  24.1  22.2  20.6  19.5  18.5  18.0  17.8   0.0   0.0
 1990 324   112  26.3  24.8  22.8  21.0  19.8  18.7  18.1  17.9   0.0   0.0
 1990 325   113  27.8  26.1  23.8  21.8  20.4  19.1  18.4  18.1   0.0   0.0
 1990 326   114  28.2  26.5  24.1  22.0  20.5  19.2  18.4  18.1   0.0   0.0
 1990 327   115  28.0  26.3  24.0  21.9  20.5  19.1  18.4  18.1   0.0   0.0
 1990 328   116  27.2  25.6  23.4  21.5  20.1  18.9  18.2  18.0   0.0   0.0
 1990 329   117  27.3  25.7  23.5  21.5  20.2  18.9  18.3  18.0   0.0   0.0
 1990 330   118  26.6  25.1  23.0  21.2  19.9  18.8  18.1  17.9   0.0   0.0
 1990 331   119  25.4  24.0  22.2  20.6  19.5  18.5  18.0  17.8   0.0   0.0
 1990 332   120  24.7  23.4  21.7  20.2  19.2  18.3  17.8  17.7   0.0   0.0
 1990 333   121  24.4  23.2  21.5  20.1  19.1  18.2  17.8  17.6   0.0   0.0
 1990 334   122  23.8  22.7  21.1  19.8  18.9  18.1  17.7  17.6   0.0   0.0
 1990 335   123  24.0  22.9  21.3  19.9  18.9  18.1  17.7  17.6   0.0   0.0
 1990 336   124  24.1  22.9  21.3  19.9  19.0  18.1  17.7  17.6   0.0   0.0
 1990 337   125  23.8  22.7  21.1  19.8  18.9  18.1  17.7  17.6   0.0   0.0
 1990 338   126  23.9  22.7  21.2  19.8  18.9  18.1  17.7  17.6   0.0   0.0
 1990 339   127  24.9  23.6  21.9  20.3  19.3  18.3  17.8  17.7   0.0   0.0
 1990 340   128  24.8  23.5  21.8  20.3  19.2  18.3  17.8  17.7   0.0   0.0
 1990 341   129  25.4  24.1  22.2  20.6  19.5  18.5  17.9  17.7   0.0   0.0
 1990 342   130  25.8  24.5  22.6  20.9  19.7  18.6  18.0  17.8   0.0   0.0
 1990 343   131  24.3  23.1  21.5  20.1  19.1  18.2  17.8  17.6   0.0   0.0
 1990 344   132  22.1  21.2  20.0  19.0  18.3  17.7  17.4  17.4   0.0   0.0
 1990 345   133  21.9  21.1  19.9  18.9  18.2  17.6  17.4  17.3   0.0   0.0
 1990 346   134  21.1  20.3  19.3  18.5  17.9  17.4  17.2  17.2   0.0   0.0
 1990 347   135  20.7  20.0  19.1  18.3  17.7  17.3  17.2  17.2   0.0   0.0
 1990 348   136  21.2  20.4  19.4  18.5  17.9  17.4  17.3  17.2   0.0   0.0
 1990 349   137  22.7  21.8  20.5  19.3  18.5  17.8  17.5  17.4   0.0   0.0
 1990 350   138  23.7  22.7  21.2  19.9  18.9  18.1  17.7  17.5   0.0   0.0
 1990 351   139  25.2  24.0  22.2  20.6  19.5  18.5  17.9  17.7   0.0   0.0
 1990 352   140  25.8  24.4  22.6  20.9  19.7  18.6  18.0  17.8   0.0   0.0
 1990 353   141  26.5  25.1  23.1  21.4  20.1  18.8  18.1  17.9   0.0   0.0
 1990 354   142  26.5  25.1  23.2  21.4  20.1  18.8  18.1  17.9   0.0   0.0
 1990 355   143  26.4  25.0  23.1  21.3  20.0  18.8  18.1  17.8   0.0   0.0
 1990 356   144  25.8  24.5  22.6  21.0  19.8  18.6  18.0  17.8   0.0   0.0
 1990 357   145  26.0  24.7  22.9  21.2  19.9  18.7  18.1  17.8   0.0   0.0
 1990 358   146  25.6  24.3  22.6  20.9  19.8  18.6  18.0  17.8   0.0   0.0
 1990 359   147  25.3  24.1  22.4  20.8  19.7  18.6  17.9  17.7   0.0   0.0
 1990 360   148  25.6  24.4  22.6  21.0  19.8  18.6  18.0  17.8   0.0   0.0
 1990 361   149  26.9  25.5  23.5  21.6  20.3  19.0  18.2  17.9   0.0   0.0
 1990 362   150  25.9  24.6  22.8  21.1  19.9  18.7  18.0  17.8   0.0   0.0
 1990 363   151  25.8  24.6  22.8  21.1  19.9  18.7  18.0  17.8   0.0   0.0
 1990 364   152  26.1  24.8  23.0  21.3  20.0  18.8  18.1  17.8   0.0   0.0
 1990 365   153  25.8  24.6  22.8  21.1  19.9  18.7  18.0  17.8   0.0   0.0
 1991 001   154  25.7  24.4  22.6  21.0  19.8  18.6  18.0  17.7   0.0   0.0
 1991 002   155  27.0  25.5  23.5  21.7  20.3  19.0  18.2  17.9   0.0   0.0
 1991 003   156  28.1  26.5  24.3  22.2  20.7  19.2  18.4  18.0   0.0   0.0
 1991 004   157  28.4  26.8  24.5  22.4  20.9  19.3  18.4  18.1   0.0   0.0
 1991 005   158  28.2  26.6  24.4  22.3  20.8  19.3  18.4  18.0   0.0   0.0
 1991 006   159  28.1  26.5  24.3  22.3  20.8  19.3  18.4  18.0   0.0   0.0
 1991 007   160  28.7  27.0  24.7  22.6  21.0  19.4  18.5  18.1   0.0   0.0
 1991 008   161  29.7  27.9  25.4  23.1  21.4  19.7  18.6  18.2   0.0   0.0
 1991 009   162  29.0  27.3  24.9  22.8  21.1  19.5  18.5  18.1   0.0   0.0
 1991 010   163  29.3  27.6  25.2  22.9  21.3  19.6  18.6  18.2   0.0   0.0
 1991 011   164  28.8  27.2  24.9  22.7  21.1  19.5  18.5  18.1   0.0   0.0
 1991 012   165  27.8  26.3  24.2  22.2  20.7  19.2  18.3  18.0   0.0   0.0
 1991 013   166  26.2  24.9  23.1  21.4  20.1  18.8  18.1  17.8   0.0   0.0
 1991 014   167  26.7  25.4  23.5  21.7  20.3  19.0  18.2  17.9   0.0   0.0

*DSSAT Cropping System Model Ver. 4.0.2.000               Aug 03, 2016; 15:38:59

*RUN   5        : UYMZ                    
 MODEL          : MZCER040 - Maize           
 EXPERIMENT     : UYMZ0134 MZ    late to create DSS                             
 TREATMENT  1   : UYMZ                    

@YEAR DOY   DAS  TS1D  TS2D  TS3D  TS4D  TS5D  TS6D  TS7D  TS8D  TS9D  TS10
 1991 212     0  15.7  15.9  16.3  16.7  17.1  17.5  17.7  17.7   0.0   0.0
 1991 213     1  13.8  14.2  15.0  15.7  16.3  17.0  17.3  17.5   0.0   0.0
 1991 214     2  12.1  12.8  13.8  14.8  15.7  16.5  17.1  17.3   0.0   0.0
 1991 215     3  10.8  11.6  12.9  14.1  15.1  16.2  16.8  17.1   0.0   0.0
 1991 216     4   9.3  10.3  11.8  13.4  14.5  15.8  16.6  16.9   0.0   0.0
 1991 217     5   9.2  10.2  11.7  13.2  14.4  15.7  16.5  16.9   0.0   0.0
 1991 218     6   9.4  10.4  11.9  13.3  14.5  15.8  16.6  16.9   0.0   0.0
 1991 219     7  10.2  11.1  12.4  13.7  14.8  15.9  16.7  17.0   0.0   0.0
 1991 220     8  11.1  11.9  13.0  14.2  15.2  16.2  16.8  17.1   0.0   0.0
 1991 221     9  12.2  12.8  13.7  14.7  15.5  16.4  17.0  17.2   0.0   0.0
 1991 222    10  11.8  12.5  13.5  14.5  15.4  16.3  16.9  17.2   0.0   0.0
 1991 223    11  12.5  13.0  13.9  14.9  15.6  16.5  17.0  17.2   0.0   0.0
 1991 224    12  12.7  13.3  14.1  15.0  15.7  16.5  17.0  17.3   0.0   0.0
 1991 225    13  13.0  13.5  14.3  15.1  15.8  16.6  17.1  17.3   0.0   0.0
 1991 226    14  14.6  14.9  15.3  15.9  16.4  17.0  17.3  17.5   0.0   0.0
 1991 227    15  16.9  16.9  16.9  17.1  17.3  17.5  17.7  17.7   0.0   0.0
 1991 228    16  19.5  19.1  18.6  18.4  18.3  18.2  18.1  18.0   0.0   0.0
 1991 229    17  21.4  20.7  20.0  19.4  19.0  18.6  18.4  18.2   0.0   0.0
 1991 230    18  22.5  21.7  20.7  19.9  19.4  18.9  18.5  18.3   0.0   0.0
 1991 231    19  22.5  21.7  20.7  19.9  19.4  18.9  18.5  18.3   0.0   0.0
 1991 232    20  22.4  21.6  20.6  19.8  19.3  18.9  18.5  18.3   0.0   0.0
 1991 233    21  22.2  21.4  20.5  19.7  19.2  18.8  18.5  18.3   0.0   0.0
 1991 234    22  22.5  21.6  20.6  19.8  19.3  18.8  18.5  18.3   0.0   0.0
 1991 235    23  22.4  21.5  20.5  19.7  19.2  18.8  18.5  18.3   0.0   0.0
 1991 236    24  21.7  20.9  20.0  19.4  19.0  18.6  18.3  18.2   0.0   0.0
 1991 237    25  21.6  20.8  20.0  19.3  18.9  18.5  18.3  18.2   0.0   0.0
 1991 238    26  20.1  19.6  19.0  18.5  18.3  18.2  18.1  18.0   0.0   0.0
 1991 239    27  18.3  18.0  17.7  17.6  17.6  17.7  17.8  17.8   0.0   0.0
 1991 240    28  17.9  17.7  17.4  17.4  17.4  17.6  17.7  17.7   0.0   0.0
 1991 241    29  18.2  17.9  17.6  17.5  17.5  17.6  17.7  17.7   0.0   0.0
 1991 242    30  18.2  17.9  17.6  17.5  17.5  17.6  17.7  17.7   0.0   0.0
 1991 243    31  18.1  17.8  17.5  17.4  17.5  17.6  17.7  17.7   0.0   0.0
 1991 244    32  18.1  17.8  17.5  17.4  17.4  17.6  17.7  17.7   0.0   0.0
 1991 245    33  17.5  17.3  17.1  17.1  17.2  17.4  17.6  17.6   0.0   0.0
 1991 246    34  17.4  17.2  17.0  17.0  17.1  17.3  17.5  17.6   0.0   0.0
 1991 247    35  17.8  17.5  17.2  17.2  17.2  17.4  17.6  17.6   0.0   0.0
 1991 248    36  19.6  19.1  18.5  18.1  17.9  17.9  17.9  17.8   0.0   0.0
 1991 249    37  20.9  20.2  19.4  18.8  18.4  18.2  18.0  18.0   0.0   0.0
 1991 250    38  21.0  20.3  19.4  18.8  18.5  18.2  18.1  18.0   0.0   0.0
 1991 251    39  20.0  19.4  18.8  18.3  18.1  17.9  17.9  17.9   0.0   0.0
 1991 252    40  18.9  18.5  18.0  17.7  17.6  17.6  17.7  17.7   0.0   0.0
 1991 253    41  17.9  17.6  17.3  17.2  17.2  17.4  17.5  17.6   0.0   0.0
 1991 254    42  18.3  17.9  17.6  17.4  17.3  17.5  17.6  17.6   0.0   0.0
 1991 255    43  20.2  19.5  18.8  18.3  18.0  17.9  17.9  17.8   0.0   0.0
 1991 256    44  22.6  21.6  20.4  19.5  19.0  18.5  18.2  18.1   0.0   0.0
 1991 257    45  22.6  21.7  20.5  19.5  19.0  18.5  18.2  18.1   0.0   0.0
 1991 258    46  21.0  20.3  19.4  18.7  18.3  18.1  18.0  17.9   0.0   0.0
 1991 259    47  20.5  19.8  19.0  18.4  18.1  17.9  17.9  17.8   0.0   0.0
 1991 260    48  19.4  18.8  18.2  17.8  17.7  17.6  17.7  17.7   0.0   0.0
 1991 261    49  17.6  17.3  17.0  16.9  17.0  17.2  17.4  17.5   0.0   0.0
 1991 262    50  17.4  17.1  16.8  16.8  16.8  17.1  17.3  17.4   0.0   0.0
 1991 263    51  18.9  18.4  17.8  17.5  17.4  17.4  17.5  17.6   0.0   0.0
 1991 264    52  19.5  19.0  18.3  17.8  17.7  17.6  17.6  17.7   0.0   0.0
 1991 265    53  19.5  18.9  18.2  17.8  17.6  17.6  17.6  17.6   0.0   0.0
 1991 266    54  18.9  18.4  17.8  17.5  17.4  17.4  17.5  17.6   0.0   0.0
 1991 267    55  19.0  18.5  17.9  17.5  17.4  17.4  17.5  17.6   0.0   0.0
 1991 268    56  19.0  18.5  17.9  17.5  17.4  17.4  17.5  17.6   0.0   0.0
 1991 269    57  18.6  18.1  17.6  17.3  17.2  17.3  17.4  17.5   0.0   0.0
 1991 270    58  19.7  19.1  18.4  17.9  17.6  17.6  17.6  17.6   0.0   0.0
 1991 271    59  19.8  19.2  18.4  17.9  17.7  17.6  17.6  17.6   0.0   0.0
 1991 272    60  19.7  19.1  18.3  17.8  17.6  17.5  17.6  17.6   0.0   0.0
 1991 273    61  19.6  19.0  18.2  17.8  17.5  17.5  17.5  17.6   0.0   0.0
 1991 274    62  18.8  18.2  17.7  17.3  17.2  17.3  17.4  17.5   0.0   0.0
 1991 275    63  17.2  16.9  16.6  16.5  16.6  16.8  17.1  17.3   0.0   0.0
 1991 276    64  17.5  17.2  16.8  16.7  16.7  16.9  17.2  17.3   0.0   0.0
 1991 277    65  18.1  17.6  17.2  16.9  16.9  17.0  17.2  17.4   0.0   0.0
 1991 278    66  17.0  16.7  16.5  16.4  16.5  16.8  17.1  17.2   0.0   0.0
 1991 279    67  16.0  15.8  15.7  15.8  16.1  16.5  16.9  17.1   0.0   0.0
 1991 280    68  15.0  15.0  15.1  15.3  15.7  16.2  16.7  17.0   0.0   0.0
 1991 281    69  14.5  14.5  14.7  15.1  15.5  16.1  16.6  16.9   0.0   0.0
 1991 282    70  14.4  14.4  14.6  15.0  15.4  16.0  16.6  16.9   0.0   0.0
 1991 283    71  16.0  15.8  15.7  15.8  16.0  16.4  16.8  17.0   0.0   0.0
 1991 284    72  18.2  17.8  17.3  17.0  16.9  17.0  17.2  17.3   0.0   0.0
 1991 285    73  21.1  20.3  19.2  18.5  18.0  17.7  17.6  17.6   0.0   0.0
 1991 286    74  24.2  22.9  21.3  20.0  19.2  18.5  18.1  18.0   0.0   0.0
 1991 287    75  26.2  24.7  22.7  21.0  19.9  19.0  18.4  18.2   0.0   0.0
 1991 288    76  26.4  24.9  22.8  21.1  20.0  19.0  18.4  18.2   0.0   0.0
 1991 289    77  25.1  23.7  22.0  20.5  19.5  18.7  18.2  18.1   0.0   0.0
 1991 290    78  22.7  21.7  20.3  19.3  18.6  18.1  17.8  17.8   0.0   0.0
 1991 291    79  20.6  19.8  18.9  18.1  17.7  17.5  17.5  17.5   0.0   0.0
 1991 292    80  19.4  18.8  18.0  17.5  17.2  17.2  17.3  17.4   0.0   0.0
 1991 293    81  19.7  19.0  18.2  17.6  17.4  17.2  17.3  17.4   0.0   0.0
 1991 294    82  21.8  20.9  19.7  18.7  18.2  17.8  17.6  17.6   0.0   0.0
 1991 295    83  24.4  23.1  21.5  20.1  19.2  18.4  18.1  17.9   0.0   0.0
 1991 296    84  24.1  22.9  21.2  19.9  19.0  18.3  18.0  17.9   0.0   0.0
 1991 297    85  22.6  21.6  20.2  19.1  18.5  18.0  17.7  17.7   0.0   0.0
 1991 298    86  21.7  20.8  19.6  18.7  18.1  17.7  17.6  17.6   0.0   0.0
 1991 299    87  20.9  20.1  19.0  18.2  17.8  17.5  17.4  17.5   0.0   0.0
 1991 300    88  19.6  18.9  18.1  17.6  17.3  17.2  17.2  17.3   0.0   0.0
 1991 301    89  19.7  19.0  18.2  17.6  17.3  17.2  17.2  17.3   0.0   0.0
 1991 302    90  19.8  19.2  18.3  17.7  17.4  17.2  17.3  17.3   0.0   0.0
 1991 303    91  19.4  18.8  18.0  17.5  17.2  17.1  17.2  17.3   0.0   0.0
 1991 304    92  18.5  18.0  17.4  17.0  16.8  16.8  17.0  17.2   0.0   0.0
 1991 305    93  18.3  17.9  17.3  16.9  16.8  16.8  17.0  17.1   0.0   0.0
 1991 306    94  18.8  18.3  17.6  17.2  16.9  16.9  17.1  17.2   0.0   0.0
 1991 307    95  19.8  19.1  18.3  17.6  17.3  17.2  17.2  17.3   0.0   0.0
 1991 308    96  21.2  20.3  19.2  18.3  17.8  17.5  17.4  17.4   0.0   0.0
 1991 309    97  22.2  21.2  19.9  18.9  18.2  17.7  17.6  17.5   0.0   0.0
 1991 310    98  22.6  21.5  20.2  19.1  18.4  17.8  17.6  17.6   0.0   0.0
 1991 311    99  22.7  21.6  20.2  19.1  18.4  17.8  17.6  17.6   0.0   0.0
 1991 312   100  22.4  21.4  20.1  19.0  18.3  17.8  17.6  17.5   0.0   0.0
 1991 313   101  22.2  21.2  19.9  18.9  18.2  17.7  17.5  17.5   0.0   0.0
 1991 314   102  22.0  21.0  19.8  18.8  18.1  17.7  17.5  17.5   0.0   0.0
 1991 315   103  21.2  20.3  19.2  18.3  17.8  17.4  17.4  17.4   0.0   0.0
 1991 316   104  20.5  19.7  18.8  18.0  17.5  17.3  17.2  17.3   0.0   0.0
 1991 317   105  20.3  19.5  18.6  17.9  17.5  17.2  17.2  17.3   0.0   0.0
 1991 318   106  19.3  18.7  18.0  17.4  17.1  17.0  17.1  17.2   0.0   0.0
 1991 319   107  18.7  18.2  17.5  17.1  16.9  16.8  17.0  17.1   0.0   0.0
 1991 320   108  19.4  18.8  18.0  17.4  17.1  17.0  17.0  17.1   0.0   0.0
 1991 321   109  20.0  19.3  18.4  17.8  17.4  17.1  17.1  17.2   0.0   0.0
 1991 322   110  21.2  20.4  19.3  18.4  17.8  17.4  17.3  17.3   0.0   0.0
 1991 323   111  21.9  20.9  19.7  18.7  18.1  17.6  17.4  17.4   0.0   0.0
 1991 324   112  22.4  21.4  20.1  19.0  18.3  17.7  17.5  17.5   0.0   0.0
 1991 325   113  23.6  22.4  20.9  19.6  18.7  18.0  17.7  17.6   0.0   0.0
 1991 326   114  25.5  24.1  22.2  20.6  19.5  18.5  18.0  17.8   0.0   0.0
 1991 327   115  27.1  25.5  23.3  21.4  20.1  18.9  18.2  18.0   0.0   0.0
 1991 328   116  26.7  25.1  23.0  21.2  19.9  18.8  18.1  17.9   0.0   0.0
 1991 329   117  25.6  24.2  22.3  20.7  19.5  18.5  18.0  17.8   0.0   0.0
 1991 330   118  24.0  22.8  21.2  19.9  18.9  18.1  17.7  17.6   0.0   0.0
 1991 331   119  22.1  21.2  20.0  18.9  18.2  17.7  17.4  17.4   0.0   0.0
 1991 332   120  20.9  20.1  19.1  18.3  17.7  17.3  17.2  17.2   0.0   0.0
 1991 333   121  21.9  21.0  19.9  18.8  18.2  17.6  17.4  17.4   0.0   0.0
 1991 334   122  23.8  22.7  21.1  19.8  18.9  18.1  17.7  17.6   0.0   0.0
 1991 335   123  25.4  24.0  22.2  20.6  19.5  18.5  17.9  17.8   0.0   0.0
 1991 336   124  26.7  25.2  23.1  21.3  20.0  18.8  18.2  17.9   0.0   0.0
 1991 337   125  26.5  25.0  23.0  21.2  19.9  18.8  18.1  17.9   0.0   0.0
 1991 338   126  27.6  26.0  23.7  21.8  20.4  19.0  18.3  18.0   0.0   0.0
 1991 339   127  27.3  25.7  23.6  21.6  20.2  19.0  18.2  18.0   0.0   0.0
 1991 340   128  28.1  26.4  24.1  22.0  20.6  19.2  18.4  18.1   0.0   0.0
 1991 341   129  27.6  26.0  23.8  21.8  20.4  19.0  18.3  18.0   0.0   0.0
 1991 342   130  28.2  26.5  24.2  22.1  20.6  19.2  18.4  18.1   0.0   0.0
 1991 343   131  26.6  25.1  23.1  21.3  20.0  18.8  18.1  17.9   0.0   0.0
 1991 344   132  26.6  25.1  23.1  21.3  20.0  18.8  18.1  17.9   0.0   0.0
 1991 345   133  25.7  24.4  22.5  20.9  19.7  18.6  18.0  17.8   0.0   0.0
 1991 346   134  24.9  23.6  22.0  20.4  19.4  18.4  17.9  17.7   0.0   0.0
 1991 347   135  24.6  23.4  21.8  20.3  19.3  18.3  17.8  17.6   0.0   0.0
 1991 348   136  24.4  23.2  21.6  20.2  19.2  18.2  17.8  17.6   0.0   0.0
 1991 349   137  23.5  22.5  21.1  19.8  18.9  18.1  17.6  17.5   0.0   0.0
 1991 350   138  23.4  22.4  21.0  19.7  18.8  18.0  17.6  17.5   0.0   0.0
 1991 351   139  24.3  23.2  21.6  20.2  19.2  18.3  17.8  17.6   0.0   0.0
 1991 352   140  24.8  23.6  21.9  20.4  19.4  18.4  17.8  17.7   0.0   0.0
 1991 353   141  26.4  25.0  23.1  21.3  20.0  18.8  18.1  17.8   0.0   0.0
 1991 354   142  28.0  26.5  24.2  22.2  20.7  19.2  18.4  18.0   0.0   0.0
 1991 355   143  29.2  27.4  25.0  22.8  21.1  19.5  18.6  18.2   0.0   0.0
 1991 356   144  29.0  27.3  24.9  22.7  21.1  19.5  18.5  18.1   0.0   0.0
 1991 357   145  28.8  27.1  24.7  22.6  21.0  19.4  18.5  18.1   0.0   0.0
 1991 358   146  28.8  27.2  24.8  22.7  21.1  19.5  18.5  18.1   0.0   0.0
 1991 359   147  27.8  26.3  24.1  22.1  20.7  19.2  18.4  18.0   0.0   0.0
 1991 360   148  26.1  24.8  22.9  21.2  20.0  18.8  18.1  17.8   0.0   0.0
 1991 361   149  25.8  24.5  22.7  21.1  19.9  18.7  18.0  17.8   0.0   0.0
 1991 362   150  25.3  24.1  22.4  20.8  19.7  18.6  17.9  17.7   0.0   0.0
 1991 363   151  25.0  23.8  22.2  20.7  19.6  18.5  17.9  17.7   0.0   0.0
 1991 364   152  25.8  24.5  22.7  21.1  19.9  18.7  18.0  17.8   0.0   0.0
 1991 365   153  27.5  26.0  23.9  22.0  20.6  19.1  18.3  18.0   0.0   0.0
 1992 001   154  27.9  26.4  24.2  22.2  20.7  19.2  18.4  18.0   0.0   0.0
 1992 002   155  28.2  26.6  24.4  22.3  20.8  19.3  18.4  18.0   0.0   0.0
 1992 003   156  27.1  25.7  23.7  21.8  20.4  19.0  18.2  17.9   0.0   0.0
 1992 004   157  26.5  25.2  23.3  21.5  20.2  18.9  18.2  17.9   0.0   0.0
 1992 005   158  26.0  24.7  22.9  21.2  20.0  18.8  18.1  17.8   0.0   0.0
 1992 006   159  25.8  24.6  22.8  21.2  19.9  18.7  18.0  17.8   0.0   0.0
 1992 007   160  26.1  24.8  23.0  21.3  20.0  18.8  18.1  17.8   0.0   0.0
 1992 008   161  27.4  26.0  23.9  22.0  20.5  19.1  18.3  18.0   0.0   0.0
 1992 009   162  28.2  26.6  24.4  22.4  20.8  19.3  18.4  18.0   0.0   0.0
 1992 010   163  28.3  26.7  24.5  22.4  20.9  19.4  18.4  18.1   0.0   0.0
 1992 011   164  28.5  26.9  24.6  22.5  21.0  19.4  18.5  18.1   0.0   0.0

*DSSAT Cropping System Model Ver. 4.0.2.000               Aug 03, 2016; 15:38:59

*RUN   6        : UYMZ                    
 MODEL          : MZCER040 - Maize           
 EXPERIMENT     : UYMZ0134 MZ    late to create DSS                             
 TREATMENT  1   : UYMZ                    

@YEAR DOY   DAS  TS1D  TS2D  TS3D  TS4D  TS5D  TS6D  TS7D  TS8D  TS9D  TS10
 1992 212     0  14.4  14.8  15.4  16.0  16.6  17.1  17.4  17.5   0.0   0.0
 1992 213     1  13.1  13.6  14.5  15.4  16.1  16.8  17.2  17.4   0.0   0.0
 1992 214     2  11.6  12.3  13.5  14.6  15.5  16.4  17.0  17.2   0.0   0.0
 1992 215     3  10.6  11.4  12.8  14.1  15.1  16.2  16.8  17.1   0.0   0.0
 1992 216     4   9.8  10.8  12.2  13.6  14.7  15.9  16.7  17.0   0.0   0.0
 1992 217     5   9.5  10.5  11.9  13.4  14.6  15.8  16.6  16.9   0.0   0.0
 1992 218     6  10.4  11.3  12.6  13.9  14.9  16.1  16.8  17.0   0.0   0.0
 1992 219     7  13.2  13.7  14.4  15.3  16.0  16.7  17.2  17.4   0.0   0.0
 1992 220     8  14.7  14.9  15.5  16.0  16.5  17.1  17.4  17.5   0.0   0.0
 1992 221     9  14.4  14.7  15.2  15.9  16.4  17.0  17.4  17.5   0.0   0.0
 1992 222    10  14.4  14.7  15.3  15.9  16.4  17.0  17.3  17.5   0.0   0.0
 1992 223    11  14.4  14.7  15.2  15.9  16.4  17.0  17.3  17.5   0.0   0.0
 1992 224    12  12.8  13.3  14.1  15.0  15.7  16.5  17.1  17.3   0.0   0.0
 1992 225    13  12.1  12.7  13.7  14.7  15.5  16.4  17.0  17.2   0.0   0.0
 1992 226    14  13.2  13.7  14.4  15.2  15.9  16.6  17.1  17.3   0.0   0.0
 1992 227    15  14.3  14.6  15.1  15.7  16.3  16.9  17.3  17.4   0.0   0.0
 1992 228    16  14.8  15.0  15.4  16.0  16.5  17.0  17.3  17.5   0.0   0.0
 1992 229    17  16.0  16.1  16.3  16.6  16.9  17.3  17.5  17.6   0.0   0.0
 1992 230    18  17.2  17.1  17.1  17.2  17.4  17.6  17.7  17.7   0.0   0.0
 1992 231    19  17.9  17.7  17.5  17.5  17.6  17.7  17.8  17.8   0.0   0.0
 1992 232    20  18.2  18.0  17.7  17.7  17.7  17.8  17.8  17.8   0.0   0.0
 1992 233    21  18.4  18.1  17.9  17.8  17.8  17.8  17.9  17.8   0.0   0.0
 1992 234    22  18.7  18.3  18.0  17.8  17.8  17.9  17.9  17.9   0.0   0.0
 1992 235    23  18.3  18.0  17.8  17.7  17.7  17.8  17.8  17.8   0.0   0.0
 1992 236    24  18.2  17.9  17.6  17.6  17.6  17.7  17.8  17.8   0.0   0.0
 1992 237    25  18.4  18.1  17.8  17.7  17.7  17.8  17.8  17.8   0.0   0.0
 1992 238    26  18.9  18.5  18.1  17.9  17.8  17.8  17.9  17.8   0.0   0.0
 1992 239    27  18.4  18.1  17.8  17.6  17.6  17.7  17.8  17.8   0.0   0.0
 1992 240    28  19.1  18.7  18.2  18.0  17.9  17.9  17.9  17.9   0.0   0.0
 1992 241    29  19.1  18.6  18.2  17.9  17.9  17.8  17.9  17.8   0.0   0.0
 1992 242    30  19.6  19.1  18.5  18.2  18.0  18.0  17.9  17.9   0.0   0.0
 1992 243    31  19.6  19.1  18.5  18.2  18.0  18.0  17.9  17.9   0.0   0.0
 1992 244    32  18.6  18.2  17.9  17.7  17.6  17.7  17.8  17.8   0.0   0.0
 1992 245    33  16.7  16.6  16.5  16.7  16.9  17.2  17.4  17.5   0.0   0.0
 1992 246    34  15.8  15.8  15.9  16.2  16.5  17.0  17.3  17.4   0.0   0.0
 1992 247    35  14.6  14.8  15.1  15.6  16.0  16.6  17.1  17.3   0.0   0.0
 1992 248    36  14.2  14.4  14.8  15.3  15.9  16.5  17.0  17.2   0.0   0.0
 1992 249    37  15.3  15.3  15.5  15.9  16.3  16.8  17.2  17.3   0.0   0.0
 1992 250    38  16.3  16.2  16.2  16.4  16.6  17.0  17.3  17.4   0.0   0.0
 1992 251    39  17.5  17.2  17.0  17.0  17.1  17.3  17.5  17.6   0.0   0.0
 1992 252    40  18.0  17.7  17.3  17.2  17.2  17.4  17.5  17.6   0.0   0.0
 1992 253    41  18.3  17.9  17.5  17.3  17.3  17.5  17.6  17.6   0.0   0.0
 1992 254    42  18.4  18.0  17.6  17.4  17.4  17.5  17.6  17.6   0.0   0.0
 1992 255    43  18.8  18.3  17.9  17.6  17.5  17.6  17.6  17.7   0.0   0.0
 1992 256    44  18.7  18.3  17.8  17.5  17.5  17.5  17.6  17.6   0.0   0.0
 1992 257    45  18.1  17.7  17.4  17.2  17.2  17.4  17.5  17.6   0.0   0.0
 1992 258    46  18.0  17.6  17.3  17.1  17.1  17.3  17.5  17.5   0.0   0.0
 1992 259    47  18.0  17.6  17.2  17.1  17.1  17.3  17.5  17.5   0.0   0.0
 1992 260    48  18.1  17.7  17.3  17.2  17.2  17.3  17.5  17.5   0.0   0.0
 1992 261    49  19.3  18.7  18.1  17.7  17.6  17.6  17.6  17.7   0.0   0.0
 1992 262    50  19.5  18.9  18.3  17.9  17.7  17.6  17.7  17.7   0.0   0.0
 1992 263    51  19.5  18.9  18.3  17.8  17.7  17.6  17.6  17.7   0.0   0.0
 1992 264    52  20.2  19.5  18.7  18.2  17.9  17.8  17.7  17.7   0.0   0.0
 1992 265    53  21.5  20.6  19.6  18.8  18.4  18.1  17.9  17.9   0.0   0.0
 1992 266    54  19.3  18.8  18.1  17.7  17.5  17.5  17.6  17.6   0.0   0.0
 1992 267    55  19.3  18.7  18.1  17.7  17.5  17.5  17.6  17.6   0.0   0.0
 1992 268    56  18.3  17.9  17.4  17.2  17.1  17.2  17.4  17.5   0.0   0.0
 1992 269    57  16.2  16.0  16.0  16.1  16.3  16.7  17.0  17.2   0.0   0.0
 1992 270    58  13.4  13.6  14.0  14.6  15.2  15.9  16.6  16.9   0.0   0.0
 1992 271    59  14.3  14.4  14.6  15.1  15.5  16.2  16.7  17.0   0.0   0.0
 1992 272    60  15.0  15.0  15.1  15.4  15.8  16.3  16.8  17.1   0.0   0.0
 1992 273    61  16.6  16.4  16.2  16.2  16.4  16.7  17.1  17.2   0.0   0.0
 1992 274    62  19.1  18.5  17.9  17.5  17.3  17.3  17.4  17.5   0.0   0.0
 1992 275    63  21.1  20.3  19.3  18.5  18.1  17.8  17.8  17.7   0.0   0.0
 1992 276    64  21.6  20.7  19.6  18.7  18.3  17.9  17.8  17.8   0.0   0.0
 1992 277    65  21.5  20.6  19.5  18.7  18.2  17.9  17.8  17.7   0.0   0.0
 1992 278    66  21.8  20.9  19.7  18.8  18.3  18.0  17.8  17.8   0.0   0.0
 1992 279    67  20.4  19.6  18.7  18.1  17.8  17.6  17.6  17.6   0.0   0.0
 1992 280    68  18.9  18.3  17.7  17.3  17.2  17.2  17.3  17.4   0.0   0.0
 1992 281    69  17.8  17.4  16.9  16.7  16.7  16.9  17.1  17.3   0.0   0.0
 1992 282    70  17.4  17.1  16.7  16.5  16.6  16.8  17.1  17.2   0.0   0.0
 1992 283    71  16.7  16.5  16.2  16.2  16.3  16.6  17.0  17.1   0.0   0.0
 1992 284    72  18.0  17.6  17.1  16.8  16.8  16.9  17.1  17.3   0.0   0.0
 1992 285    73  19.7  19.0  18.3  17.7  17.4  17.4  17.4  17.5   0.0   0.0
 1992 286    74  21.4  20.5  19.4  18.5  18.1  17.7  17.7  17.6   0.0   0.0
 1992 287    75  22.6  21.6  20.2  19.2  18.5  18.1  17.8  17.8   0.0   0.0
 1992 288    76  24.2  22.9  21.3  20.0  19.2  18.4  18.1  18.0   0.0   0.0
 1992 289    77  24.9  23.5  21.8  20.3  19.4  18.6  18.2  18.0   0.0   0.0
 1992 290    78  24.1  22.8  21.2  19.9  19.1  18.4  18.0  17.9   0.0   0.0
 1992 291    79  23.5  22.4  20.9  19.7  18.9  18.3  18.0  17.9   0.0   0.0
 1992 292    80  22.8  21.7  20.4  19.3  18.6  18.0  17.8  17.8   0.0   0.0
 1992 293    81  20.9  20.1  19.1  18.3  17.8  17.6  17.5  17.5   0.0   0.0
 1992 294    82  19.1  18.5  17.8  17.3  17.1  17.1  17.2  17.3   0.0   0.0
 1992 295    83  19.1  18.5  17.8  17.4  17.1  17.1  17.2  17.3   0.0   0.0
 1992 296    84  19.6  19.0  18.2  17.6  17.3  17.2  17.3  17.4   0.0   0.0
 1992 297    85  20.7  19.9  18.9  18.2  17.7  17.5  17.4  17.5   0.0   0.0
 1992 298    86  22.9  21.8  20.4  19.3  18.6  18.0  17.8  17.7   0.0   0.0
 1992 299    87  24.2  22.9  21.3  19.9  19.1  18.3  18.0  17.8   0.0   0.0
 1992 300    88  25.4  24.0  22.1  20.6  19.5  18.6  18.2  18.0   0.0   0.0
 1992 301    89  26.6  25.0  22.9  21.1  20.0  18.9  18.3  18.1   0.0   0.0
 1992 302    90  24.5  23.1  21.4  20.0  19.1  18.4  18.0  17.8   0.0   0.0
 1992 303    91  22.8  21.7  20.3  19.2  18.5  17.9  17.7  17.6   0.0   0.0
 1992 304    92  22.0  21.0  19.8  18.8  18.2  17.7  17.6  17.6   0.0   0.0
 1992 305    93  21.3  20.4  19.3  18.4  17.9  17.5  17.5  17.5   0.0   0.0
 1992 306    94  20.7  19.9  18.9  18.1  17.6  17.4  17.4  17.4   0.0   0.0
 1992 307    95  23.4  22.2  20.7  19.5  18.7  18.1  17.8  17.7   0.0   0.0
 1992 308    96  23.3  22.1  20.6  19.4  18.6  18.0  17.7  17.7   0.0   0.0
 1992 309    97  22.0  21.0  19.8  18.8  18.1  17.7  17.5  17.5   0.0   0.0
 1992 310    98  20.6  19.8  18.8  18.0  17.6  17.3  17.3  17.3   0.0   0.0
 1992 311    99  19.1  18.5  17.8  17.3  17.0  17.0  17.1  17.2   0.0   0.0
 1992 312   100  17.5  17.1  16.7  16.4  16.4  16.5  16.8  17.0   0.0   0.0
 1992 313   101  18.3  17.8  17.3  16.9  16.7  16.7  16.9  17.1   0.0   0.0
 1992 314   102  21.0  20.2  19.1  18.3  17.8  17.4  17.3  17.4   0.0   0.0
 1992 315   103  22.2  21.2  19.9  18.8  18.2  17.7  17.5  17.5   0.0   0.0
 1992 316   104  23.8  22.6  21.0  19.7  18.8  18.1  17.8  17.7   0.0   0.0
 1992 317   105  25.4  24.0  22.1  20.5  19.4  18.5  18.0  17.8   0.0   0.0
 1992 318   106  26.0  24.5  22.5  20.8  19.6  18.6  18.1  17.9   0.0   0.0
 1992 319   107  26.1  24.6  22.6  20.9  19.7  18.7  18.1  17.9   0.0   0.0
 1992 320   108  26.9  25.3  23.1  21.3  20.0  18.9  18.2  18.0   0.0   0.0
 1992 321   109  25.7  24.3  22.3  20.7  19.6  18.6  18.0  17.9   0.0   0.0
 1992 322   110  24.2  23.0  21.3  19.9  19.0  18.2  17.8  17.7   0.0   0.0
 1992 323   111  23.4  22.2  20.8  19.5  18.7  18.0  17.7  17.6   0.0   0.0
 1992 324   112  23.0  21.9  20.5  19.3  18.5  17.9  17.6  17.5   0.0   0.0
 1992 325   113  23.6  22.4  20.9  19.6  18.7  18.0  17.7  17.6   0.0   0.0
 1992 326   114  23.5  22.4  20.9  19.6  18.7  18.0  17.7  17.6   0.0   0.0
 1992 327   115  23.1  22.1  20.6  19.4  18.6  17.9  17.6  17.5   0.0   0.0
 1992 328   116  22.4  21.4  20.1  19.0  18.3  17.7  17.5  17.4   0.0   0.0
 1992 329   117  21.9  21.0  19.7  18.7  18.1  17.6  17.4  17.4   0.0   0.0
 1992 330   118  20.9  20.1  19.1  18.2  17.7  17.3  17.2  17.3   0.0   0.0
 1992 331   119  21.7  20.8  19.6  18.6  18.0  17.5  17.4  17.4   0.0   0.0
 1992 332   120  23.2  22.1  20.7  19.4  18.6  17.9  17.6  17.5   0.0   0.0
 1992 333   121  24.5  23.3  21.6  20.1  19.1  18.2  17.8  17.7   0.0   0.0
 1992 334   122  25.3  23.9  22.1  20.5  19.4  18.4  17.9  17.7   0.0   0.0
 1992 335   123  26.0  24.6  22.6  20.9  19.7  18.6  18.0  17.8   0.0   0.0
 1992 336   124  25.9  24.5  22.6  20.9  19.7  18.6  18.0  17.8   0.0   0.0
 1992 337   125  25.5  24.1  22.3  20.6  19.5  18.5  17.9  17.8   0.0   0.0
 1992 338   126  25.5  24.1  22.3  20.6  19.5  18.5  17.9  17.8   0.0   0.0
 1992 339   127  25.6  24.2  22.3  20.7  19.5  18.5  17.9  17.8   0.0   0.0
 1992 340   128  25.4  24.1  22.2  20.6  19.5  18.5  17.9  17.7   0.0   0.0
 1992 341   129  26.3  24.9  22.9  21.1  19.8  18.7  18.1  17.8   0.0   0.0
 1992 342   130  26.6  25.1  23.1  21.3  20.0  18.8  18.1  17.9   0.0   0.0
 1992 343   131  26.8  25.3  23.2  21.3  20.0  18.8  18.1  17.9   0.0   0.0
 1992 344   132  26.2  24.8  22.8  21.1  19.8  18.7  18.0  17.8   0.0   0.0
 1992 345   133  26.2  24.8  22.8  21.1  19.8  18.7  18.0  17.8   0.0   0.0
 1992 346   134  25.6  24.3  22.4  20.8  19.6  18.5  18.0  17.7   0.0   0.0
 1992 347   135  25.8  24.5  22.6  20.9  19.7  18.6  18.0  17.8   0.0   0.0
 1992 348   136  26.3  24.9  22.9  21.1  19.9  18.7  18.1  17.8   0.0   0.0
 1992 349   137  26.8  25.3  23.2  21.4  20.0  18.8  18.1  17.9   0.0   0.0
 1992 350   138  27.0  25.5  23.4  21.5  20.1  18.9  18.1  17.9   0.0   0.0
 1992 351   139  27.6  26.0  23.8  21.8  20.3  19.0  18.2  17.9   0.0   0.0
 1992 352   140  27.5  26.0  23.8  21.8  20.4  19.0  18.2  17.9   0.0   0.0
 1992 353   141  27.5  26.0  23.8  21.8  20.4  19.0  18.2  17.9   0.0   0.0
 1992 354   142  27.7  26.1  23.9  21.9  20.4  19.0  18.3  18.0   0.0   0.0
 1992 355   143  28.7  27.0  24.6  22.4  20.8  19.3  18.4  18.1   0.0   0.0
 1992 356   144  29.3  27.5  25.0  22.7  21.0  19.4  18.5  18.1   0.0   0.0
 1992 357   145  29.5  27.6  25.1  22.8  21.1  19.5  18.5  18.1   0.0   0.0
 1992 358   146  28.9  27.1  24.7  22.5  20.9  19.3  18.4  18.1   0.0   0.0
 1992 359   147  28.8  27.0  24.6  22.5  20.9  19.3  18.4  18.1   0.0   0.0
 1992 360   148  27.5  26.0  23.8  21.9  20.4  19.1  18.3  17.9   0.0   0.0
 1992 361   149  26.7  25.2  23.3  21.4  20.1  18.8  18.1  17.8   0.0   0.0
 1992 362   150  26.7  25.3  23.3  21.5  20.1  18.9  18.1  17.8   0.0   0.0
 1992 363   151  27.6  26.1  23.9  21.9  20.5  19.1  18.3  17.9   0.0   0.0
 1992 364   152  27.0  25.5  23.5  21.6  20.2  18.9  18.2  17.9   0.0   0.0
 1992 365   153  26.2  24.9  23.0  21.2  20.0  18.7  18.1  17.8   0.0   0.0
 1992 366   154  24.9  23.7  22.1  20.6  19.5  18.4  17.9  17.6   0.0   0.0
 1993 001   155  23.6  22.6  21.2  19.9  19.0  18.1  17.7  17.5   0.0   0.0
 1993 002   156  21.7  21.0  20.0  19.0  18.3  17.7  17.4  17.3   0.0   0.0
 1993 003   157  21.0  20.4  19.5  18.7  18.1  17.5  17.3  17.2   0.0   0.0
 1993 004   158  21.8  21.1  20.1  19.1  18.4  17.7  17.4  17.3   0.0   0.0
 1993 005   159  23.7  22.7  21.3  20.1  19.1  18.2  17.7  17.5   0.0   0.0
 1993 006   160  25.7  24.5  22.8  21.1  19.9  18.7  18.0  17.8   0.0   0.0
 1993 007   161  26.7  25.4  23.4  21.6  20.3  19.0  18.2  17.9   0.0   0.0
 1993 008   162  27.6  26.1  24.0  22.1  20.7  19.2  18.4  18.0   0.0   0.0
 1993 009   163  27.5  26.1  24.0  22.1  20.7  19.2  18.4  18.0   0.0   0.0
 1993 010   164  27.7  26.2  24.1  22.2  20.7  19.3  18.4  18.0   0.0   0.0
 1993 011   165  27.7  26.3  24.2  22.2  20.8  19.3  18.4  18.0   0.0   0.0
 1993 012   166  28.9  27.3  25.0  22.8  21.2  19.6  18.6  18.1   0.0   0.0
 1993 013   167  30.0  28.3  25.8  23.4  21.7  19.9  18.8  18.3   0.0   0.0
 1993 014   168  30.5  28.7  26.1  23.7  21.9  20.0  18.8  18.3   0.0   0.0
 1993 015   169  30.5  28.7  26.1  23.7  21.9  20.0  18.8  18.3   0.0   0.0
 1993 016   170  29.8  28.1  25.7  23.4  21.7  19.9  18.8  18.3   0.0   0.0
 1993 017   171  28.0  26.6  24.5  22.5  21.0  19.4  18.5  18.1   0.0   0.0
 1993 018   172  26.5  25.2  23.4  21.7  20.4  19.1  18.2  17.9   0.0   0.0
