*SOIL-PLANT-ATMOSPHERE MODULE OUTPUT FILE

*DSSAT Cropping System Model Ver. 4.0.2.000               Aug 01, 2016; 15:14:21

*RUN   1        : UYMZ                    
 MODEL          : MZCER040 - Maize           
 EXPERIMENT     : UYMZ0102 MZ    late to create DSS                             
 TREATMENT  1   : UYMZ                    

@YEAR DOY   DAS   SRAA   TMXA   TMNA   EOAA   ETAA   EPAA   ESAA   EFAD   ETAC   EPAC   ESAC   EFAC
 1975 184     0   8.80  16.00   7.80  1.812  1.812  0.000  1.812  0.000    1.8    0.0    1.8    0.0
 1975 185     1   8.50  20.60   5.70  1.831  1.774  0.000  1.774  0.000    3.6    0.0    3.6    0.0
 1975 186     2  10.20  14.80   7.80  2.064  2.064  0.000  2.064  0.000    5.6    0.0    5.6    0.0
 1975 187     3  12.30  14.10   5.50  2.407  2.407  0.000  2.407  0.000    8.1    0.0    8.1    0.0
 1975 188     4  12.40  19.40   4.30  2.592  2.592  0.000  2.592  0.000   10.6    0.0   10.6    0.0
 1975 189     5  12.40  20.90   5.90  2.686  2.012  0.000  2.012  0.000   12.7    0.0   12.7    0.0
 1975 190     6   9.20  23.40   8.80  2.114  2.114  0.000  2.114  0.000   14.8    0.0   14.8    0.0
 1975 191     7   7.00  21.80  14.80  1.658  1.658  0.000  1.658  0.000   16.4    0.0   16.4    0.0
 1975 192     8   3.60  15.50  12.30  0.768  0.768  0.000  0.768  0.000   17.2    0.0   17.2    0.0
 1975 193     9  10.90  14.90   5.30  2.155  2.155  0.000  2.155  0.000   19.4    0.0   19.4    0.0
 1975 194    10   4.70  18.80   2.60  0.958  0.958  0.000  0.958  0.000   20.3    0.0   20.3    0.0
 1975 195    11   3.70  18.60  11.30  0.816  0.816  0.000  0.816  0.000   21.1    0.0   21.1    0.0
 1975 196    12  12.30  12.70   5.60  2.359  2.359  0.000  2.359  0.000   23.5    0.0   23.5    0.0
 1975 197    13   9.60   7.50   2.20  1.629  1.629  0.000  1.629  0.000   25.1    0.0   25.1    0.0
 1975 198    14  10.50  10.30   1.20  1.848  1.848  0.000  1.848  0.000   27.0    0.0   27.0    0.0
 1975 199    15  11.80  10.20   0.00  2.045  1.413  0.000  1.413  0.000   28.4    0.0   28.4    0.0
 1975 200    16  12.20  13.10  -1.30  2.188  2.188  0.000  2.188  0.000   30.6    0.0   30.6    0.0
 1975 201    17  12.00  14.90  -2.10  2.197  1.563  0.000  1.563  0.000   32.1    0.0   32.1    0.0
 1975 202    18  12.20  13.90  -1.80  2.205  1.360  0.000  1.360  0.000   33.5    0.0   33.5    0.0
 1975 203    19   5.80  15.40   3.20  1.131  0.966  0.000  0.966  0.000   34.5    0.0   34.5    0.0
 1975 204    20   5.50  16.60   7.70  1.141  0.845  0.000  0.845  0.000   35.3    0.0   35.3    0.0
 1975 205    21   6.80  13.40   7.30  1.341  0.961  0.000  0.961  0.000   36.3    0.0   36.3    0.0
 1975 206    22  10.90  10.80   3.10  1.975  0.960  0.000  0.960  0.000   37.2    0.0   37.2    0.0
 1975 207    23  11.60  10.30  -0.40  2.005  0.716  0.000  0.716  0.000   37.9    0.0   37.9    0.0
 1975 208    24   7.70  12.40   3.60  1.439  0.663  0.000  0.663  0.000   38.6    0.0   38.6    0.0
 1975 209    25   5.50  14.10   9.20  1.117  1.117  0.000  1.117  0.000   39.7    0.0   39.7    0.0
 1975 210    26   4.50  15.00   8.20  0.917  0.917  0.000  0.917  0.000   40.6    0.0   40.6    0.0
 1975 211    27   4.10  11.70   8.40  0.797  0.797  0.001  0.796  0.000   41.4    0.0   41.4    0.0
 1975 212    28   6.00  18.50   9.60  1.301  0.851  0.001  0.849  0.000   42.3    0.0   42.3    0.0
 1975 213    29   9.80  23.00  10.50  2.272  0.793  0.004  0.789  0.000   43.1    0.0   43.1    0.0
 1975 214    30   6.90  18.60   9.40  1.495  0.746  0.005  0.741  0.000   43.8    0.0   43.8    0.0
 1975 215    31   7.90  13.60   7.30  1.562  0.609  0.007  0.602  0.000   44.4    0.0   44.4    0.0
 1975 216    32  11.20  14.00   2.50  2.121  0.579  0.010  0.569  0.000   45.0    0.0   45.0    0.0
 1975 217    33  11.90  14.20   3.60  2.286  0.551  0.010  0.541  0.000   45.6    0.0   45.5    0.0
 1975 218    34  11.60  15.00   0.30  2.181  0.527  0.010  0.517  0.000   46.1    0.0   46.0    0.0
 1975 219    35   4.40  14.90   2.80  0.848  0.498  0.003  0.496  0.000   46.6    0.1   46.5    0.0
 1975 220    36   4.30  14.30   8.80  0.872  0.480  0.003  0.477  0.000   47.1    0.1   47.0    0.0
 1975 221    37   4.40  14.30  10.80  0.909  0.909  0.003  0.906  0.000   48.0    0.1   47.9    0.0
 1975 222    38   4.40  15.00  12.70  0.935  0.935  0.004  0.931  0.000   48.9    0.1   48.8    0.0
 1975 223    39   5.80  12.40   9.40  1.150  1.150  0.007  1.143  0.000   50.1    0.1   50.0    0.0
 1975 224    40  13.50  19.90   7.40  2.922  2.922  0.018  2.904  0.000   53.0    0.1   52.9    0.0
 1975 225    41  14.60  15.50   5.00  2.901  2.901  0.020  2.881  0.000   55.9    0.1   55.8    0.0
 1975 226    42   6.30  14.00   3.00  1.199  0.809  0.009  0.800  0.000   56.7    0.1   56.6    0.0
 1975 227    43   5.00  16.70  10.60  1.066  1.066  0.007  1.059  0.000   57.8    0.1   57.6    0.0
 1975 228    44   7.60  17.80   7.10  1.593  1.593  0.013  1.580  0.000   59.3    0.1   59.2    0.0
 1975 229    45  15.00  18.30   3.70  3.065  2.321  0.028  2.292  0.000   61.7    0.2   61.5    0.0
 1975 230    46  13.80  19.20   8.00  2.972  2.791  0.033  2.758  0.000   64.5    0.2   64.3    0.0
 1975 231    47  12.50  20.50  10.30  2.795  1.445  0.044  1.400  0.000   65.9    0.2   65.7    0.0
 1975 232    48   6.80  18.40  12.10  1.501  1.223  0.033  1.190  0.000   67.1    0.3   66.9    0.0
 1975 233    49  11.60  23.10   9.40  2.657  2.657  0.076  2.581  0.000   69.8    0.4   69.4    0.0
 1975 234    50   4.90  17.60  14.80  1.094  1.094  0.041  1.053  0.000   70.9    0.4   70.5    0.0
 1975 235    51   5.80  17.10  13.20  1.266  1.266  0.057  1.209  0.000   72.1    0.4   71.7    0.0
 1975 236    52   9.70  18.80  11.80  2.137  2.137  0.113  2.024  0.000   74.3    0.6   73.7    0.0
 1975 237    53   5.20  14.30   3.90  0.996  0.996  0.059  0.937  0.000   75.3    0.6   74.7    0.0
 1975 238    54  17.40  12.50   1.70  3.165  3.165  0.181  2.984  0.000   78.4    0.8   77.6    0.0
 1975 239    55  10.80  15.30   1.90  2.061  2.061  0.098  1.963  0.000   80.5    0.9   79.6    0.0
 1975 240    56  12.80  18.70   7.60  2.716  2.375  0.111  2.264  0.000   82.9    1.0   81.9    0.0
 1975 241    57  15.70  16.50   5.00  3.147  3.147  0.149  2.998  0.000   86.0    1.2   84.9    0.0
 1975 242    58  13.50  17.80   3.40  2.713  1.885  0.138  1.747  0.000   87.9    1.3   86.6    0.0
 1975 243    59  13.60  19.20   4.80  2.827  1.356  0.145  1.211  0.000   89.3    1.4   87.8    0.0
 1975 244    60  15.00  22.30   8.40  3.357  1.327  0.190  1.137  0.000   90.6    1.6   89.0    0.0
 1975 245    61  18.40  23.10   4.80  4.025  1.099  0.273  0.826  0.000   91.7    1.9   89.8    0.0
 1975 246    62  18.00  22.20   4.40  3.870  1.046  0.299  0.747  0.000   92.7    2.2   90.5    0.0
 1975 247    63  12.30  21.30   9.20  2.724  1.118  0.232  0.887  0.000   93.9    2.4   91.4    0.0
 1975 248    64   6.80  20.90  13.40  1.551  0.890  0.151  0.739  0.000   94.7    2.6   92.2    0.0
 1975 249    65   8.40  13.70   4.50  1.590  1.590  0.179  1.411  0.000   96.3    2.8   93.6    0.0
 1975 250    66  18.10  16.90   2.00  3.508  3.508  0.395  3.113  0.000   99.8    3.2   96.7    0.0
 1975 251    67   6.20  18.60   5.50  1.277  1.277  0.127  1.150  0.000  101.1    3.3   97.8    0.0
 1975 252    68   8.00  17.20  10.10  1.685  1.253  0.179  1.074  0.000  102.4    3.5   98.9    0.0
 1975 253    69  11.70  19.10   6.60  2.446  2.446  0.284  2.162  0.000  104.8    3.8  101.1    0.0
 1975 254    70  18.50  18.40   3.50  3.713  2.146  0.467  1.679  0.000  107.0    4.2  102.7    0.0
 1975 255    71   6.20  20.40  10.60  1.366  1.366  0.172  1.194  0.000  108.3    4.4  103.9    0.0
 1975 256    72  15.50  20.60   9.40  3.379  2.157  0.477  1.680  0.000  110.5    4.9  105.6    0.0
 1975 257    73   9.90  18.00   9.90  2.088  2.088  0.328  1.761  0.000  112.6    5.2  107.4    0.0
 1975 258    74  19.30  19.40   5.30  3.970  1.774  0.675  1.099  0.000  114.4    5.9  108.5    0.0
 1975 259    75  15.20  20.60   6.40  3.206  1.810  0.580  1.230  0.000  116.2    6.4  109.7    0.0
 1975 260    76  19.10  21.80   8.90  4.178  1.635  0.814  0.821  0.000  117.8    7.3  110.5    0.0
 1975 261    77   6.20  18.60  13.10  1.345  1.030  0.287  0.743  0.000  118.8    7.5  111.3    0.0
 1975 262    78   6.20  19.00  15.10  1.372  1.202  0.318  0.884  0.000  120.0    7.9  112.2    0.0
 1975 263    79  18.40  21.90  15.80  4.236  4.236  1.074  3.161  0.000  124.3    8.9  115.3    0.0
 1975 264    80  15.50  21.00  10.80  3.365  3.365  0.961  2.403  0.000  127.6    9.9  117.7    0.0
 1975 265    81  20.30  19.20   6.60  4.127  3.162  1.279  1.883  0.000  130.8   11.2  119.6    0.0
 1975 266    82  21.10  22.10   8.00  4.506  3.814  1.474  2.340  0.000  134.6   12.7  121.9    0.0
 1975 267    83  12.10  15.50   6.40  2.314  2.182  0.813  1.370  0.000  136.8   13.5  123.3    0.0
 1975 268    84  21.00  15.30   2.40  3.844  2.448  1.372  1.076  0.000  139.2   14.8  124.4    0.0
 1975 269    85  19.60  18.30   1.00  3.719  2.125  1.209  0.916  0.000  141.4   16.1  125.3    0.0
 1975 270    86   9.90  19.70  12.10  2.144  1.376  0.565  0.811  0.000  142.7   16.6  126.1    0.0
 1975 271    87  13.70  23.00  14.10  3.135  1.643  0.907  0.736  0.000  144.4   17.5  126.9    0.0
 1975 272    88   6.70  17.10  14.30  1.416  1.416  0.459  0.957  0.000  145.8   18.0  127.8    0.0
 1975 273    89  22.20  21.70  10.00  4.784  4.784  1.669  3.115  0.000  150.6   19.7  130.9    0.0
 1975 274    90  21.80  22.00   7.50  4.597  4.597  1.717  2.880  0.000  155.2   21.4  133.8    0.0
 1975 275    91   9.60  15.80   8.10  1.862  1.413  0.735  0.678  0.000  156.6   22.1  134.5    0.0
 1975 276    92  22.50  19.60   3.30  4.395  4.395  1.785  2.610  0.000  161.0   23.9  137.1    0.0
 1975 277    93  21.00  19.10   6.70  4.211  3.188  1.672  1.515  0.000  164.2   25.6  138.6    0.0
 1975 278    94  20.70  19.80   2.70  4.028  2.804  1.664  1.141  0.000  167.0   27.2  139.8    0.0
 1975 279    95  12.20  22.40   7.50  2.579  1.966  1.011  0.954  0.000  168.9   28.2  140.7    0.0
 1975 280    96  17.30  28.40  11.20  4.049  3.037  1.700  1.338  0.000  172.0   29.9  142.0    0.0
 1975 281    97  23.40  18.10   5.50  4.529  2.857  2.102  0.755  0.000  174.8   32.0  142.8    0.0
 1975 282    98  23.80  18.00   2.10  4.441  2.819  2.126  0.693  0.000  177.7   34.2  143.5    0.0
 1975 283    99  23.50  19.70   1.40  4.493  2.606  1.961  0.645  0.000  180.3   36.1  144.1    0.0
 1975 284   100  21.90  20.20   4.80  4.394  2.267  1.663  0.605  0.000  182.5   37.8  144.7    0.0
 1975 285   101  18.10  20.60   5.50  3.666  2.022  1.450  0.572  0.000  184.5   39.2  145.3    0.0
 1975 286   102  18.00  23.40  11.00  3.957  2.194  1.651  0.543  0.000  186.7   40.9  145.9    0.0
 1975 287   103  22.00  23.10   9.50  4.732  3.259  2.139  1.120  0.000  190.0   43.0  147.0    0.0
 1975 288   104  23.20  26.70   7.50  5.113  2.993  2.461  0.531  0.000  193.0   45.5  147.5    0.0
 1975 289   105  22.60  26.90  10.30  5.086  3.112  2.604  0.508  0.000  196.1   48.1  148.0    0.0
 1975 290   106  25.40  27.80   8.10  5.648  5.648  3.080  2.567  0.000  201.8   51.2  150.6    0.0
 1975 291   107  24.70  27.50   7.70  5.430  5.430  3.120  2.311  0.000  207.2   54.3  152.9    0.0
 1975 292   108  19.30  21.70  13.80  4.136  4.136  2.485  1.651  0.000  211.3   56.8  154.5    0.0
 1975 293   109  19.40  21.90  12.40  4.103  4.103  2.567  1.536  0.000  215.4   59.3  156.1    0.0
 1975 294   110  23.70  21.70   8.20  4.806  4.806  3.112  1.694  0.000  220.2   62.5  157.8    0.0
 1975 295   111  25.80  20.20   6.90  5.056  5.056  3.352  1.704  0.000  225.3   65.8  159.5    0.0
 1975 296   112  26.20  22.50   4.30  5.165  5.165  3.486  1.679  0.000  230.4   69.3  161.2    0.0
 1975 297   113  19.30  23.50   6.90  3.944  3.944  2.673  1.271  0.000  234.4   72.0  162.4    0.0
 1975 298   114  20.00  27.10  10.80  4.409  4.405  3.053  1.352  0.000  238.8   75.0  163.8    0.0
 1975 299   115   9.80  25.20  12.40  2.132  2.132  1.522  0.610  0.000  240.9   76.5  164.4    0.0
 1975 300   116  18.10  23.90   9.90  3.785  3.785  2.766  1.020  0.000  244.7   79.3  165.4    0.0
 1975 301   117  21.20  23.90   5.60  4.263  4.263  3.179  1.084  0.000  249.0   82.5  166.5    0.0
 1975 302   118  25.30  24.00  11.90  5.366  5.366  4.062  1.304  0.000  254.3   86.5  167.8    0.0
 1975 303   119  27.30  25.50   8.90  5.742  5.489  4.433  1.055  0.000  259.8   91.0  168.9    0.0
 1975 304   120  26.50  23.00   7.30  5.314  5.314  4.172  1.142  0.000  265.1   95.2  170.0    0.0
 1975 305   121  27.30  23.10   7.20  5.469  5.469  4.346  1.123  0.000  270.6   99.5  171.1    0.0
 1975 306   122  27.20  23.50   8.80  5.547  5.547  4.458  1.088  0.000  276.2  104.0  172.2    0.0
 1975 307   123  25.80  23.70   8.70  5.263  5.263  4.282  0.981  0.000  281.4  108.2  173.2    0.0
 1975 308   124  19.40  23.20  10.00  3.971  3.971  3.268  0.703  0.000  285.4  111.5  173.9    0.0
 1975 309   125  11.00  22.70  14.60  2.318  2.318  1.958  0.360  0.000  287.7  113.5  174.2    0.0
 1975 310   126  10.60  22.00  16.70  2.250  2.250  1.921  0.330  0.000  290.0  115.4  174.6    0.0
 1975 311   127   8.30  18.50  14.90  1.659  1.659  1.427  0.232  0.000  291.6  116.8  174.8    0.0
 1975 312   128  16.10  23.90  14.30  3.425  3.425  2.962  0.464  0.000  295.0  119.8  175.3    0.0
 1975 313   129  28.00  22.40  12.20  5.739  5.739  5.009  0.730  0.000  300.8  124.8  176.0    0.0
 1975 314   130  28.00  22.70   8.90  5.596  5.596  4.917  0.679  0.000  306.4  129.7  176.7    0.0
 1975 315   131  26.10  22.80  10.70  5.301  5.301  4.681  0.620  0.000  311.7  134.4  177.3    0.0
 1975 316   132  28.30  26.50   7.80  5.874  5.874  5.212  0.662  0.000  317.6  139.6  178.0    0.0
 1975 317   133  26.20  28.00  13.30  5.786  5.786  5.157  0.629  0.000  323.3  144.7  178.6    0.0
 1975 318   134  28.40  32.00  14.00  6.596  6.596  5.912  0.684  0.000  329.9  150.7  179.3    0.0
 1975 319   135   8.60  27.90  16.10  1.936  1.936  1.745  0.190  0.000  331.9  152.4  179.5    0.0
 1975 320   136  14.20  21.40  10.70  2.825  2.825  2.552  0.273  0.000  334.7  155.0  179.7    0.0
 1975 321   137  28.30  23.40   7.30  5.608  5.608  5.076  0.532  0.000  340.3  160.0  180.3    0.0
 1975 322   138  28.30  21.20   6.20  5.393  5.393  4.889  0.504  0.000  345.7  164.9  180.8    0.0
 1975 323   139  28.40  26.60  10.30  6.008  6.008  5.453  0.556  0.000  351.7  170.4  181.3    0.0
 1975 324   140  21.00  27.60  15.10  4.669  4.669  4.249  0.421  0.000  356.4  174.6  181.8    0.0
 1975 325   141  26.50  25.90  13.50  5.700  5.700  5.205  0.496  0.000  362.1  179.8  182.3    0.0
 1975 326   142  26.60  29.10  10.90  5.821  5.821  5.329  0.492  0.000  367.9  185.2  182.7    0.0
 1975 327   143  22.90  25.50  11.60  4.824  4.824  4.428  0.396  0.000  372.7  189.6  183.1    0.0
 1975 328   144  28.70  24.90   8.00  5.822  5.822  5.355  0.467  0.000  378.5  194.9  183.6    0.0
 1975 329   145  28.90  28.20   9.70  6.193  6.193  5.703  0.489  0.000  384.7  200.6  184.1    0.0
 1975 330   146  26.90  28.90  13.00  5.964  5.964  5.503  0.461  0.000  390.7  206.1  184.6    0.0
 1975 331   147  26.50  29.10  13.20  5.899  5.899  5.436  0.463  0.000  396.6  211.6  185.0    0.0
 1975 332   148  13.10  25.20  16.80  2.866  2.866  2.637  0.228  0.000  399.5  214.2  185.2    0.0
 1975 333   149  19.00  19.50   7.40  3.570  3.570  3.283  0.287  0.000  403.0  217.5  185.5    0.0
 1975 334   150  29.30  21.60   4.70  5.529  5.529  5.079  0.449  0.000  408.6  222.6  186.0    0.0
 1975 335   151  29.10  24.90   8.20  5.917  5.917  5.415  0.502  0.000  414.5  228.0  186.5    0.0
 1975 336   152  29.10  30.30  11.60  6.494  6.494  5.939  0.555  0.000  421.0  233.9  187.0    0.0
 1975 337   153  24.90  27.30  14.10  5.471  5.471  5.000  0.472  0.000  426.4  238.9  187.5    0.0
 1975 338   154  28.40  29.30  11.60  6.265  6.265  5.721  0.544  0.000  432.7  244.7  188.1    0.0
 1975 339   155  13.20  25.30  13.40  2.817  2.817  2.571  0.246  0.000  435.5  247.2  188.3    0.0
 1975 340   156  25.70  32.70  18.10  6.184  6.184  5.640  0.544  0.000  441.7  252.9  188.8    0.0
 1975 341   157  23.90  30.90  16.80  5.587  5.587  5.092  0.495  0.000  447.3  258.0  189.3    0.0
 1975 342   158  19.70  26.50  16.10  4.358  4.358  3.969  0.389  0.000  451.7  261.9  189.7    0.0
 1975 343   159  29.20  25.20  13.20  6.216  6.216  5.658  0.558  0.000  457.9  267.6  190.3    0.0
 1975 344   160  29.70  29.60  14.70  6.737  6.737  6.128  0.609  0.000  464.6  273.7  190.9    0.0
 1975 345   161  29.70  27.50  13.40  6.509  6.509  5.921  0.588  0.000  471.1  279.6  191.5    0.0
 1975 346   162  27.00  32.60  14.80  6.339  6.339  5.766  0.573  0.000  477.5  285.4  192.1    0.0
 1975 347   163  29.70  24.70  11.10  6.177  6.177  5.619  0.558  0.000  483.6  291.0  192.6    0.0
 1975 348   164  29.60  26.00   9.80  6.189  6.189  5.630  0.559  0.000  489.8  296.7  193.2    0.0
 1975 349   165  26.00  30.50  14.60  5.954  5.954  5.416  0.538  0.000  495.8  302.1  193.7    0.0
 1975 350   166  23.70  32.20  14.50  5.527  5.527  5.028  0.499  0.000  501.3  307.1  194.2    0.0
 1975 351   167  27.60  34.00  17.60  6.713  6.713  6.106  0.607  0.000  508.0  313.2  194.8    0.0
 1975 352   168  29.00  35.60  19.30  7.456  7.456  6.781  0.676  0.000  515.5  320.0  195.5    0.0
 1975 353   169  18.50  23.90  10.90  3.803  3.803  3.457  0.346  0.000  519.3  323.4  195.8    0.0
 1975 354   170  29.40  26.00   8.30  6.072  6.072  5.514  0.558  0.000  525.4  329.0  196.4    0.0
 1975 355   171  29.60  29.70  12.20  6.597  6.597  5.984  0.613  0.000  532.0  334.9  197.0    0.0
 1975 356   172  25.00  34.40  15.30  6.010  6.010  5.445  0.565  0.000  538.0  340.4  197.6    0.0
 1975 357   173  25.10  30.10  14.70  5.730  5.730  5.184  0.546  0.000  543.7  345.6  198.1    0.0
 1975 358   174  27.40  31.60  11.40  6.207  6.207  5.606  0.601  0.000  549.9  351.2  198.7    0.0
 1975 359   175  23.30  33.30  19.30  5.700  5.700  5.136  0.563  0.000  555.6  356.3  199.3    0.0
 1975 360   176  16.00  31.20  18.10  3.795  3.795  3.412  0.383  0.000  559.4  359.7  199.7    0.0
 1975 361   177  17.00  28.20  13.20  3.758  3.758  3.368  0.389  0.000  563.1  363.1  200.1    0.0
 1975 362   178  30.20  26.30  10.70  6.399  6.399  5.717  0.682  0.000  569.5  368.8  200.7    0.0
 1975 363   179  30.00  32.90  10.00  6.837  6.837  6.085  0.752  0.000  576.4  374.9  201.5    0.0
 1975 364   180  29.90  35.70  12.40  7.386  7.386  6.548  0.839  0.000  583.8  381.4  202.3    0.0
 1975 365   181  30.00  36.70  14.90  7.965  7.965  7.030  0.936  0.000  591.7  388.5  203.3    0.0
 1976 001   182  25.90  37.00  15.60  7.024  7.024  6.168  0.856  0.000  598.8  394.6  204.1    0.0
 1976 002   183  23.70  33.40  19.60  5.838  5.838  5.099  0.739  0.000  604.6  399.7  204.9    0.0
 1976 003   184  20.00  33.90  22.20  5.047  5.047  4.381  0.666  0.000  609.6  404.1  205.5    0.0
 1976 004   185  24.70  33.30  21.10  6.152  6.152  5.305  0.847  0.000  615.8  409.4  206.4    0.0
 1976 005   186   9.60  25.20  20.90  2.187  2.187  1.872  0.315  0.000  618.0  411.3  206.7    0.0
 1976 006   187  28.10  26.60  14.80  6.214  6.214  5.275  0.938  0.000  624.2  416.6  207.6    0.0
 1976 007   188  28.70  26.90  14.30  6.351  6.351  5.343  1.008  0.000  630.5  421.9  208.6    0.0
 1976 008   189  15.00  27.70  15.60  3.388  3.388  2.824  0.564  0.000  633.9  424.7  209.2    0.0
 1976 009   190   9.60  25.00  19.40  2.167  2.167  1.788  0.379  0.000  636.1  426.5  209.6    0.0
 1976 010   191  20.20  29.70  19.70  4.825  4.825  3.935  0.890  0.000  640.9  430.5  210.5    0.0
 1976 011   192  29.10  29.30  19.20  6.905  6.905  5.564  1.341  0.000  647.8  436.0  211.8    0.0
 1976 012   193  23.60  32.40  20.20  5.842  5.842  4.647  1.194  0.000  653.7  440.7  213.0    0.0
 1976 013   194   9.70  26.90  22.00  2.295  2.295  1.801  0.494  0.000  656.0  442.5  213.5    0.0
 1976 014   195  11.70  29.00  14.50  2.683  2.683  2.074  0.609  0.000  658.7  444.5  214.1    0.0
 1976 015   196  29.40  29.90  14.70  6.841  6.841  5.166  1.675  0.000  665.5  449.7  215.8    0.0
 1976 016   197  29.20  31.00  15.40  6.915  6.915  5.222  1.694  0.000  672.4  454.9  217.5    0.0
 1976 017   198  29.20  33.30  16.00  7.124  7.124  5.379  1.745  0.000  679.5  460.3  219.2    0.0
 1976 018   199  23.10  33.80  17.20  5.715  5.506  4.315  1.191  0.000  685.0  464.6  220.4    0.0

*DSSAT Cropping System Model Ver. 4.0.2.000               Aug 01, 2016; 15:14:21

*RUN   2        : UYMZ                    
 MODEL          : MZCER040 - Maize           
 EXPERIMENT     : UYMZ0102 MZ    late to create DSS                             
 TREATMENT  1   : UYMZ                    

@YEAR DOY   DAS   SRAA   TMXA   TMNA   EOAA   ETAA   EPAA   ESAA   EFAD   ETAC   EPAC   ESAC   EFAC
 1976 184     0   9.60  16.90   3.20  1.915  1.915  0.000  1.915  0.000    1.9    0.0    1.9    0.0
 1976 185     1  10.80  20.60   2.20  2.251  1.437  0.000  1.437  0.000    3.4    0.0    3.4    0.0
 1976 186     2  11.90  13.10   1.10  2.190  2.190  0.000  2.190  0.000    5.5    0.0    5.5    0.0
 1976 187     3  11.00  13.70  -3.20  1.951  1.951  0.000  1.951  0.000    7.5    0.0    7.5    0.0
 1976 188     4  10.40  15.30  -2.40  1.910  1.910  0.000  1.910  0.000    9.4    0.0    9.4    0.0
 1976 189     5   9.50  14.50   0.40  1.775  1.775  0.000  1.775  0.000   11.2    0.0   11.2    0.0
 1976 190     6  10.50  10.40   2.40  1.876  1.271  0.000  1.271  0.000   12.4    0.0   12.4    0.0
 1976 191     7  11.70  10.20   0.90  2.049  2.049  0.000  2.049  0.000   14.5    0.0   14.5    0.0
 1976 192     8  12.50  13.00  -1.40  2.236  1.625  0.000  1.625  0.000   16.1    0.0   16.1    0.0
 1976 193     9  12.60  13.80  -3.60  2.229  1.184  0.000  1.184  0.000   17.3    0.0   17.3    0.0
 1976 194    10   6.20  13.70   2.50  1.169  0.979  0.000  0.979  0.000   18.3    0.0   18.3    0.0
 1976 195    11   4.70  12.70   1.80  0.866  0.854  0.000  0.854  0.000   19.1    0.0   19.1    0.0
 1976 196    12   7.70  14.50   1.20  1.451  0.767  0.000  0.767  0.000   19.9    0.0   19.9    0.0
 1976 197    13  11.80  15.70  -2.00  2.191  0.803  0.000  0.803  0.000   20.7    0.0   20.7    0.0
 1976 198    14  12.50  18.20   0.00  2.463  0.652  0.000  0.652  0.000   21.4    0.0   21.4    0.0
 1976 199    15  12.70  20.60  -0.40  2.582  0.611  0.000  0.611  0.000   22.0    0.0   22.0    0.0
 1976 200    16  11.60  20.70   3.00  2.440  0.677  0.000  0.677  0.000   22.6    0.0   22.6    0.0
 1976 201    17  13.00  23.10   3.40  2.837  0.548  0.000  0.548  0.000   23.2    0.0   23.2    0.0
 1976 202    18  12.40  24.70   6.90  2.850  0.523  0.000  0.523  0.000   23.7    0.0   23.7    0.0
 1976 203    19   9.90  24.10  12.50  2.368  0.501  0.000  0.501  0.000   24.2    0.0   24.2    0.0
 1976 204    20   8.90  26.00  15.80  2.236  0.482  0.000  0.482  0.000   24.7    0.0   24.7    0.0
 1976 205    21   6.90  21.40  14.30  1.619  1.619  0.000  1.619  0.000   26.3    0.0   26.3    0.0
 1976 206    22   6.80  19.00  13.30  1.534  1.534  0.003  1.531  0.000   27.9    0.0   27.9    0.0
 1976 207    23   4.00  14.70  11.20  0.835  0.835  0.003  0.832  0.000   28.7    0.0   28.7    0.0
 1976 208    24  11.90  16.00   7.70  2.446  2.446  0.009  2.437  0.000   31.1    0.0   31.1    0.0
 1976 209    25  13.10  17.40   7.20  2.734  2.734  0.012  2.722  0.000   33.9    0.0   33.8    0.0
 1976 210    26   6.80  15.70   5.00  1.355  1.152  0.007  1.145  0.000   35.0    0.0   35.0    0.0
 1976 211    27   5.00  20.40  12.80  1.143  1.143  0.006  1.137  0.000   36.2    0.0   36.1    0.0
 1976 212    28   7.60  14.90   6.20  1.514  1.514  0.011  1.503  0.000   37.7    0.1   37.6    0.0
 1976 213    29  13.20  16.50   3.30  2.617  1.650  0.020  1.629  0.000   39.3    0.1   39.3    0.0
 1976 214    30   4.20  11.50   9.40  0.821  0.821  0.006  0.815  0.000   40.2    0.1   40.1    0.0
 1976 215    31   4.20  13.30   9.30  0.843  0.843  0.007  0.836  0.000   41.0    0.1   40.9    0.0
 1976 216    32   4.20  13.90  10.90  0.863  0.863  0.008  0.856  0.000   41.9    0.1   41.8    0.0
 1976 217    33   4.20  14.10  11.00  0.866  0.866  0.008  0.858  0.000   42.7    0.1   42.6    0.0
 1976 218    34   4.80  16.70  11.60  1.033  1.033  0.011  1.022  0.000   43.8    0.1   43.6    0.0
 1976 219    35  13.40  18.80   9.80  2.918  2.918  0.033  2.884  0.000   46.7    0.1   46.5    0.0
 1976 220    36  13.30  17.20   7.80  2.779  2.779  0.040  2.739  0.000   49.5    0.2   49.3    0.0
 1976 221    37   5.10  15.00   8.60  1.040  0.782  0.018  0.764  0.000   50.2    0.2   50.0    0.0
 1976 222    38   5.10  12.50   7.70  0.993  0.993  0.020  0.973  0.000   51.2    0.2   51.0    0.0
 1976 223    39  14.50  14.80   4.00  2.816  2.816  0.062  2.753  0.000   54.0    0.3   53.8    0.0
 1976 224    40  12.50  15.20   4.60  2.457  1.651  0.056  1.595  0.000   55.7    0.3   55.4    0.0
 1976 225    41  12.70  14.60   7.70  2.550  2.392  0.062  2.330  0.000   58.1    0.4   57.7    0.0
 1976 226    42  13.80  13.20   5.00  2.640  1.837  0.072  1.766  0.000   59.9    0.5   59.4    0.0
 1976 227    43  15.00  13.00   3.20  2.807  2.576  0.079  2.498  0.000   62.5    0.6   61.9    0.0
 1976 228    44  15.60  15.50   0.20  2.943  1.472  0.079  1.393  0.000   64.0    0.6   63.3    0.0
 1976 229    45   7.00  16.90   3.00  1.390  1.113  0.027  1.087  0.000   65.1    0.7   64.4    0.0
 1976 230    46  13.40  16.60   5.90  2.725  0.974  0.052  0.922  0.000   66.1    0.7   65.3    0.0
 1976 231    47  15.30  18.00   2.70  3.076  0.885  0.070  0.816  0.000   66.9    0.8   66.2    0.0
 1976 232    48  14.70  15.60   3.10  2.863  0.805  0.066  0.739  0.000   67.8    0.8   66.9    0.0
 1976 233    49  16.10  16.90  -0.10  3.096  0.752  0.072  0.681  0.000   68.5    0.9   67.6    0.0
 1976 234    50  16.30  17.50   2.40  3.247  0.687  0.052  0.634  0.000   69.2    1.0   68.2    0.0
 1976 235    51  16.40  19.90   1.20  3.344  0.652  0.056  0.596  0.000   69.8    1.0   68.8    0.0
 1976 236    52  15.60  22.60   1.50  3.315  0.618  0.053  0.564  0.000   70.5    1.1   69.4    0.0
 1976 237    53   6.00  17.80   8.90  1.277  0.560  0.022  0.537  0.000   71.0    1.1   69.9    0.0
 1976 238    54   5.10  14.80  11.50  1.065  1.065  0.025  1.040  0.000   72.1    1.1   71.0    0.0
 1976 239    55   5.10  16.00  14.10  1.108  1.108  0.033  1.075  0.000   73.2    1.2   72.0    0.0
 1976 240    56   6.40  22.90  14.20  1.520  1.520  0.059  1.461  0.000   74.7    1.2   73.5    0.0
 1976 241    57  15.20  18.40   8.60  3.239  3.239  0.152  3.086  0.000   78.0    1.4   76.6    0.0
 1976 242    58  17.60  16.50   6.00  3.560  3.374  0.182  3.192  0.000   81.3    1.6   79.8    0.0
 1976 243    59  17.90  22.90   5.70  3.944  3.453  0.220  3.233  0.000   84.8    1.8   83.0    0.0
 1976 244    60  13.60  26.30   7.70  3.180  1.857  0.211  1.647  0.000   86.6    2.0   84.6    0.0
 1976 245    61   5.40  22.20  15.50  1.277  1.216  0.105  1.111  0.000   87.9    2.1   85.8    0.0
 1976 246    62   5.40  19.60  11.60  1.192  1.192  0.120  1.072  0.000   89.0    2.2   86.8    0.0
 1976 247    63  18.00  16.70   7.50  3.670  3.670  0.414  3.257  0.000   92.7    2.6   90.1    0.0
 1976 248    64  14.70  13.90   3.50  2.760  2.760  0.335  2.425  0.000   95.5    3.0   92.5    0.0
 1976 249    65  12.40  12.80   2.60  2.268  1.594  0.264  1.330  0.000   97.1    3.2   93.8    0.0
 1976 250    66  13.60  13.90   0.80  2.488  2.488  0.262  2.226  0.000   99.6    3.5   96.1    0.0
 1976 251    67   5.70  11.30   7.90  1.082  1.082  0.086  0.996  0.000  100.6    3.6   97.1    0.0
 1976 252    68   6.30  10.90   7.10  1.177  1.177  0.111  1.066  0.000  101.8    3.7   98.1    0.0
 1976 253    69  14.10  14.10   4.80  2.700  2.700  0.264  2.436  0.000  104.5    3.9  100.6    0.0
 1976 254    70  18.90  15.10   4.80  3.674  3.674  0.365  3.309  0.000  108.2    4.3  103.9    0.0
 1976 255    71  19.60  15.20   1.20  3.677  2.458  0.375  2.083  0.000  110.6    4.7  106.0    0.0
 1976 256    72  10.60  16.90   7.10  2.169  2.169  0.179  1.990  0.000  112.8    4.9  107.9    0.0
 1976 257    73   6.00  12.70   9.60  1.182  1.182  0.108  1.073  0.000  114.0    5.0  109.0    0.0
 1976 258    74  15.50  17.00   6.40  3.142  3.142  0.347  2.795  0.000  117.1    5.3  111.8    0.0
 1976 259    75  18.40  21.50   6.10  3.955  3.844  0.474  3.371  0.000  121.0    5.8  115.2    0.0
 1976 260    76  17.10  21.30   8.20  3.726  3.726  0.504  3.222  0.000  124.7    6.3  118.4    0.0
 1976 261    77  19.50  25.50   9.00  4.506  2.166  0.683  1.483  0.000  126.9    7.0  119.9    0.0
 1976 262    78  20.80  15.60   4.20  4.002  1.834  0.707  1.127  0.000  128.7    7.7  121.0    0.0
 1976 263    79  20.60  18.80   0.10  3.991  1.658  0.711  0.946  0.000  130.4    8.4  122.0    0.0
 1976 264    80  21.00  22.70   3.20  4.464  1.395  0.563  0.832  0.000  131.8    9.0  122.8    0.0
 1976 265    81  16.90  25.80   8.40  3.911  1.273  0.522  0.751  0.000  133.0    9.5  123.5    0.0
 1976 266    82  21.20  21.50   8.50  4.626  1.439  0.749  0.690  0.000  134.5   10.2  124.2    0.0
 1976 267    83  21.60  21.70   4.30  4.532  1.496  0.854  0.642  0.000  136.0   11.1  124.9    0.0
 1976 268    84  15.90  21.10   5.30  3.331  1.285  0.682  0.603  0.000  137.3   11.8  125.5    0.0
 1976 269    85  21.40  22.80   9.60  4.750  1.635  1.065  0.570  0.000  138.9   12.8  126.1    0.0
 1976 270    86  14.90  23.40  13.60  3.430  1.420  0.878  0.542  0.000  140.3   13.7  126.6    0.0
 1976 271    87  12.00  24.40  14.40  2.801  1.324  0.807  0.518  0.000  141.6   14.5  127.1    0.0
 1976 272    88  19.90  29.90  14.70  4.939  2.103  1.607  0.496  0.000  143.7   16.1  127.6    0.0
 1976 273    89   6.70  20.00  14.20  1.459  1.459  0.547  0.912  0.000  145.2   16.7  128.5    0.0
 1976 274    90  22.30  20.90   9.00  4.675  4.675  1.884  2.791  0.000  149.9   18.6  131.3    0.0
 1976 275    91  21.50  18.40   6.70  4.252  4.252  1.803  2.448  0.000  154.1   20.4  133.8    0.0
 1976 276    92  22.50  17.60   3.90  4.274  3.618  1.872  1.745  0.000  157.7   22.2  135.5    0.0
 1976 277    93  18.30  21.00   7.90  3.786  3.786  1.647  2.139  0.000  161.5   23.9  137.6    0.0
 1976 278    94   7.00  17.20  15.00  1.462  1.462  0.665  0.797  0.000  163.0   24.5  138.4    0.0
 1976 279    95  23.50  20.10   9.80  4.850  4.850  2.344  2.505  0.000  167.8   26.9  140.9    0.0
 1976 280    96  19.50  23.00   7.60  4.087  4.087  2.070  2.017  0.000  171.9   29.0  143.0    0.0
 1976 281    97  13.60  24.70  11.80  3.008  3.008  1.594  1.414  0.000  174.9   30.6  144.4    0.0
 1976 282    98  14.90  24.90  15.00  3.374  2.807  1.892  0.915  0.000  177.7   32.4  145.3    0.0
 1976 283    99  22.70  22.00  10.30  4.744  4.744  2.820  1.924  0.000  182.5   35.3  147.2    0.0
 1976 284   100  22.60  19.50   6.10  4.385  4.385  2.699  1.686  0.000  186.9   38.0  148.9    0.0
 1976 285   101   8.10  18.40  11.80  1.628  1.628  1.022  0.606  0.000  188.5   39.0  149.5    0.0
 1976 286   102  16.50  23.10   8.60  3.421  3.421  2.205  1.216  0.000  191.9   41.2  150.7    0.0
 1976 287   103  10.80  21.80  14.50  2.310  2.310  1.530  0.780  0.000  194.2   42.7  151.5    0.0
 1976 288   104  13.30  22.30  12.80  2.812  2.812  1.924  0.889  0.000  197.0   44.6  152.4    0.0
 1976 289   105  23.90  24.30   9.30  5.018  5.018  3.529  1.490  0.000  202.1   48.2  153.9    0.0
 1976 290   106  22.10  27.30  12.30  4.923  4.923  3.543  1.380  0.000  207.0   51.7  155.3    0.0
 1976 291   107   7.90  21.00  12.80  1.629  1.629  1.207  0.423  0.000  208.6   52.9  155.7    0.0
 1976 292   108  16.40  18.40   6.20  3.072  3.072  2.320  0.752  0.000  211.7   55.2  156.4    0.0
 1976 293   109  22.80  17.40   4.00  4.118  4.118  3.137  0.981  0.000  215.8   58.4  157.4    0.0
 1976 294   110  21.20  19.30   3.90  3.936  3.936  2.967  0.970  0.000  219.7   61.3  158.4    0.0
 1976 295   111  23.40  19.30   2.60  4.296  4.296  3.203  1.093  0.000  224.0   64.6  159.5    0.0
 1976 296   112  21.80  22.70   8.40  4.445  4.445  3.155  1.291  0.000  228.5   67.7  160.8    0.0
 1976 297   113   8.60  19.20  13.80  1.752  1.752  1.268  0.485  0.000  230.2   69.0  161.3    0.0
 1976 298   114  21.00  22.40  14.10  4.459  4.459  3.292  1.167  0.000  234.7   72.3  162.4    0.0
 1976 299   115  13.10  22.80  13.90  2.784  2.784  2.102  0.682  0.000  237.5   74.4  163.1    0.0
 1976 300   116   8.20  19.60  12.40  1.648  1.648  1.270  0.377  0.000  239.1   75.6  163.5    0.0
 1976 301   117  20.40  22.70  11.90  4.241  4.241  3.316  0.926  0.000  243.4   79.0  164.4    0.0
 1976 302   118  17.10  22.30  11.20  3.510  3.510  2.788  0.722  0.000  246.9   81.7  165.1    0.0
 1976 303   119  22.80  22.50   7.50  4.537  4.537  3.655  0.882  0.000  251.4   85.4  166.0    0.0
 1976 304   120  16.10  25.20  15.50  3.539  3.539  2.880  0.658  0.000  254.9   88.3  166.7    0.0
 1976 305   121  26.60  24.50  13.90  5.711  5.711  4.731  0.981  0.000  260.7   93.0  167.7    0.0
 1976 306   122  27.70  24.50  10.40  5.769  5.769  4.847  0.922  0.000  266.4   97.9  168.6    0.0
 1976 307   123  25.70  24.40   9.50  5.298  5.298  4.501  0.797  0.000  271.7  102.4  169.4    0.0
 1976 308   124   8.20  19.70  15.40  1.670  1.670  1.448  0.222  0.000  273.4  103.8  169.6    0.0
 1976 309   125  25.00  24.70  14.60  5.378  5.378  4.691  0.687  0.000  278.8  108.5  170.3    0.0
 1976 310   126  10.70  19.30   9.80  2.060  2.060  1.818  0.242  0.000  280.8  110.3  170.5    0.0
 1976 311   127  27.80  19.90   8.80  5.343  5.343  4.739  0.604  0.000  286.2  115.1  171.1    0.0
 1976 312   128  27.90  22.00  10.40  5.589  5.589  4.976  0.613  0.000  291.8  120.0  171.7    0.0
 1976 313   129  28.00  21.50   8.20  5.462  5.462  4.889  0.574  0.000  297.2  124.9  172.3    0.0
 1976 314   130  27.20  23.30   6.30  5.341  5.341  4.798  0.543  0.000  302.6  129.7  172.9    0.0
 1976 315   131  26.70  21.40   5.00  5.050  5.050  4.552  0.498  0.000  307.6  134.3  173.4    0.0
 1976 316   132  19.40  20.30  10.40  3.794  3.794  3.423  0.372  0.000  311.4  137.7  173.7    0.0
 1976 317   133  12.50  21.50  13.60  2.552  2.552  2.309  0.243  0.000  314.0  140.0  174.0    0.0
 1976 318   134  28.00  23.40  12.40  5.793  5.793  5.261  0.532  0.000  319.8  145.3  174.5    0.0
 1976 319   135  23.80  24.50  12.90  5.010  5.010  4.565  0.445  0.000  324.8  149.8  174.9    0.0
 1976 320   136  21.70  26.00  17.40  4.818  4.818  4.405  0.413  0.000  329.6  154.2  175.4    0.0
 1976 321   137  21.50  25.80  18.60  4.805  4.805  4.411  0.394  0.000  334.4  158.6  175.8    0.0
 1976 322   138  16.60  25.00  18.30  3.665  3.665  3.377  0.289  0.000  338.1  162.0  176.0    0.0
 1976 323   139  23.60  25.00  14.20  5.043  5.043  4.659  0.383  0.000  343.1  166.7  176.4    0.0
 1976 324   140  26.10  27.30  12.20  5.640  5.640  5.223  0.417  0.000  348.7  171.9  176.8    0.0
 1976 325   141  27.70  30.00  13.40  6.235  6.235  5.786  0.449  0.000  355.0  177.7  177.3    0.0
 1976 326   142  28.40  22.30  10.60  5.690  5.690  5.293  0.396  0.000  360.7  183.0  177.7    0.0
 1976 327   143  28.80  21.70   7.50  5.571  5.571  5.188  0.383  0.000  366.2  188.2  178.1    0.0
 1976 328   144  17.30  21.00   5.30  3.250  3.250  3.028  0.222  0.000  369.5  191.2  178.3    0.0
 1976 329   145   9.80  20.60  11.70  1.939  1.939  1.806  0.132  0.000  371.4  193.0  178.4    0.0
 1976 330   146  19.40  23.90  10.40  3.959  3.959  3.692  0.267  0.000  375.4  196.7  178.7    0.0
 1976 331   147  28.20  26.80   6.20  5.761  5.761  5.377  0.384  0.000  381.1  202.1  179.1    0.0
 1976 332   148  29.10  31.10  14.00  6.658  6.658  6.207  0.451  0.000  387.8  208.3  179.5    0.0
 1976 333   149  11.80  28.60  19.50  2.736  2.736  2.547  0.188  0.000  390.5  210.8  179.7    0.0
 1976 334   150   9.10  20.80  16.40  1.879  1.879  1.748  0.131  0.000  392.4  212.6  179.8    0.0
 1976 335   151  21.60  26.30  16.00  4.751  4.751  4.417  0.334  0.000  397.2  217.0  180.2    0.0
 1976 336   152  11.70  23.30  15.20  2.467  2.467  2.292  0.175  0.000  399.6  219.3  180.4    0.0
 1976 337   153  19.30  26.80  16.70  4.294  4.294  3.986  0.307  0.000  403.9  223.3  180.7    0.0
 1976 338   154  26.90  28.90  12.90  5.955  5.955  5.525  0.430  0.000  409.9  228.8  181.1    0.0
 1976 339   155  29.80  33.10  15.90  7.074  7.074  6.560  0.514  0.000  417.0  235.4  181.6    0.0
 1976 340   156  28.40  30.50  15.20  6.518  6.518  6.040  0.477  0.000  423.5  241.4  182.1    0.0
 1976 341   157  25.90  34.10  17.30  6.278  6.278  5.815  0.463  0.000  429.8  247.2  182.5    0.0
 1976 342   158  15.00  28.20  12.60  3.287  3.287  3.043  0.244  0.000  433.0  250.3  182.8    0.0
 1976 343   159  29.70  21.90   9.10  5.847  5.847  5.409  0.437  0.000  438.9  255.7  183.2    0.0
 1976 344   160  28.50  22.00   5.40  5.437  5.437  5.027  0.410  0.000  444.3  260.7  183.6    0.0
 1976 345   161  23.10  29.00  10.40  5.023  5.023  4.641  0.382  0.000  449.3  265.3  184.0    0.0
 1976 346   162  26.20  33.00  15.60  6.202  6.202  5.730  0.472  0.000  455.6  271.1  184.5    0.0
 1976 347   163  20.90  35.00  14.90  5.030  5.030  4.648  0.383  0.000  460.6  275.7  184.9    0.0
 1976 348   164  10.60  29.90  19.40  2.494  2.494  2.304  0.190  0.000  463.1  278.0  185.1    0.0
 1976 349   165   9.30  23.10  16.60  1.980  1.980  1.829  0.151  0.000  465.1  279.8  185.2    0.0
 1976 350   166   9.60  23.90  17.60  2.080  2.080  1.922  0.158  0.000  467.1  281.8  185.4    0.0
 1976 351   167  20.70  22.70  12.10  4.225  4.225  3.904  0.321  0.000  471.4  285.7  185.7    0.0
 1976 352   168  30.00  24.60   8.70  6.095  6.095  5.632  0.464  0.000  477.5  291.3  186.2    0.0
 1976 353   169  29.60  28.60  12.20  6.498  6.498  6.004  0.494  0.000  484.0  297.3  186.7    0.0
 1976 354   170  14.80  27.40  15.00  3.274  3.274  3.025  0.249  0.000  487.2  300.3  186.9    0.0
 1976 355   171  22.80  26.50  14.30  4.964  4.964  4.585  0.380  0.000  492.2  304.9  187.3    0.0
 1976 356   172  29.10  27.00  10.40  6.178  6.178  5.703  0.475  0.000  498.4  310.6  187.8    0.0
 1976 357   173  26.30  29.80  14.20  5.947  5.947  5.485  0.461  0.000  504.3  316.1  188.2    0.0
 1976 358   174  18.00  26.20  14.60  3.915  3.915  3.609  0.306  0.000  508.2  319.7  188.5    0.0
 1976 359   175  27.20  29.80  11.90  6.044  6.044  5.565  0.478  0.000  514.3  325.3  189.0    0.0
 1976 360   176  19.00  30.50  18.70  4.479  4.479  4.120  0.359  0.000  518.8  329.4  189.4    0.0
 1976 361   177  26.20  27.70  16.50  5.889  5.889  5.409  0.480  0.000  524.6  334.8  189.8    0.0
 1976 362   178  21.20  27.50  16.40  4.751  4.751  4.357  0.394  0.000  529.4  339.2  190.2    0.0
 1976 363   179  30.00  23.80  11.10  6.164  6.164  5.642  0.522  0.000  535.6  344.8  190.8    0.0
 1976 364   180  30.00  27.30   7.80  6.267  6.267  5.723  0.544  0.000  541.8  350.5  191.3    0.0
 1976 365   181  29.80  29.20  12.50  6.615  6.615  6.026  0.589  0.000  548.4  356.6  191.9    0.0
 1976 366   182   9.50  22.60  16.80  2.018  2.018  1.833  0.184  0.000  550.5  358.4  192.1    0.0
 1977 001   183  23.90  27.40  18.00  5.424  5.424  4.915  0.509  0.000  555.9  363.3  192.6    0.0
 1977 002   184  10.00  25.10  19.10  2.230  2.230  2.014  0.216  0.000  558.1  365.3  192.8    0.0
 1977 003   185  29.40  27.30  18.20  6.680  6.680  6.014  0.666  0.000  564.8  371.3  193.5    0.0
 1977 004   186  26.90  25.60  14.20  5.811  5.811  5.211  0.600  0.000  570.6  376.5  194.1    0.0
 1977 005   187  29.60  28.80  13.20  6.592  6.592  5.887  0.705  0.000  577.2  382.4  194.8    0.0
 1977 006   188  16.70  30.90  15.50  3.879  3.879  3.447  0.431  0.000  581.1  385.9  195.2    0.0
 1977 007   189  29.80  29.50  16.20  6.853  6.853  6.060  0.794  0.000  587.9  391.9  196.0    0.0
 1977 008   190  29.90  34.80  18.50  7.411  7.412  6.516  0.895  0.000  595.3  398.4  196.9    0.0
 1977 009   191  17.90  32.20  21.60  4.416  4.416  3.859  0.557  0.000  599.8  402.3  197.4    0.0
 1977 010   192  17.90  31.10  21.40  4.362  4.362  3.786  0.575  0.000  604.1  406.1  198.0    0.0
 1977 011   193  13.30  29.80  21.40  3.199  3.199  2.757  0.442  0.000  607.3  408.9  198.5    0.0
 1977 012   194  15.60  30.10  20.90  3.754  3.754  3.210  0.544  0.000  611.1  412.1  199.0    0.0
 1977 013   195  25.20  28.80  17.70  5.846  5.846  4.949  0.897  0.000  616.9  417.0  199.9    0.0
 1977 014   196  12.00  26.50  19.50  2.756  2.756  2.289  0.467  0.000  619.7  419.3  200.4    0.0
 1977 015   197  14.20  29.80  23.10  3.481  3.481  2.829  0.653  0.000  623.2  422.1  201.0    0.0
 1977 016   198  17.70  29.50  22.50  4.323  4.323  3.399  0.924  0.000  627.5  425.5  201.9    0.0
 1977 017   199  24.50  29.80  21.60  5.992  5.992  4.526  1.466  0.000  633.5  430.1  203.4    0.0
 1977 018   200  28.00  28.00  22.30  6.750  6.750  5.098  1.652  0.000  640.2  435.1  205.1    0.0
 1977 019   201  27.80  28.70  19.40  6.611  6.611  4.993  1.618  0.000  646.8  440.1  206.7    0.0

*DSSAT Cropping System Model Ver. 4.0.2.000               Aug 01, 2016; 15:14:21

*RUN   3        : UYMZ                    
 MODEL          : MZCER040 - Maize           
 EXPERIMENT     : UYMZ0102 MZ    late to create DSS                             
 TREATMENT  1   : UYMZ                    

@YEAR DOY   DAS   SRAA   TMXA   TMNA   EOAA   ETAA   EPAA   ESAA   EFAD   ETAC   EPAC   ESAC   EFAC
 1977 184     0   3.70  21.20   9.90  0.834  0.834  0.000  0.834  0.000    0.8    0.0    0.8    0.0
 1977 185     1   3.60  10.80   8.00  0.687  0.687  0.000  0.687  0.000    1.5    0.0    1.5    0.0
 1977 186     2   3.60  13.40   9.10  0.723  0.723  0.000  0.723  0.000    2.2    0.0    2.2    0.0
 1977 187     3   3.60  15.80  12.00  0.769  0.769  0.000  0.769  0.000    3.0    0.0    3.0    0.0
 1977 188     4   3.80  12.80   6.40  0.736  0.736  0.000  0.736  0.000    3.7    0.0    3.7    0.0
 1977 189     5  12.30  17.20   4.20  2.489  2.489  0.000  2.489  0.000    6.2    0.0    6.2    0.0
 1977 190     6   3.80  24.90   9.30  0.894  0.894  0.000  0.894  0.000    7.1    0.0    7.1    0.0
 1977 191     7   3.60  17.00  11.80  0.780  0.780  0.000  0.780  0.000    7.9    0.0    7.9    0.0
 1977 192     8  11.80  25.20  13.10  2.874  2.874  0.000  2.874  0.000   10.8    0.0   10.8    0.0
 1977 193     9   3.60  18.10  11.30  0.788  0.788  0.000  0.788  0.000   11.6    0.0   11.6    0.0
 1977 194    10   3.60  13.10  10.80  0.732  0.732  0.000  0.732  0.000   12.3    0.0   12.3    0.0
 1977 195    11   4.50  17.00   9.40  0.954  0.954  0.000  0.954  0.000   13.3    0.0   13.3    0.0
 1977 196    12   7.10  12.50   8.50  1.398  1.398  0.000  1.398  0.000   14.7    0.0   14.7    0.0
 1977 197    13  12.10  10.10   3.40  2.175  2.175  0.000  2.175  0.000   16.8    0.0   16.8    0.0
 1977 198    14  11.50  15.70   4.40  2.280  2.280  0.000  2.280  0.000   19.1    0.0   19.1    0.0
 1977 199    15  11.80  13.00   3.30  2.220  1.711  0.000  1.711  0.000   20.8    0.0   20.8    0.0
 1977 200    16  11.60  13.60  -0.40  2.118  2.118  0.000  2.118  0.000   22.9    0.0   22.9    0.0
 1977 201    17   3.80  15.90   2.00  0.738  0.738  0.000  0.738  0.000   23.7    0.0   23.7    0.0
 1977 202    18   4.10  17.30   9.00  0.870  0.870  0.000  0.870  0.000   24.5    0.0   24.5    0.0
 1977 203    19  11.50  18.00  10.40  2.495  2.495  0.000  2.495  0.000   27.0    0.0   27.0    0.0
 1977 204    20   3.90  14.50   9.40  0.798  0.798  0.001  0.797  0.000   27.8    0.0   27.8    0.0
 1977 205    21  10.20  14.60   6.50  2.031  2.031  0.004  2.027  0.000   29.9    0.0   29.9    0.0
 1977 206    22  12.50  18.50   2.60  2.537  2.537  0.005  2.532  0.000   32.4    0.0   32.4    0.0
 1977 207    23   6.80  16.00   9.80  1.426  1.426  0.003  1.423  0.000   33.8    0.0   33.8    0.0
 1977 208    24   4.00  16.10  12.40  0.861  0.861  0.003  0.858  0.000   34.7    0.0   34.7    0.0
 1977 209    25   4.00  16.30  12.50  0.864  0.864  0.003  0.860  0.000   35.6    0.0   35.5    0.0
 1977 210    26   6.00  17.60  13.60  1.331  1.331  0.007  1.325  0.000   36.9    0.0   36.9    0.0
 1977 211    27   4.20  17.80   7.10  0.880  0.880  0.006  0.875  0.000   37.8    0.0   37.7    0.0
 1977 212    28  13.70  14.10   3.70  2.630  2.630  0.018  2.612  0.000   40.4    0.0   40.4    0.0
 1977 213    29   8.20  12.80   1.40  1.505  1.505  0.010  1.495  0.000   41.9    0.1   41.8    0.0
 1977 214    30  14.00  12.30   2.50  2.580  2.311  0.014  2.297  0.000   44.2    0.1   44.1    0.0
 1977 215    31  12.60  15.10   0.30  2.372  2.372  0.012  2.361  0.000   46.6    0.1   46.5    0.0
 1977 216    32   7.70  17.70   7.80  1.623  1.623  0.006  1.617  0.000   48.2    0.1   48.1    0.0
 1977 217    33   5.50  15.20   5.40  1.093  1.093  0.005  1.088  0.000   49.3    0.1   49.2    0.0
 1977 218    34   4.30  14.40  10.90  0.891  0.891  0.004  0.886  0.000   50.2    0.1   50.1    0.0
 1977 219    35   4.30  15.60  12.80  0.922  0.922  0.006  0.916  0.000   51.1    0.1   51.0    0.0
 1977 220    36   9.20  17.20   9.10  1.948  1.948  0.014  1.934  0.000   53.1    0.1   52.9    0.0
 1977 221    37  12.40  15.80   4.60  2.464  2.464  0.020  2.444  0.000   55.5    0.1   55.4    0.0
 1977 222    38   5.10  15.40   7.10  1.032  1.032  0.010  1.022  0.000   56.6    0.2   56.4    0.0
 1977 223    39   4.40  16.70  13.20  0.960  0.960  0.012  0.949  0.000   57.5    0.2   57.4    0.0
 1977 224    40   6.30  15.40  11.10  1.324  1.324  0.023  1.301  0.000   58.8    0.2   58.7    0.0
 1977 225    41  14.80  14.10   7.00  2.931  2.931  0.061  2.871  0.000   61.8    0.2   61.5    0.0
 1977 226    42  14.80  14.50   5.50  2.904  2.500  0.065  2.435  0.000   64.3    0.3   64.0    0.0
 1977 227    43  15.50  15.50   1.00  2.949  2.949  0.072  2.878  0.000   67.2    0.4   66.8    0.0
 1977 228    44  15.20  16.20   0.40  2.908  1.611  0.057  1.554  0.000   68.8    0.4   68.4    0.0
 1977 229    45  15.00  18.30   1.60  3.000  1.159  0.044  1.114  0.000   70.0    0.5   69.5    0.0
 1977 230    46  12.90  14.00   3.50  2.465  0.974  0.035  0.939  0.000   71.0    0.5   70.5    0.0
 1977 231    47  15.40  18.10   0.60  3.041  0.872  0.045  0.827  0.000   71.8    0.6   71.3    0.0
 1977 232    48  15.90  21.00   0.30  3.267  0.788  0.041  0.748  0.000   72.6    0.6   72.0    0.0
 1977 233    49  13.80  22.30   6.20  3.050  0.722  0.034  0.687  0.000   73.4    0.6   72.7    0.0
 1977 234    50  10.10  19.30   8.60  2.188  0.981  0.041  0.940  0.000   74.3    0.7   73.7    0.0
 1977 235    51   7.80  17.50   8.30  1.642  0.644  0.043  0.601  0.000   75.0    0.7   74.3    0.0
 1977 236    52  12.40  19.50   4.60  2.591  0.751  0.083  0.668  0.000   75.7    0.8   74.9    0.0
 1977 237    53  16.80  21.80   5.60  3.654  0.675  0.135  0.540  0.000   76.4    0.9   75.5    0.0
 1977 238    54  16.00  22.90   6.00  3.540  0.677  0.161  0.516  0.000   77.1    1.1   76.0    0.0
 1977 239    55   6.20  15.80  10.00  1.289  0.766  0.071  0.695  0.000   77.8    1.2   76.7    0.0
 1977 240    56  17.00  19.90   5.20  3.576  0.698  0.222  0.477  0.000   78.5    1.4   77.2    0.0
 1977 241    57   7.00  21.00   8.50  1.538  0.566  0.107  0.460  0.000   79.1    1.5   77.6    0.0
 1977 242    58  13.20  23.00  12.30  3.072  0.789  0.244  0.545  0.000   79.9    1.7   78.2    0.0
 1977 243    59  17.70  16.00   4.00  3.462  0.761  0.330  0.431  0.000   80.7    2.1   78.6    0.0
 1977 244    60  17.60  14.80   2.10  3.315  0.737  0.318  0.418  0.000   81.4    2.4   79.0    0.0
 1977 245    61  17.50  17.70   0.80  3.406  0.696  0.289  0.407  0.000   82.1    2.7   79.4    0.0
 1977 246    62  17.90  20.30   2.50  3.689  0.641  0.245  0.396  0.000   82.7    2.9   79.8    0.0
 1977 247    63   9.70  19.40   5.30  2.027  0.520  0.133  0.387  0.000   83.3    3.1   80.2    0.0
 1977 248    64   7.30  18.80   8.30  1.553  0.692  0.115  0.578  0.000   84.0    3.2   80.8    0.0
 1977 249    65   7.00  17.10  13.20  1.519  1.519  0.128  1.391  0.000   85.5    3.3   82.2    0.0
 1977 250    66  13.40  22.40   9.60  3.016  3.016  0.297  2.719  0.000   88.5    3.6   84.9    0.0
 1977 251    67  18.00  25.30  10.40  4.220  4.220  0.489  3.731  0.000   92.7    4.1   88.6    0.0
 1977 252    68  14.30  30.70  15.00  3.692  3.328  0.513  2.815  0.000   96.0    4.6   91.4    0.0
 1977 253    69   5.80  18.50  13.30  1.267  1.267  0.218  1.049  0.000   97.3    4.8   92.5    0.0
 1977 254    70   5.80  18.90  13.30  1.271  1.271  0.235  1.036  0.000   98.6    5.1   93.5    0.0
 1977 255    71  10.30  22.90  13.20  2.369  2.369  0.473  1.895  0.000  100.9    5.5   95.4    0.0
 1977 256    72   5.90  17.30  16.50  1.296  1.296  0.277  1.019  0.000  102.2    5.8   96.4    0.0
 1977 257    73   6.00  18.40  14.80  1.315  1.315  0.303  1.012  0.000  103.6    6.1   97.4    0.0
 1977 258    74   6.40  17.50  14.20  1.375  1.375  0.337  1.038  0.000  104.9    6.4   98.5    0.0
 1977 259    75   9.50  20.40  14.50  2.120  2.120  0.556  1.564  0.000  107.0    7.0  100.0    0.0
 1977 260    76   9.70  19.60  10.60  2.065  2.065  0.582  1.483  0.000  109.1    7.6  101.5    0.0
 1977 261    77  20.60  19.60   8.60  4.296  4.296  1.284  3.012  0.000  113.4    8.9  104.5    0.0
 1977 262    78  20.10  21.00   5.60  4.146  3.029  1.311  1.718  0.000  116.4   10.2  106.3    0.0
 1977 263    79  16.80  23.50  12.60  3.794  3.478  1.274  2.204  0.000  119.9   11.5  108.5    0.0
 1977 264    80  14.80  25.10  14.00  3.431  2.608  1.263  1.345  0.000  122.5   12.7  109.8    0.0
 1977 265    81  16.60  29.10  16.20  4.080  2.716  1.652  1.064  0.000  125.2   14.4  110.9    0.0
 1977 266    82  17.60  19.30  10.70  3.641  3.641  1.636  2.006  0.000  128.9   16.0  112.9    0.0
 1977 267    83  16.10  19.30   7.80  3.235  3.235  1.518  1.716  0.000  132.1   17.5  114.6    0.0
 1977 268    84  18.90  23.10   7.70  3.983  3.983  1.932  2.051  0.000  136.1   19.5  116.6    0.0
 1977 269    85  21.40  27.10  10.00  4.817  3.964  2.456  1.508  0.000  140.1   21.9  118.1    0.0
 1977 270    86  18.70  29.40  12.70  4.398  4.398  2.388  2.010  0.000  144.5   24.3  120.2    0.0
 1977 271    87   6.70  17.50   8.50  1.299  1.299  0.755  0.544  0.000  145.8   25.1  120.7    0.0
 1977 272    88  20.70  18.60   5.10  3.941  3.941  2.342  1.599  0.000  149.7   27.4  122.3    0.0
 1977 273    89  22.20  18.80   4.80  4.221  4.221  2.547  1.674  0.000  153.9   29.9  124.0    0.0
 1977 274    90   9.70  22.40   9.20  2.014  2.014  1.229  0.785  0.000  155.9   31.2  124.8    0.0
 1977 275    91  13.60  21.30  14.90  2.914  2.914  1.834  1.080  0.000  158.8   33.0  125.8    0.0
 1977 276    92  15.90  21.50  15.00  3.406  3.406  2.225  1.181  0.000  162.3   35.2  127.0    0.0
 1977 277    93  23.10  22.60  11.40  4.852  4.852  3.279  1.572  0.000  167.1   38.5  128.6    0.0
 1977 278    94  17.80  24.50   8.60  3.730  3.730  2.590  1.140  0.000  170.8   41.1  129.7    0.0
 1977 279    95  19.60  29.80  18.50  4.717  4.717  3.354  1.364  0.000  175.6   44.5  131.1    0.0
 1977 280    96  23.40  32.10  17.20  5.696  5.347  4.217  1.130  0.000  180.9   48.7  132.2    0.0
 1977 281    97   7.10  23.00  17.50  1.555  1.555  1.193  0.362  0.000  182.5   49.9  132.6    0.0
 1977 282    98   7.20  19.30  16.00  1.485  1.485  1.157  0.327  0.000  183.9   51.0  132.9    0.0
 1977 283    99   7.20  15.30  10.00  1.331  1.331  1.052  0.278  0.000  185.3   52.1  133.2    0.0
 1977 284   100  11.20  14.40   8.40  2.011  2.011  1.602  0.409  0.000  187.3   53.7  133.6    0.0
 1977 285   101  16.90  17.60   4.80  3.069  3.069  2.450  0.619  0.000  190.3   56.1  134.2    0.0
 1977 286   102  21.90  22.50   9.90  4.455  4.455  3.553  0.901  0.000  194.8   59.7  135.1    0.0
 1977 287   103   7.70  20.00  16.40  1.601  1.601  1.293  0.308  0.000  196.4   61.0  135.4    0.0
 1977 288   104   9.60  18.80  11.50  1.881  1.881  1.537  0.344  0.000  198.3   62.5  135.8    0.0
 1977 289   105  25.30  19.80  10.00  4.954  4.954  4.073  0.880  0.000  203.2   66.6  136.7    0.0
 1977 290   106  25.20  22.50   7.60  5.003  5.003  4.141  0.861  0.000  208.2   70.7  137.5    0.0
 1977 291   107  24.90  24.50  11.00  5.216  5.216  4.352  0.864  0.000  213.5   75.1  138.4    0.0
 1977 292   108  25.60  26.80  11.20  5.518  5.518  4.658  0.859  0.000  219.0   79.7  139.2    0.0
 1977 293   109  25.80  28.30  13.90  5.774  5.774  4.936  0.838  0.000  224.7   84.7  140.1    0.0
 1977 294   110  23.50  32.30  14.70  5.528  5.528  4.790  0.737  0.000  230.3   89.5  140.8    0.0
 1977 295   111  23.40  30.90  14.60  5.405  5.405  4.753  0.652  0.000  235.7   94.2  141.5    0.0
 1977 296   112  16.30  26.20  16.60  3.614  3.588  3.242  0.346  0.000  239.3   97.5  141.8    0.0
 1977 297   113   9.20  24.10  20.30  2.046  2.046  1.851  0.195  0.000  241.3   99.3  142.0    0.0
 1977 298   114  10.10  24.80  17.80  2.220  2.220  2.015  0.205  0.000  243.5  101.3  142.2    0.0
 1977 299   115  11.70  20.70  16.20  2.415  2.415  2.197  0.218  0.000  246.0  103.5  142.4    0.0
 1977 300   116  17.50  24.20  15.40  3.745  3.745  3.417  0.328  0.000  249.7  106.9  142.8    0.0
 1977 301   117  14.70  24.40  13.70  3.109  3.109  2.846  0.263  0.000  252.8  109.8  143.0    0.0
 1977 302   118  19.50  26.60  18.10  4.382  4.382  4.021  0.361  0.000  257.2  113.8  143.4    0.0
 1977 303   119  22.50  32.60  16.20  5.329  5.329  4.904  0.425  0.000  262.5  118.7  143.8    0.0
 1977 304   120  11.10  26.90  18.10  2.501  2.501  2.308  0.193  0.000  265.0  121.0  144.0    0.0
 1977 305   121  11.00  21.80  16.40  2.301  2.301  2.125  0.176  0.000  267.3  123.1  144.2    0.0
 1977 306   122  23.50  25.60  14.10  5.054  5.054  4.668  0.386  0.000  272.4  127.8  144.6    0.0
 1977 307   123  23.70  20.80  11.00  4.676  4.676  4.322  0.354  0.000  277.0  132.1  144.9    0.0
 1977 308   124  26.10  23.30  10.40  5.292  5.292  4.889  0.403  0.000  282.3  137.0  145.3    0.0
 1977 309   125  24.00  23.50  10.80  4.895  4.895  4.521  0.374  0.000  287.2  141.5  145.7    0.0
 1977 310   126  20.90  23.50  16.00  4.450  4.450  4.109  0.341  0.000  291.7  145.6  146.0    0.0
 1977 311   127  20.60  25.90  15.50  4.496  4.496  4.153  0.343  0.000  296.2  149.8  146.4    0.0
 1977 312   128  12.80  28.10  14.70  2.848  2.848  2.632  0.216  0.000  299.0  152.4  146.6    0.0
 1977 313   129  25.70  22.00  13.80  5.274  5.274  4.876  0.398  0.000  304.3  157.3  147.0    0.0
 1977 314   130   8.60  19.90  11.90  1.691  1.691  1.559  0.132  0.000  306.0  158.9  147.1    0.0
 1977 315   131  22.50  26.10  11.40  4.766  4.766  4.381  0.385  0.000  310.8  163.3  147.5    0.0
 1977 316   132  27.10  20.00   6.90  5.105  5.105  4.683  0.422  0.000  315.9  167.9  147.9    0.0
 1977 317   133  28.00  22.60   3.90  5.319  5.319  4.869  0.450  0.000  321.2  172.8  148.4    0.0
 1977 318   134  27.90  26.40   8.20  5.789  5.789  5.242  0.546  0.000  327.0  178.0  148.9    0.0
 1977 319   135  26.90  29.70  12.00  5.989  5.989  5.412  0.576  0.000  333.0  183.5  149.5    0.0
 1977 320   136  27.30  32.10  13.00  6.296  6.296  5.679  0.617  0.000  339.3  189.1  150.1    0.0
 1977 321   137  22.80  33.00  13.20  5.320  5.320  4.790  0.530  0.000  344.6  193.9  150.7    0.0
 1977 322   138  26.50  34.30  20.10  6.590  6.590  5.923  0.667  0.000  351.2  199.8  151.3    0.0
 1977 323   139  13.60  25.30  17.60  3.007  3.007  2.698  0.309  0.000  354.2  202.5  151.6    0.0
 1977 324   140  28.30  26.40  13.00  6.114  6.114  5.478  0.636  0.000  360.3  208.0  152.3    0.0
 1977 325   141   8.70  19.20  14.60  1.742  1.742  1.558  0.183  0.000  362.0  209.6  152.4    0.0
 1977 326   142  28.40  24.70  10.20  5.875  5.875  5.250  0.625  0.000  367.9  214.8  153.1    0.0
 1977 327   143  26.30  24.70   7.70  5.328  5.328  4.755  0.573  0.000  373.2  219.6  153.6    0.0
 1977 328   144  23.00  25.80  12.10  4.901  4.901  4.368  0.532  0.000  378.1  224.0  154.2    0.0
 1977 329   145  26.70  26.50  12.10  5.738  5.738  5.110  0.629  0.000  383.9  229.1  154.8    0.0
 1977 330   146  28.00  33.50  18.20  6.822  6.822  6.067  0.754  0.000  390.7  235.1  155.6    0.0
 1977 331   147  19.40  25.10  13.80  4.157  4.157  3.692  0.465  0.000  394.9  238.8  156.0    0.0
 1977 332   148  28.90  27.50   9.80  6.174  6.174  5.474  0.700  0.000  401.0  244.3  156.7    0.0
 1977 333   149  29.00  28.70  13.60  6.478  6.478  5.732  0.746  0.000  407.5  250.0  157.5    0.0
 1977 334   150  29.00  31.70  11.90  6.620  6.620  5.845  0.775  0.000  414.1  255.9  158.2    0.0
 1977 335   151  20.30  30.80  18.90  4.834  4.834  4.258  0.576  0.000  419.0  260.1  158.8    0.0
 1977 336   152   9.20  26.00  21.20  2.113  2.113  1.857  0.257  0.000  421.1  262.0  159.1    0.0
 1977 337   153  22.30  30.20  21.60  5.384  5.384  4.715  0.668  0.000  426.5  266.7  159.7    0.0
 1977 338   154  28.80  30.20  17.20  6.736  6.736  5.880  0.856  0.000  433.2  272.6  160.6    0.0
 1977 339   155  15.80  28.40  18.70  3.664  3.664  3.187  0.477  0.000  436.9  275.8  161.1    0.0
 1977 340   156  24.20  24.90  11.30  5.084  5.084  4.405  0.680  0.000  441.9  280.2  161.8    0.0
 1977 341   157  29.30  26.40   8.70  6.141  6.141  5.295  0.846  0.000  448.1  285.5  162.6    0.0
 1977 342   158  29.70  26.90   7.80  6.221  6.221  5.337  0.884  0.000  454.3  290.8  163.5    0.0
 1977 343   159  29.70  29.50  10.30  6.556  6.556  5.594  0.962  0.000  460.9  296.4  164.5    0.0
 1977 344   160  29.70  32.10  13.00  6.901  6.901  5.856  1.045  0.000  467.8  302.3  165.5    0.0
 1977 345   161  28.00  31.50  14.50  6.540  6.540  5.516  1.024  0.000  474.3  307.8  166.5    0.0
 1977 346   162  20.10  32.70  15.30  4.789  4.789  4.013  0.776  0.000  479.1  311.8  167.3    0.0
 1977 347   163  29.40  28.60  16.00  6.732  6.732  5.600  1.132  0.000  485.8  317.4  168.4    0.0
 1977 348   164  25.90  27.80  15.00  5.837  5.837  4.817  1.019  0.000  491.7  322.2  169.4    0.0
 1977 349   165  28.10  29.20  18.80  6.628  6.628  5.424  1.205  0.000  498.3  327.6  170.7    0.0
 1977 350   166  10.60  30.20  18.70  2.529  2.529  2.050  0.479  0.000  500.8  329.7  171.1    0.0
 1977 351   167  28.10  32.00  20.40  6.929  6.929  5.561  1.367  0.000  507.7  335.2  172.5    0.0
 1977 352   168  25.60  34.30  20.20  6.466  6.466  5.134  1.332  0.000  514.2  340.4  173.8    0.0
 1977 353   169  12.40  30.50  17.80  2.960  2.960  2.324  0.636  0.000  517.2  342.7  174.5    0.0
 1977 354   170   9.20  21.50  15.20  1.939  1.939  1.503  0.436  0.000  519.1  344.2  174.9    0.0
 1977 355   171  28.90  25.40  11.60  6.214  6.214  4.753  1.461  0.000  525.3  349.0  176.4    0.0
 1977 356   172  29.30  24.90   9.20  6.147  6.147  4.637  1.511  0.000  531.5  353.6  177.9    0.0
 1977 357   173  28.60  24.90  11.20  6.111  6.111  4.543  1.568  0.000  537.6  358.1  179.4    0.0
 1977 358   174  21.10  26.00  15.90  4.753  4.733  3.479  1.254  0.000  542.3  361.6  180.7    0.0
 1977 359   175  23.70  30.70  15.90  5.644  5.644  4.064  1.580  0.000  548.0  365.7  182.3    0.0
 1977 360   176  22.30  31.60  17.10  5.421  5.421  3.836  1.586  0.000  553.4  369.5  183.9    0.0
 1977 361   177  24.50  35.10  20.80  6.387  6.387  4.434  1.952  0.000  559.8  374.0  185.8    0.0
 1977 362   178  11.00  28.70  18.40  2.625  2.625  1.787  0.838  0.000  562.4  375.7  186.7    0.0
 1977 363   179  29.50  27.30  13.70  6.697  6.697  4.464  2.233  0.000  569.1  380.2  188.9    0.0
 1977 364   180  11.30  24.50  17.20  2.557  2.557  1.667  0.890  0.000  571.6  381.9  189.8    0.0
 1977 365   181  29.70  25.70  12.60  6.585  6.585  4.197  2.388  0.000  578.2  386.1  192.2    0.0
 1978 001   182  28.50  26.90  11.20  6.354  5.590  3.954  1.635  0.000  583.8  390.0  193.8    0.0
 1978 002   183  27.40  25.90  10.50  6.014  6.014  3.653  2.360  0.000  589.8  393.7  196.2    0.0
 1978 003   184  27.60  27.70  11.00  6.231  5.139  3.691  1.448  0.000  595.0  397.4  197.6    0.0
 1978 004   185  29.60  32.40  16.20  7.337  5.458  4.347  1.112  0.000  600.4  401.7  198.7    0.0
 1978 005   186  25.90  32.10  17.10  6.441  4.753  3.816  0.937  0.000  605.2  405.5  199.7    0.0
 1978 006   187  20.60  32.00  19.90  5.221  5.221  3.093  2.128  0.000  610.4  408.6  201.8    0.0

*DSSAT Cropping System Model Ver. 4.0.2.000               Aug 01, 2016; 15:14:21

*RUN   4        : UYMZ                    
 MODEL          : MZCER040 - Maize           
 EXPERIMENT     : UYMZ0102 MZ    late to create DSS                             
 TREATMENT  1   : UYMZ                    

@YEAR DOY   DAS   SRAA   TMXA   TMNA   EOAA   ETAA   EPAA   ESAA   EFAD   ETAC   EPAC   ESAC   EFAC
 1978 184     0   4.10  18.00   9.00  0.878  0.878  0.000  0.878  0.000    0.9    0.0    0.9    0.0
 1978 185     1   5.10  17.80   8.60  1.085  0.674  0.000  0.674  0.000    1.6    0.0    1.6    0.0
 1978 186     2   4.50  18.60  12.50  1.003  1.003  0.000  1.003  0.000    2.6    0.0    2.6    0.0
 1978 187     3   3.60  14.10  10.50  0.740  0.740  0.000  0.740  0.000    3.3    0.0    3.3    0.0
 1978 188     4   3.60  16.20  10.20  0.760  0.760  0.000  0.760  0.000    4.1    0.0    4.1    0.0
 1978 189     5   7.90  24.50  14.30  1.927  1.927  0.000  1.927  0.000    6.0    0.0    6.0    0.0
 1978 190     6   4.50  19.90  12.00  1.016  1.016  0.000  1.016  0.000    7.0    0.0    7.0    0.0
 1978 191     7   3.60  16.20  10.00  0.759  0.759  0.000  0.759  0.000    7.8    0.0    7.8    0.0
 1978 192     8   8.50  20.40   9.00  1.881  1.881  0.000  1.881  0.000    9.6    0.0    9.6    0.0
 1978 193     9  12.00  20.90   6.60  2.616  2.233  0.000  2.233  0.000   11.9    0.0   11.9    0.0
 1978 194    10  10.90  22.70   7.00  2.443  2.443  0.000  2.443  0.000   14.3    0.0   14.3    0.0
 1978 195    11   5.10  21.40   8.80  1.142  1.142  0.000  1.142  0.000   15.5    0.0   15.5    0.0
 1978 196    12   4.20  19.40  13.40  0.953  0.953  0.000  0.953  0.000   16.4    0.0   16.4    0.0
 1978 197    13  11.60  18.20   9.20  2.495  2.053  0.004  2.049  0.000   18.5    0.0   18.5    0.0
 1978 198    14   3.90  16.40   6.40  0.797  0.797  0.002  0.795  0.000   19.3    0.0   19.3    0.0
 1978 199    15  11.50  16.40   5.40  2.326  2.135  0.007  2.128  0.000   21.4    0.0   21.4    0.0
 1978 200    16   4.00  11.80   6.40  0.762  0.762  0.003  0.760  0.000   22.2    0.0   22.1    0.0
 1978 201    17   4.00  12.80   4.40  0.758  0.758  0.003  0.756  0.000   22.9    0.0   22.9    0.0
 1978 202    18   4.90  14.40   6.00  0.968  0.968  0.003  0.964  0.000   23.9    0.0   23.9    0.0
 1978 203    19  12.80  15.10   5.50  2.542  2.339  0.010  2.329  0.000   26.2    0.0   26.2    0.0
 1978 204    20   5.30  16.20   4.00  1.054  1.054  0.005  1.049  0.000   27.3    0.0   27.2    0.0
 1978 205    21  11.20  14.60   1.80  2.125  1.142  0.010  1.132  0.000   28.4    0.0   28.4    0.0
 1978 206    22   5.00  20.40   5.50  1.071  0.954  0.004  0.950  0.000   29.4    0.0   29.3    0.0
 1978 207    23   4.00  10.20   8.20  0.757  0.757  0.004  0.754  0.000   30.1    0.1   30.1    0.0
 1978 208    24   4.00  14.80   8.40  0.813  0.813  0.004  0.809  0.000   30.9    0.1   30.9    0.0
 1978 209    25   4.00  15.90  11.80  0.853  0.853  0.005  0.848  0.000   31.8    0.1   31.7    0.0
 1978 210    26   6.10  14.00   6.60  1.204  1.204  0.008  1.196  0.000   33.0    0.1   32.9    0.0
 1978 211    27  11.40  14.00   3.20  2.174  2.174  0.015  2.158  0.000   35.2    0.1   35.1    0.0
 1978 212    28   4.10  16.60  10.20  0.870  0.870  0.006  0.864  0.000   36.0    0.1   36.0    0.0
 1978 213    29  10.20  22.30  14.60  2.424  2.424  0.019  2.405  0.000   38.5    0.1   38.4    0.0
 1978 214    30  10.30  23.90  16.00  2.524  2.524  0.026  2.499  0.000   41.0    0.1   40.9    0.0
 1978 215    31  12.90  26.60  10.80  3.128  2.251  0.058  2.193  0.000   43.2    0.2   43.0    0.0
 1978 216    32  12.50  28.10  15.40  3.195  2.513  0.090  2.424  0.000   45.8    0.3   45.5    0.0
 1978 217    33  11.30  27.00  17.50  2.893  1.503  0.120  1.383  0.000   47.3    0.4   46.9    0.0
 1978 218    34   4.30  15.20  10.20  0.888  0.888  0.051  0.837  0.000   48.1    0.5   47.7    0.0
 1978 219    35   4.30  13.20  10.70  0.866  0.866  0.054  0.812  0.000   49.0    0.5   48.5    0.0
 1978 220    36   4.30  12.40   8.90  0.840  0.840  0.056  0.784  0.000   49.9    0.6   49.3    0.0
 1978 221    37   8.70  18.70  10.70  1.891  1.891  0.131  1.759  0.000   51.7    0.7   51.0    0.0
 1978 222    38  10.80  27.40  10.60  2.617  2.406  0.203  2.203  0.000   54.1    0.9   53.2    0.0
 1978 223    39  14.00  15.00   5.20  2.731  2.731  0.251  2.480  0.000   56.9    1.2   55.7    0.0
 1978 224    40  11.00  12.10   3.60  2.018  1.874  0.191  1.683  0.000   58.8    1.3   57.4    0.0
 1978 225    41   5.20  11.40   1.80  0.926  0.926  0.084  0.842  0.000   59.7    1.4   58.3    0.0
 1978 226    42  14.80  15.20   4.30  2.877  2.464  0.216  2.248  0.000   62.1    1.6   60.5    0.0
 1978 227    43  12.70  17.90   3.60  2.552  1.092  0.194  0.898  0.000   63.2    1.8   61.4    0.0
 1978 228    44  15.30  19.50   3.30  3.137  1.038  0.239  0.799  0.000   64.3    2.1   62.2    0.0
 1978 229    45  13.70  20.40   5.10  2.893  0.948  0.221  0.727  0.000   65.2    2.3   62.9    0.0
 1978 230    46  12.90  14.70   2.50  2.440  0.876  0.205  0.671  0.000   66.1    2.5   63.6    0.0
 1978 231    47  12.30  11.70   1.20  2.190  0.793  0.167  0.626  0.000   66.9    2.7   64.2    0.0
 1978 232    48   4.80  14.40   0.80  0.891  0.643  0.053  0.590  0.000   67.5    2.7   64.8    0.0
 1978 233    49   5.70  16.30   8.20  1.175  1.111  0.053  1.059  0.000   68.6    2.8   65.9    0.0
 1978 234    50  12.00  19.00   6.40  2.524  1.570  0.130  1.440  0.000   70.2    2.9   67.3    0.0
 1978 235    51  16.50  13.60   3.30  3.105  0.736  0.187  0.549  0.000   71.0    3.1   67.9    0.0
 1978 236    52  14.70  17.10   3.60  2.927  0.695  0.171  0.524  0.000   71.6    3.3   68.4    0.0
 1978 237    53  16.20  18.60   1.50  3.229  0.696  0.194  0.502  0.000   72.3    3.5   68.9    0.0
 1978 238    54   5.10  13.60  11.00  1.038  0.537  0.055  0.482  0.000   72.9    3.5   69.4    0.0
 1978 239    55   6.60  18.10  11.00  1.429  1.429  0.087  1.342  0.000   74.3    3.6   70.7    0.0
 1978 240    56   9.40  20.70   8.80  2.062  2.062  0.151  1.911  0.000   76.4    3.7   72.6    0.0
 1978 241    57  11.40  19.00   9.40  2.452  2.452  0.213  2.239  0.000   78.8    4.0   74.9    0.0
 1978 242    58  12.50  12.10   8.10  2.403  2.403  0.225  2.178  0.000   81.2    4.2   77.0    0.0
 1978 243    59  17.20  15.70   0.00  3.214  3.126  0.310  2.816  0.000   84.4    4.5   79.9    0.0
 1978 244    60  15.90  20.30   2.60  3.281  3.281  0.214  3.067  0.000   87.6    4.7   82.9    0.0
 1978 245    61  16.30  13.10   2.30  3.009  1.741  0.199  1.542  0.000   89.4    4.9   84.5    0.0
 1978 246    62  15.60  16.80   0.30  2.991  1.330  0.178  1.152  0.000   90.7    5.1   85.6    0.0
 1978 247    63   5.50  14.20  10.00  1.119  1.010  0.050  0.961  0.000   91.7    5.1   86.6    0.0
 1978 248    64   9.00  18.20  12.40  1.975  1.975  0.122  1.853  0.000   93.7    5.3   88.4    0.0
 1978 249    65  16.70  20.10  10.00  3.673  3.673  0.267  3.407  0.000   97.4    5.5   91.8    0.0
 1978 250    66  11.10  20.30   9.00  2.417  1.840  0.235  1.605  0.000   99.2    5.8   93.4    0.0
 1978 251    67  17.10  20.20   8.00  3.675  3.675  0.433  3.242  0.000  102.9    6.2   96.7    0.0
 1978 252    68  19.00  19.40   5.70  3.944  3.615  0.529  3.086  0.000  106.5    6.7   99.8    0.0
 1978 253    69  19.30  19.70   4.40  3.966  3.628  0.587  3.041  0.000  110.1    7.3  102.8    0.0
 1978 254    70  19.50  16.60   2.60  3.759  2.034  0.594  1.440  0.000  112.2    7.9  104.3    0.0
 1978 255    71  14.70  18.20   4.60  2.963  1.546  0.438  1.108  0.000  113.7    8.3  105.4    0.0
 1978 256    72   5.90  15.80  11.40  1.224  1.127  0.192  0.935  0.000  114.8    8.5  106.3    0.0
 1978 257    73   6.00  16.00   7.80  1.201  1.201  0.227  0.974  0.000  116.0    8.8  107.3    0.0
 1978 258    74  19.60  19.30   4.60  3.981  3.552  0.800  2.752  0.000  119.6    9.6  110.0    0.0
 1978 259    75  20.00  21.10   4.20  4.142  3.802  0.886  2.916  0.000  123.4   10.4  112.9    0.0
 1978 260    76  12.70  28.40  11.40  3.065  2.129  0.696  1.433  0.000  125.5   11.1  114.4    0.0
 1978 261    77   6.20  20.40  15.70  1.397  1.397  0.374  1.023  0.000  126.9   11.5  115.4    0.0
 1978 262    78   6.40  21.30  15.80  1.455  1.363  0.419  0.944  0.000  128.3   11.9  116.3    0.0
 1978 263    79   6.30  18.30   7.80  1.278  1.278  0.400  0.879  0.000  129.5   12.3  117.2    0.0
 1978 264    80  20.30  23.30   8.30  4.414  4.414  1.451  2.963  0.000  134.0   13.8  120.2    0.0
 1978 265    81  14.40  23.30   7.90  3.107  2.949  1.111  1.837  0.000  136.9   14.9  122.0    0.0
 1978 266    82   8.50  24.00  17.20  1.991  1.991  0.760  1.231  0.000  138.9   15.7  123.2    0.0
 1978 267    83   6.50  21.60  18.40  1.485  1.485  0.624  0.861  0.000  140.4   16.3  124.1    0.0
 1978 268    84  18.60  24.40  17.30  4.337  3.822  1.947  1.875  0.000  144.2   18.2  126.0    0.0
 1978 269    85  19.40  26.60  17.50  4.617  3.549  2.283  1.266  0.000  147.8   20.5  127.2    0.0
 1978 270    86   9.60  23.20  14.70  2.131  2.131  1.150  0.981  0.000  149.9   21.7  128.2    0.0
 1978 271    87  20.40  20.20  11.20  4.211  4.211  2.410  1.802  0.000  154.1   24.1  130.0    0.0
 1978 272    88  21.30  20.60   7.80  4.275  4.275  2.536  1.739  0.000  158.4   26.6  131.8    0.0
 1978 273    89  17.10  24.90   9.40  3.672  3.672  2.237  1.435  0.000  162.0   28.8  133.2    0.0
 1978 274    90   6.80  21.60  16.00  1.475  1.475  0.933  0.543  0.000  163.5   29.8  133.7    0.0
 1978 275    91   6.80  16.10  15.90  1.369  1.369  0.894  0.475  0.000  164.9   30.7  134.2    0.0
 1978 276    92   6.90  18.20  14.00  1.401  1.401  0.940  0.461  0.000  166.3   31.6  134.7    0.0
 1978 277    93  14.00  25.60  16.00  3.162  3.162  2.174  0.988  0.000  169.5   33.8  135.7    0.0
 1978 278    94  10.10  22.40  15.00  2.169  2.169  1.546  0.623  0.000  171.6   35.3  136.3    0.0
 1978 279    95  12.10  22.40  14.90  2.590  2.590  1.889  0.701  0.000  174.2   37.2  137.0    0.0
 1978 280    96   7.80  20.70  16.40  1.651  1.651  1.233  0.418  0.000  175.9   38.5  137.4    0.0
 1978 281    97   7.10  20.20  17.00  1.497  1.497  1.140  0.357  0.000  177.4   39.6  137.8    0.0
 1978 282    98  10.20  23.30  15.60  2.206  2.206  1.707  0.499  0.000  179.6   41.3  138.3    0.0
 1978 283    99  21.30  23.80  11.50  4.474  4.474  3.507  0.967  0.000  184.0   44.8  139.2    0.0
 1978 284   100  14.40  22.80  11.60  2.984  2.984  2.374  0.610  0.000  187.0   47.2  139.8    0.0
 1978 285   101   8.80  20.00  13.80  1.790  1.790  1.445  0.345  0.000  188.8   48.6  140.2    0.0
 1978 286   102   7.30  15.70  12.70  1.386  1.386  1.134  0.253  0.000  190.2   49.8  140.4    0.0
 1978 287   103  18.30  20.40   7.80  3.540  3.540  2.919  0.621  0.000  193.7   52.7  141.1    0.0
 1978 288   104  22.50  22.40   5.50  4.376  4.376  3.637  0.740  0.000  198.1   56.3  141.8    0.0
 1978 289   105  22.20  21.70  10.10  4.451  4.451  3.727  0.724  0.000  202.6   60.0  142.5    0.0
 1978 290   106  24.90  23.90   7.90  5.035  5.035  4.255  0.779  0.000  207.6   64.3  143.3    0.0
 1978 291   107  19.20  23.00   9.20  3.876  3.876  3.305  0.571  0.000  211.5   67.6  143.9    0.0
 1978 292   108  17.40  22.70  10.80  3.544  3.544  3.048  0.497  0.000  215.0   70.6  144.4    0.0
 1978 293   109  12.30  21.60  14.30  2.542  2.542  2.205  0.337  0.000  217.6   72.9  144.7    0.0
 1978 294   110  24.50  25.60  10.60  5.155  5.155  4.513  0.642  0.000  222.7   77.4  145.4    0.0
 1978 295   111  24.70  26.10  13.10  5.331  5.331  4.708  0.623  0.000  228.1   82.1  146.0    0.0
 1978 296   112  21.30  26.20  15.50  4.678  4.678  4.222  0.456  0.000  232.7   86.3  146.4    0.0
 1978 297   113   8.10  22.90  16.00  1.714  1.714  1.566  0.149  0.000  234.4   87.9  146.6    0.0
 1978 298   114  22.70  24.90  14.40  4.857  4.857  4.450  0.407  0.000  239.3   92.3  147.0    0.0
 1978 299   115   8.40  20.90  15.70  1.728  1.728  1.593  0.135  0.000  241.0   93.9  147.1    0.0
 1978 300   116  21.40  25.60  15.70  4.661  4.661  4.307  0.354  0.000  245.7   98.2  147.5    0.0
 1978 301   117  24.90  28.20  12.90  5.467  5.467  5.076  0.390  0.000  251.2  103.3  147.9    0.0
 1978 302   118  15.50  23.20  15.90  3.282  3.282  3.060  0.222  0.000  254.4  106.3  148.1    0.0
 1978 303   119  26.90  20.80   5.10  5.027  5.027  4.702  0.325  0.000  259.5  111.1  148.4    0.0
 1978 304   120  27.20  22.60   9.30  5.406  5.406  5.057  0.349  0.000  264.9  116.1  148.8    0.0
 1978 305   121  27.00  23.20   8.80  5.383  5.383  5.045  0.339  0.000  270.3  121.2  149.1    0.0
 1978 306   122  25.90  25.20  11.00  5.394  5.394  5.063  0.331  0.000  275.7  126.2  149.4    0.0
 1978 307   123  12.40  22.00  11.90  2.499  2.499  2.350  0.149  0.000  278.1  128.6  149.6    0.0
 1978 308   124  27.40  24.00  11.80  5.657  5.657  5.329  0.329  0.000  283.8  133.9  149.9    0.0
 1978 309   125  27.10  29.10  11.00  5.913  5.913  5.578  0.335  0.000  289.7  139.5  150.2    0.0
 1978 310   126  27.40  22.20  10.40  5.462  5.462  5.163  0.299  0.000  295.2  144.6  150.5    0.0
 1978 311   127  27.60  21.60   6.60  5.279  5.279  4.995  0.284  0.000  300.5  149.6  150.8    0.0
 1978 312   128  17.50  27.90  11.40  3.774  3.774  3.573  0.201  0.000  304.2  153.2  151.0    0.0
 1978 313   129   9.20  18.60  15.00  1.821  1.821  1.726  0.094  0.000  306.1  154.9  151.1    0.0
 1978 314   130  24.10  25.00  13.60  5.108  5.108  4.847  0.261  0.000  311.2  159.8  151.4    0.0
 1978 315   131  20.60  22.90  10.70  4.151  4.151  3.945  0.207  0.000  315.3  163.7  151.6    0.0
 1978 316   132  26.80  19.00   8.20  5.017  5.017  4.771  0.246  0.000  320.3  168.5  151.8    0.0
 1978 317   133  26.70  19.00   5.60  4.879  4.879  4.641  0.238  0.000  325.2  173.1  152.1    0.0
 1978 318   134  23.60  19.60   4.90  4.321  4.321  4.110  0.211  0.000  329.5  177.2  152.3    0.0
 1978 319   135  27.10  23.50   6.40  5.303  5.303  5.039  0.264  0.000  334.8  182.3  152.6    0.0
 1978 320   136  23.80  28.00  15.80  5.316  5.316  5.054  0.263  0.000  340.2  187.3  152.8    0.0
 1978 321   137  12.30  25.40  18.20  2.716  2.716  2.580  0.136  0.000  342.9  189.9  153.0    0.0
 1978 322   138   9.10  24.00  17.20  1.961  1.961  1.861  0.100  0.000  344.8  191.8  153.1    0.0
 1978 323   139  22.40  28.50  15.00  5.003  5.003  4.746  0.257  0.000  349.8  196.5  153.3    0.0
 1978 324   140   8.90  24.80  18.00  1.949  1.949  1.848  0.101  0.000  351.8  198.4  153.4    0.0
 1978 325   141  10.00  25.10  17.20  2.184  2.184  2.070  0.114  0.000  354.0  200.4  153.5    0.0
 1978 326   142  16.90  24.20  15.80  3.611  3.611  3.421  0.190  0.000  357.6  203.9  153.7    0.0
 1978 327   143  28.30  24.50  11.00  5.837  5.837  5.526  0.310  0.000  363.4  209.4  154.0    0.0
 1978 328   144  28.70  25.00   9.30  5.873  5.873  5.558  0.315  0.000  369.3  214.9  154.3    0.0
 1978 329   145  28.40  27.20   9.60  5.987  5.987  5.664  0.323  0.000  375.3  220.6  154.7    0.0
 1978 330   146  11.00  22.00  16.60  2.304  2.304  2.179  0.125  0.000  377.6  222.8  154.8    0.0
 1978 331   147  28.50  26.90  10.60  6.036  6.036  5.705  0.331  0.000  383.6  228.5  155.1    0.0
 1978 332   148  28.70  26.00  10.70  6.017  6.017  5.684  0.333  0.000  389.6  234.2  155.5    0.0
 1978 333   149  27.80  28.50  11.80  6.060  6.060  5.722  0.338  0.000  395.7  239.9  155.8    0.0
 1978 334   150  28.50  33.90  18.40  6.932  6.932  6.542  0.390  0.000  402.6  246.4  156.2    0.0
 1978 335   151  26.50  33.60  21.50  6.566  6.566  6.195  0.371  0.000  409.2  252.6  156.6    0.0
 1978 336   152  13.50  29.60  20.00  3.171  3.171  2.992  0.180  0.000  412.4  255.6  156.7    0.0
 1978 337   153   9.20  21.00  17.70  1.921  1.921  1.812  0.109  0.000  414.3  257.4  156.8    0.0
 1978 338   154   9.00  18.20  16.90  1.802  1.802  1.699  0.103  0.000  416.1  259.1  156.9    0.0
 1978 339   155  10.00  23.20  15.50  2.107  2.107  1.986  0.121  0.000  418.2  261.1  157.1    0.0
 1978 340   156  28.40  28.60  16.40  6.424  6.424  6.054  0.370  0.000  424.6  267.2  157.4    0.0
 1978 341   157  28.10  30.90  14.70  6.441  6.441  6.068  0.373  0.000  431.1  273.2  157.8    0.0
 1978 342   158  25.10  31.70  17.40  5.921  5.921  5.577  0.344  0.000  437.0  278.8  158.2    0.0
 1978 343   159  20.00  25.80  13.70  4.287  4.287  4.038  0.250  0.000  441.3  282.9  158.4    0.0
 1978 344   160  28.30  25.00  10.20  5.838  5.838  5.497  0.341  0.000  447.1  288.4  158.7    0.0
 1978 345   161  29.70  26.40  11.60  6.306  6.306  5.936  0.370  0.000  453.4  294.3  159.1    0.0
 1978 346   162  28.90  30.00  13.90  6.518  6.518  6.135  0.383  0.000  459.9  300.4  159.5    0.0
 1978 347   163  20.40  28.00  18.60  4.661  4.661  4.386  0.275  0.000  464.6  304.8  159.8    0.0
 1978 348   164  23.50  26.00  17.90  5.220  5.220  4.910  0.310  0.000  469.8  309.7  160.1    0.0
 1978 349   165  26.00  27.20  18.40  5.878  5.878  5.526  0.352  0.000  475.7  315.3  160.4    0.0
 1978 350   166  17.40  26.00  18.50  3.883  3.883  3.648  0.235  0.000  479.6  318.9  160.7    0.0
 1978 351   167  24.20  27.80  18.80  5.526  5.526  5.187  0.339  0.000  485.1  324.1  161.0    0.0
 1978 352   168  29.00  28.20  24.80  6.952  6.952  6.519  0.433  0.000  492.0  330.6  161.4    0.0
 1978 353   169  29.70  27.60  12.90  6.468  6.468  6.057  0.411  0.000  498.5  336.7  161.8    0.0
 1978 354   170  25.80  29.00  12.50  5.695  5.695  5.326  0.369  0.000  504.2  342.0  162.2    0.0
 1978 355   171  27.90  32.00  15.10  6.500  6.500  6.069  0.432  0.000  510.7  348.1  162.7    0.0
 1978 356   172  29.00  27.80  16.40  6.509  6.509  6.066  0.443  0.000  517.2  354.1  163.1    0.0
 1978 357   173  27.40  29.30  16.00  6.238  6.238  5.802  0.437  0.000  523.5  359.9  163.5    0.0
 1978 358   174  13.30  29.20  18.80  3.090  3.090  2.863  0.227  0.000  526.5  362.8  163.8    0.0
 1978 359   175  29.80  27.80  14.00  6.575  6.575  6.058  0.516  0.000  533.1  368.8  164.3    0.0
 1978 360   176  29.80  27.00  10.50  6.337  6.337  5.811  0.526  0.000  539.5  374.7  164.8    0.0
 1978 361   177  27.90  30.50  14.00  6.357  6.357  5.803  0.554  0.000  545.8  380.5  165.4    0.0
 1978 362   178  29.70  33.40  14.00  6.996  6.996  6.344  0.652  0.000  552.8  386.8  166.0    0.0
 1978 363   179  26.10  34.20  18.10  6.393  6.393  5.749  0.644  0.000  559.2  392.6  166.7    0.0
 1978 364   180   9.10  24.00  18.40  1.996  1.996  1.775  0.221  0.000  561.2  394.3  166.9    0.0
 1978 365   181  19.00  27.70  19.60  4.395  4.395  3.871  0.524  0.000  565.6  398.2  167.4    0.0
 1979 001   182  28.30  27.30  12.90  6.198  6.198  5.389  0.809  0.000  571.8  403.6  168.2    0.0
 1979 002   183  27.70  31.20  16.90  6.549  6.549  5.628  0.921  0.000  578.3  409.2  169.1    0.0
 1979 003   184  28.30  26.10  11.60  6.067  6.067  5.123  0.945  0.000  584.4  414.3  170.1    0.0
 1979 004   185  27.60  26.30   9.00  5.817  5.817  4.843  0.973  0.000  590.2  419.2  171.0    0.0
 1979 005   186  28.60  25.90  10.00  6.057  6.057  4.975  1.083  0.000  596.3  424.2  172.1    0.0
 1979 006   187  26.50  26.30   8.80  5.595  5.595  4.522  1.073  0.000  601.9  428.7  173.2    0.0
 1979 007   188  29.20  27.60  10.10  6.344  6.344  5.040  1.303  0.000  608.2  433.7  174.5    0.0
 1979 008   189  29.40  28.10  10.20  6.447  6.447  5.011  1.436  0.000  614.7  438.7  175.9    0.0
 1979 009   190  28.70  30.10  11.60  6.535  6.535  4.948  1.587  0.000  621.2  443.7  177.5    0.0
 1979 010   191  29.10  32.90  16.80  7.108  7.087  5.382  1.705  0.000  628.3  449.1  179.2    0.0
 1979 011   192  27.90  33.50  18.20  6.927  6.927  5.246  1.682  0.000  635.2  454.3  180.9    0.0

[...]
 1995 010   191  25.50  25.70  12.10  5.562  5.562  4.009  1.553  0.000  652.7  449.8  202.9    0.0
 1995 011   192  27.50  28.20   8.50  6.005  6.005  4.328  1.677  0.000  658.7  454.2  204.5    0.0
 1995 012   193   9.00  21.90  19.00  1.982  1.982  1.429  0.553  0.000  660.7  455.6  205.1    0.0

*DSSAT Cropping System Model Ver. 4.0.2.000               Aug 01, 2016; 15:14:21

*RUN  21        : UYMZ                    
 MODEL          : MZCER040 - Maize           
 EXPERIMENT     : UYMZ0102 MZ    late to create DSS                             
 TREATMENT  1   : UYMZ                    

@YEAR DOY   DAS   SRAA   TMXA   TMNA   EOAA   ETAA   EPAA   ESAA   EFAD   ETAC   EPAC   ESAC   EFAC
 1995 184     0  10.40  15.00   2.00  1.991  1.991  0.000  1.991  0.000    2.0    0.0    2.0    0.0
 1995 185     1   3.60  22.00  11.40  0.831  0.831  0.000  0.831  0.000    2.8    0.0    2.8    0.0
 1995 186     2  12.20  14.40   4.30  2.370  2.370  0.000  2.370  0.000    5.2    0.0    5.2    0.0
 1995 187     3  12.10  16.30   2.30  2.371  2.371  0.000  2.371  0.000    7.6    0.0    7.6    0.0
 1995 188     4  12.30  17.50   1.30  2.429  1.961  0.000  1.961  0.000    9.5    0.0    9.5    0.0
 1995 189     5  11.10  20.20   2.30  2.303  2.303  0.000  2.303  0.000   11.8    0.0   11.8    0.0
 1995 190     6  12.10  19.30   6.30  2.574  1.608  0.000  1.608  0.000   13.4    0.0   13.4    0.0
 1995 191     7   9.10  21.30   7.00  2.002  1.178  0.000  1.178  0.000   14.6    0.0   14.6    0.0
 1995 192     8   3.60  13.90  12.40  0.751  0.751  0.000  0.751  0.000   15.4    0.0   15.4    0.0
 1995 193     9   3.60  15.00  13.50  0.771  0.771  0.000  0.771  0.000   16.1    0.0   16.1    0.0
 1995 194    10   3.60  15.00  11.80  0.759  0.759  0.000  0.759  0.000   16.9    0.0   16.9    0.0
 1995 195    11   3.80  14.80  10.50  0.789  0.789  0.000  0.789  0.000   17.7    0.0   17.7    0.0
 1995 196    12  12.40  12.20   3.70  2.313  2.313  0.000  2.313  0.000   20.0    0.0   20.0    0.0
 1995 197    13   8.70  10.40   0.60  1.523  1.523  0.000  1.523  0.000   21.5    0.0   21.5    0.0
 1995 198    14   3.70  10.20   5.20  0.679  0.679  0.000  0.679  0.000   22.2    0.0   22.2    0.0
 1995 199    15   4.30  13.00   7.80  0.847  0.847  0.000  0.847  0.000   23.0    0.0   23.0    0.0
 1995 200    16  12.30  13.00   1.00  2.258  2.258  0.000  2.258  0.000   25.3    0.0   25.3    0.0
 1995 201    17  12.10  13.40  -2.00  2.164  2.164  0.000  2.164  0.000   27.5    0.0   27.5    0.0
 1995 202    18  10.40  16.00  -0.60  1.969  1.474  0.000  1.474  0.000   28.9    0.0   28.9    0.0
 1995 203    19  11.20  19.30   4.00  2.331  2.331  0.000  2.331  0.000   31.3    0.0   31.3    0.0
 1995 204    20  12.60  26.30  10.00  3.033  1.584  0.000  1.584  0.000   32.9    0.0   32.9    0.0
 1995 205    21  11.50  19.00  11.20  2.547  1.168  0.000  1.168  0.000   34.0    0.0   34.0    0.0
 1995 206    22   3.90  16.30  11.00  0.831  0.831  0.001  0.830  0.000   34.9    0.0   34.9    0.0
 1995 207    23   4.00  17.00  14.00  0.884  0.884  0.002  0.882  0.000   35.7    0.0   35.7    0.0
 1995 208    24   4.00  16.20  11.40  0.854  0.854  0.003  0.851  0.000   36.6    0.0   36.6    0.0
 1995 209    25  14.10  16.20   7.30  2.896  2.896  0.011  2.885  0.000   39.5    0.0   39.5    0.0
 1995 210    26  11.50  12.00   6.00  2.189  2.189  0.010  2.179  0.000   41.7    0.0   41.7    0.0
 1995 211    27   7.90  13.10   7.20  1.548  0.966  0.007  0.959  0.000   42.6    0.0   42.6    0.0
 1995 212    28  10.00  15.40   5.30  1.990  1.990  0.010  1.980  0.000   44.6    0.0   44.6    0.0
 1995 213    29  13.40  14.00   1.30  2.506  2.018  0.014  2.004  0.000   46.7    0.1   46.6    0.0
 1995 214    30  14.20   9.30  -1.60  2.377  1.311  0.011  1.301  0.000   48.0    0.1   47.9    0.0
 1995 215    31  14.10  14.00  -1.20  2.568  1.047  0.005  1.042  0.000   49.0    0.1   48.9    0.0
 1995 216    32  13.40  16.20  -3.60  2.465  0.897  0.002  0.894  0.000   49.9    0.1   49.8    0.0
 1995 217    33  13.80  16.50  -2.50  2.581  0.796  0.000  0.796  0.000   50.7    0.1   50.6    0.0
 1995 218    34  13.90  16.30  -1.80  2.611  0.725  0.000  0.725  0.000   51.4    0.1   51.4    0.0
 1995 219    35  14.40  18.10   2.30  2.898  0.670  0.001  0.669  0.000   52.1    0.1   52.0    0.0
 1995 220    36  13.00  12.20  -0.20  2.325  0.627  0.002  0.625  0.000   52.7    0.1   52.6    0.0
 1995 221    37   4.40  13.00  -1.80  0.783  0.589  0.000  0.589  0.000   53.3    0.1   53.2    0.0
 1995 222    38   5.70  17.00  11.00  1.226  0.560  0.000  0.560  0.000   53.9    0.1   53.8    0.0
 1995 223    39   9.50  23.00  13.30  2.255  0.568  0.003  0.565  0.000   54.4    0.1   54.4    0.0
 1995 224    40   4.50  18.00  13.90  1.007  0.541  0.004  0.538  0.000   55.0    0.1   54.9    0.0
 1995 225    41  11.70  14.00   5.60  2.287  1.127  0.013  1.114  0.000   56.1    0.1   56.0    0.0
 1995 226    42  10.90  12.00   4.70  2.047  0.505  0.012  0.493  0.000   56.6    0.1   56.5    0.0
 1995 227    43  11.00  13.00   4.40  2.091  0.494  0.014  0.480  0.000   57.1    0.1   57.0    0.0
 1995 228    44  10.60  13.00   3.20  1.990  0.493  0.014  0.479  0.000   57.6    0.1   57.5    0.0
 1995 229    45  16.20  14.00   1.20  3.025  0.484  0.022  0.462  0.000   58.1    0.2   57.9    0.0
 1995 230    46  15.40  15.00  -2.70  2.803  0.465  0.018  0.447  0.000   58.6    0.2   58.4    0.0
 1995 231    47   7.20  17.00   5.10  1.465  0.435  0.003  0.433  0.000   59.0    0.2   58.8    0.0
 1995 232    48  12.70  22.00   9.00  2.869  0.432  0.012  0.420  0.000   59.4    0.2   59.2    0.0
 1995 233    49  12.80  26.40  10.50  3.093  0.443  0.034  0.409  0.000   59.9    0.2   59.6    0.0
 1995 234    50   9.80  30.40  18.20  2.628  0.454  0.056  0.398  0.000   60.3    0.3   60.0    0.0
 1995 235    51   5.00  17.30  13.30  1.096  0.431  0.043  0.388  0.000   60.7    0.3   60.4    0.0
 1995 236    52   5.10  18.20  14.30  1.141  0.433  0.054  0.379  0.000   61.2    0.4   60.8    0.0
 1995 237    53   5.40  18.30  13.40  1.198  0.439  0.069  0.370  0.000   61.6    0.5   61.2    0.0
 1995 238    54  16.60  21.00   8.10  3.637  0.606  0.244  0.362  0.000   62.2    0.7   61.5    0.0
 1995 239    55   6.50  18.80   9.60  1.399  1.399  0.107  1.292  0.000   63.6    0.8   62.8    0.0
 1995 240    56  15.90  15.30   7.00  3.175  3.175  0.270  2.905  0.000   66.8    1.1   65.7    0.0
 1995 241    57  13.90  18.40   5.00  2.845  2.845  0.256  2.589  0.000   69.6    1.3   68.3    0.0
 1995 242    58  13.30  21.00   3.90  2.793  1.984  0.266  1.718  0.000   71.6    1.6   70.0    0.0
 1995 243    59  16.20  13.40   1.00  2.950  2.780  0.288  2.491  0.000   74.4    1.9   72.5    0.0
 1995 244    60  17.50  16.00  -1.00  3.262  1.639  0.247  1.392  0.000   76.0    2.1   73.9    0.0
 1995 245    61  17.00  21.40   7.60  3.742  1.240  0.153  1.086  0.000   77.3    2.3   75.0    0.0
 1995 246    62  16.10  28.00   9.00  3.894  1.130  0.208  0.922  0.000   78.4    2.5   75.9    0.0
 1995 247    63  18.30  30.30  11.20  4.614  1.157  0.342  0.815  0.000   79.6    2.8   76.7    0.0
 1995 248    64  17.50  31.20  11.80  4.461  1.190  0.451  0.739  0.000   80.8    3.3   77.5    0.0
 1995 249    65   6.20  19.00  10.80  1.342  0.857  0.177  0.681  0.000   81.6    3.5   78.2    0.0
 1995 250    66   5.60  13.00   9.20  1.094  1.094  0.160  0.934  0.000   82.7    3.6   79.1    0.0
 1995 251    67   5.70  16.00  12.40  1.198  1.198  0.183  1.015  0.000   83.9    3.8   80.1    0.0
 1995 252    68   9.40  19.30   6.70  1.957  1.957  0.325  1.632  0.000   85.9    4.1   81.7    0.0
 1995 253    69  18.90  14.00   4.40  3.559  3.559  0.617  2.941  0.000   89.4    4.7   84.7    0.0
 1995 254    70   6.00  13.40   7.00  1.149  1.149  0.199  0.951  0.000   90.6    4.9   85.6    0.0
 1995 255    71   7.50  16.00   8.00  1.506  1.506  0.268  1.239  0.000   92.1    5.2   86.9    0.0
 1995 256    72  19.90  19.30   6.20  4.112  4.112  0.766  3.346  0.000   96.2    6.0   90.2    0.0
 1995 257    73  20.20  23.00   5.00  4.335  3.631  0.861  2.770  0.000   99.8    6.8   93.0    0.0
 1995 258    74  19.90  25.00   7.00  4.450  3.554  0.954  2.601  0.000  103.4    7.8   95.6    0.0
 1995 259    75  18.50  24.00   7.00  4.070  2.373  0.967  1.405  0.000  105.8    8.8   97.0    0.0
 1995 260    76  21.30  14.40   3.80  3.956  2.134  1.042  1.092  0.000  107.9    9.8   98.1    0.0
 1995 261    77  20.40  14.40   1.80  3.715  1.886  0.960  0.926  0.000  109.8   10.8   99.0    0.0
 1995 262    78  19.60  17.50   2.30  3.781  1.663  0.845  0.818  0.000  111.4   11.6   99.8    0.0
 1995 263    79  11.10  19.00   9.20  2.341  1.221  0.480  0.741  0.000  112.7   12.1  100.6    0.0
 1995 264    80  10.20  18.20  10.10  2.140  1.275  0.475  0.800  0.000  113.9   12.6  101.4    0.0
 1995 265    81  17.30  21.20   3.90  3.563  1.557  0.860  0.697  0.000  115.5   13.4  102.1    0.0
 1995 266    82  20.30  22.30   5.40  4.298  1.720  1.072  0.648  0.000  117.2   14.5  102.7    0.0
 1995 267    83  13.00  22.40   9.20  2.840  2.840  0.772  2.068  0.000  120.1   15.3  104.8    0.0
 1995 268    84  13.20  18.00   4.30  2.586  2.520  0.772  1.748  0.000  122.6   16.0  106.5    0.0
 1995 269    85  15.10  17.00   5.00  2.933  2.933  0.889  2.044  0.000  125.5   16.9  108.6    0.0
 1995 270    86   6.60  15.20  11.00  1.321  1.321  0.413  0.909  0.000  126.8   17.3  109.5    0.0
 1995 271    87   9.00  20.50  12.00  1.949  1.949  0.640  1.309  0.000  128.8   18.0  110.8    0.0
 1995 272    88  10.50  22.00  10.20  2.273  2.273  0.808  1.465  0.000  131.0   18.8  112.3    0.0
 1995 273    89  12.00  21.00  13.90  2.637  2.637  1.005  1.632  0.000  133.7   19.8  113.9    0.0
 1995 274    90   6.80  19.00  14.10  1.452  1.452  0.597  0.855  0.000  135.1   20.4  114.7    0.0
 1995 275    91  17.50  25.00  16.90  4.104  4.104  1.797  2.307  0.000  139.2   22.2  117.1    0.0
 1995 276    92  11.20  22.20  16.80  2.520  2.520  1.221  1.299  0.000  141.8   23.4  118.4    0.0
 1995 277    93   8.70  22.40  16.40  1.944  1.944  1.016  0.928  0.000  143.7   24.4  119.3    0.0
 1995 278    94  10.80  23.20  13.00  2.359  2.359  1.308  1.051  0.000  146.1   25.7  120.3    0.0
 1995 279    95  22.60  21.80   9.00  4.676  4.676  2.662  2.014  0.000  150.7   28.4  122.3    0.0
 1995 280    96  20.90  18.20   8.60  4.094  4.094  2.397  1.697  0.000  154.8   30.8  124.0    0.0
 1995 281    97  14.00  17.30   7.00  2.662  2.662  1.596  1.066  0.000  157.5   32.4  125.1    0.0
 1995 282    98  19.70  20.40   5.00  3.834  3.834  2.339  1.495  0.000  161.3   34.7  126.6    0.0
 1995 283    99  12.40  19.40  10.00  2.488  2.488  1.543  0.944  0.000  163.8   36.3  127.5    0.0
 1995 284   100  19.40  18.00   8.50  3.758  3.758  2.392  1.366  0.000  167.6   38.7  128.9    0.0
 1995 285   101  24.40  21.30   8.20  4.921  4.921  3.190  1.730  0.000  172.5   41.8  130.6    0.0
 1995 286   102  26.10  26.70   8.30  5.634  5.634  3.737  1.897  0.000  178.1   45.6  132.5    0.0
 1995 287   103  25.80  23.20   5.00  5.160  4.909  3.527  1.382  0.000  183.0   49.1  133.9    0.0
 1995 288   104  21.50  19.30   4.20  4.039  4.039  2.803  1.235  0.000  187.1   51.9  135.2    0.0
 1995 289   105  23.00  22.00   3.30  4.451  4.451  3.079  1.372  0.000  191.5   55.0  136.5    0.0
 1995 290   106  25.50  22.30   7.00  5.135  5.087  3.471  1.616  0.000  196.6   58.5  138.1    0.0
 1995 291   107  18.20  22.30   5.40  3.606  3.606  2.487  1.119  0.000  200.2   61.0  139.3    0.0
 1995 292   108  22.90  23.30   7.80  4.688  4.275  3.288  0.986  0.000  204.5   64.2  140.3    0.0
 1995 293   109  25.80  25.20  10.20  5.510  4.802  3.943  0.859  0.000  209.3   68.2  141.1    0.0
 1995 294   110  25.90  30.20  11.00  5.897  5.094  4.323  0.771  0.000  214.4   72.5  141.9    0.0
 1995 295   111  25.60  31.30  11.80  5.921  5.172  4.467  0.705  0.000  219.6   77.0  142.6    0.0
 1995 296   112   7.80  21.00  17.50  1.665  1.665  1.291  0.374  0.000  221.2   78.3  143.0    0.0
 1995 297   113   8.40  16.50   9.40  1.572  1.572  1.234  0.338  0.000  222.8   79.5  143.3    0.0
 1995 298   114  10.50  16.20   8.20  1.932  1.932  1.529  0.403  0.000  224.7   81.0  143.7    0.0
 1995 299   115  22.60  19.20   4.60  4.193  4.193  3.334  0.858  0.000  228.9   84.4  144.6    0.0
 1995 300   116  25.60  16.00   3.80  4.499  4.499  3.575  0.924  0.000  233.4   87.9  145.5    0.0
 1995 301   117  27.10  20.00   2.70  5.004  5.004  3.915  1.088  0.000  238.4   91.9  146.6    0.0
 1995 302   118  23.70  23.30   6.40  4.758  4.758  3.570  1.188  0.000  243.2   95.4  147.8    0.0
 1995 303   119  24.70  27.00  12.00  5.436  5.436  4.138  1.297  0.000  248.6   99.6  149.1    0.0
 1995 304   120  26.20  29.00  14.40  5.988  5.587  4.745  0.842  0.000  254.2  104.3  149.9    0.0
 1995 305   121  23.20  31.00  15.00  5.431  5.431  4.424  1.007  0.000  259.6  108.7  150.9    0.0
 1995 306   122  22.00  31.30  18.30  5.281  5.281  4.391  0.891  0.000  264.9  113.1  151.8    0.0
 1995 307   123  22.60  33.10  19.70  5.576  5.576  4.709  0.867  0.000  270.5  117.8  152.7    0.0
 1995 308   124  12.90  28.40  19.00  3.004  3.004  2.571  0.433  0.000  273.5  120.4  153.1    0.0
 1995 309   125   9.40  22.40  16.60  2.002  2.002  1.724  0.278  0.000  275.5  122.1  153.4    0.0
 1995 310   126   8.30  21.40  19.00  1.779  1.779  1.538  0.241  0.000  277.3  123.7  153.6    0.0
 1995 311   127   8.30  20.50  15.60  1.710  1.710  1.483  0.227  0.000  279.0  125.1  153.8    0.0
 1995 312   128  28.20  22.00  13.00  5.792  5.792  5.038  0.754  0.000  284.8  130.2  154.6    0.0
 1995 313   129  28.00  25.20  10.10  5.840  5.840  5.101  0.739  0.000  290.6  135.3  155.3    0.0
 1995 314   130  27.70  21.20  10.40  5.502  5.502  4.822  0.680  0.000  296.1  140.1  156.0    0.0
 1995 315   131  24.10  23.60  13.00  5.044  5.044  4.433  0.610  0.000  301.2  144.5  156.6    0.0
 1995 316   132  16.20  22.30  17.50  3.460  3.460  3.054  0.406  0.000  304.6  147.6  157.0    0.0
 1995 317   133  20.40  24.00  15.60  4.378  4.378  3.881  0.496  0.000  309.0  151.5  157.5    0.0
 1995 318   134  23.60  25.00  15.00  5.098  5.098  4.540  0.559  0.000  314.1  156.0  158.1    0.0
 1995 319   135  18.00  23.20  14.50  3.787  3.787  3.386  0.401  0.000  317.9  159.4  158.5    0.0
 1995 320   136  23.30  23.40  13.00  4.852  4.852  4.353  0.499  0.000  322.7  163.8  159.0    0.0
 1995 321   137  26.30  23.90  12.00  5.463  5.463  4.916  0.547  0.000  328.2  168.7  159.5    0.0
 1995 322   138  29.20  25.20  13.20  6.225  6.225  5.595  0.630  0.000  334.4  174.3  160.2    0.0
 1995 323   139  15.50  25.40  15.40  3.372  3.372  3.027  0.345  0.000  337.8  177.3  160.5    0.0
 1995 324   140  18.50  28.00  17.40  4.213  4.213  3.780  0.433  0.000  342.0  181.1  160.9    0.0
 1995 325   141  26.20  24.40  11.80  5.470  5.470  4.904  0.566  0.000  347.5  186.0  161.5    0.0
 1995 326   142  29.90  25.40   8.30  6.140  6.140  5.500  0.639  0.000  353.6  191.5  162.1    0.0
 1995 327   143  26.60  24.70  10.30  5.506  5.506  4.929  0.577  0.000  359.1  196.4  162.7    0.0
 1995 328   144  27.50  28.00  16.00  6.199  6.199  5.545  0.653  0.000  365.3  202.0  163.4    0.0
 1995 329   145  27.70  21.00  11.10  5.508  5.508  4.923  0.584  0.000  370.8  206.9  164.0    0.0
 1995 330   146  30.10  25.00   6.20  6.042  6.042  5.398  0.645  0.000  376.9  212.3  164.6    0.0
 1995 331   147  29.70  28.30  12.20  6.525  6.525  5.824  0.700  0.000  383.4  218.1  165.3    0.0
 1995 332   148  29.70  30.20  12.00  6.661  6.661  5.942  0.719  0.000  390.1  224.0  166.0    0.0
 1995 333   149  10.80  26.00  18.20  2.421  2.421  2.158  0.263  0.000  392.5  226.2  166.3    0.0
 1995 334   150  20.60  28.20  17.50  4.710  4.710  4.195  0.515  0.000  397.2  230.4  166.8    0.0
 1995 335   151  27.00  29.20  15.00  6.127  6.127  5.453  0.674  0.000  403.3  235.8  167.5    0.0
 1995 336   152  29.40  30.40  12.10  6.617  6.617  5.885  0.732  0.000  409.9  241.7  168.2    0.0
 1995 337   153  29.40  33.20  15.00  6.977  6.977  6.205  0.772  0.000  416.9  247.9  169.0    0.0
 1995 338   154  29.60  34.60  17.20  7.245  7.245  6.443  0.802  0.000  424.2  254.4  169.8    0.0
 1995 339   155  22.40  32.40  17.70  5.374  5.374  4.780  0.595  0.000  429.5  259.2  170.4    0.0
 1995 340   156  30.00  22.80   9.70  6.036  6.036  5.368  0.668  0.000  435.6  264.5  171.0    0.0
 1995 341   157  30.10  24.40   4.40  5.905  5.905  5.252  0.653  0.000  441.5  269.8  171.7    0.0
 1995 342   158  30.00  28.00   6.90  6.301  6.301  5.563  0.738  0.000  447.8  275.3  172.4    0.0
 1995 343   159  28.30  28.00  11.20  6.154  6.154  5.434  0.720  0.000  453.9  280.8  173.2    0.0
 1995 344   160  30.40  27.80   5.40  6.290  6.290  5.554  0.736  0.000  460.2  286.3  173.9    0.0
 1995 345   161  30.40  32.90  11.50  7.014  7.014  6.187  0.827  0.000  467.2  292.5  174.7    0.0
 1995 346   162  27.40  28.20   8.50  5.846  5.846  5.156  0.690  0.000  473.1  297.7  175.4    0.0
 1995 347   163  29.20  32.40  11.00  6.674  6.674  5.886  0.788  0.000  479.8  303.6  176.2    0.0
 1995 348   164  28.90  28.50  18.60  6.694  6.694  5.901  0.793  0.000  486.5  309.5  177.0    0.0
 1995 349   165  26.20  32.50  13.90  6.128  6.128  5.398  0.730  0.000  492.6  314.9  177.7    0.0
 1995 350   166  30.30  40.40  17.60  9.843  9.843  8.661  1.182  0.000  502.4  323.5  178.9    0.0
 1995 351   167  29.80  28.20  15.30  6.712  6.712  5.897  0.815  0.000  509.1  329.4  179.7    0.0
 1995 352   168  28.30  31.10  11.00  6.378  6.378  5.592  0.786  0.000  515.5  335.0  180.5    0.0
 1995 353   169  20.50  32.00  18.40  4.932  4.932  4.313  0.619  0.000  520.4  339.3  181.1    0.0
 1995 354   170  11.40  28.90  22.00  2.723  2.723  2.374  0.349  0.000  523.2  341.7  181.5    0.0
 1995 355   171   9.20  25.30  22.40  2.119  2.119  1.841  0.278  0.000  525.3  343.5  181.8    0.0
 1995 356   172  10.20  27.40  21.80  2.395  2.395  2.073  0.322  0.000  527.7  345.6  182.1    0.0
 1995 357   173  26.80  26.80  18.60  6.106  6.106  5.261  0.845  0.000  533.8  350.9  182.9    0.0
 1995 358   174  28.40  27.00  16.20  6.371  6.371  5.464  0.907  0.000  540.2  356.3  183.8    0.0
 1995 359   175  29.40  26.40  14.30  6.456  6.456  5.509  0.947  0.000  546.6  361.8  184.8    0.0
 1995 360   176  30.80  28.70  15.00  6.991  6.991  5.930  1.060  0.000  553.6  367.8  185.8    0.0
 1995 361   177  28.70  28.70  15.30  6.534  6.534  5.505  1.029  0.000  560.1  373.3  186.9    0.0
 1995 362   178  23.40  28.40  16.40  5.359  5.359  4.479  0.880  0.000  565.5  377.8  187.7    0.0
 1995 363   179  22.70  27.90  14.80  5.111  4.894  4.234  0.659  0.000  570.4  382.0  188.4    0.0
 1995 364   180  26.60  28.60  15.90  6.096  6.096  5.000  1.096  0.000  576.5  387.0  189.5    0.0
 1995 365   181  30.70  30.90  19.50  7.423  7.423  6.023  1.400  0.000  583.9  393.0  190.9    0.0
 1996 001   182  26.60  28.60  15.90  6.112  6.112  4.902  1.210  0.000  590.0  397.9  192.1    0.0
 1996 002   183  30.60  30.90  19.50  7.420  7.420  5.876  1.544  0.000  597.4  403.8  193.7    0.0
 1996 003   184  26.90  33.10  21.40  6.779  6.779  5.294  1.485  0.000  604.2  409.1  195.1    0.0
 1996 004   185  19.80  32.80  19.80  4.927  4.616  3.791  0.826  0.000  608.8  412.9  196.0    0.0
 1996 005   186  26.00  30.10  15.00  6.076  6.076  4.600  1.476  0.000  614.9  417.5  197.4    0.0
 1996 006   187  30.10  26.00   9.80  6.444  6.444  4.796  1.649  0.000  621.4  422.3  199.1    0.0
 1996 007   188  30.10  27.80  11.10  6.670  6.670  4.874  1.796  0.000  628.0  427.1  200.9    0.0
 1996 008   189  28.70  28.40  13.20  6.525  6.219  4.679  1.539  0.000  634.3  431.8  202.4    0.0
 1996 009   190  28.20  33.60  14.40  6.875  6.875  4.833  2.042  0.000  641.1  436.7  204.5    0.0
 1996 010   191  30.30  33.20  16.30  7.457  7.457  5.243  2.215  0.000  648.6  441.9  206.7    0.0
 1996 011   192  13.80  31.40  19.30  3.404  3.404  2.393  1.011  0.000  652.0  444.3  207.7    0.0
