*GROWTH ASPECTS OUTPUT FILE

*DSSAT Cropping System Model Ver. 4.0.2.000               Aug 01, 2016; 15:14:21

*RUN   1        : UYMZ                    
 MODEL          : MZCER040 - Maize           
 EXPERIMENT     : UYMZ0102 MZ    late to create DSS                             
 TREATMENT  1   : UYMZ                    

@YEAR DOY   DAS   DAP   L#SD   GSTD   LAID   LWAD   SWAD   GWAD   RWAD   CWAD   G#AD   GWGD   HIAD   PWAD   P#AD   WSPD   WSGD   NSTD   EWSD   LN%D   SH%D   HIPD   PWDD   PWTD     SLAD   CHTD   CWID   RDPD   RL1D   RL2D   RL3D   RL4D   RL5D   RL6D   RL7D   RL8D   RL9D   RL10   CDAD   LDAD   SDAD   SNW0C   SNW1C
 1975 187     3     0    0.0      0   0.00      0      0      0      0      0      0    0.0  0.000      0      0  0.000  0.000  0.000  0.000   0.00   0.00   0.00      0      0      0.0   0.00   0.00   0.03   0.00   0.00   0.00   0.00   0.00   0.00   0.00   0.00   0.00   0.00      0      0      0       0       0
 1975 188     4     1    0.0      0   0.00      0      0      0      0      0      0    0.0  0.000      0      0  0.000  0.000  0.000  0.000   0.00   0.00   0.00      0      0      0.0   0.00   0.00   0.03   0.00   0.00   0.00   0.00   0.00   0.00   0.00   0.00   0.00   0.00      0      0      0       0       0
 1975 189     5     2    0.0      0   0.00      0      0      0      0      0      0    0.0  0.000      0      0  0.000  0.000  0.000  0.000   0.00   0.00   0.00      0      0      0.0   0.00   0.00   0.04   0.00   0.00   0.00   0.00   0.00   0.00   0.00   0.00   0.00   0.00      0      0      0       0       0
 1975 190     6     3    0.0      0   0.00      0      0      0      0      0      0    0.0  0.000      0      0  0.000  0.000  0.000  0.000   0.00   0.00   0.00      0      0      0.0   0.00   0.00   0.05   0.00   0.00   0.00   0.00   0.00   0.00   0.00   0.00   0.00   0.00      0      0      0       0       0
 1975 191     7     4    0.0      0   0.00      0      0      0      0      0      0    0.0  0.000      0      0  0.000  0.000  0.000  0.000   0.00   0.00   0.00      0      0      0.0   0.00   0.00   0.07   0.00   0.00   0.00   0.00   0.00   0.00   0.00   0.00   0.00   0.00      0      0      0       0       0
 1975 192     8     5    0.0      0   0.00      0      0      0      0      0      0    0.0  0.000      0      0  0.000  0.000  0.000  0.000   0.00   0.00   0.00      0      0      0.0   0.00   0.00   0.08   0.00   0.00   0.00   0.00   0.00   0.00   0.00   0.00   0.00   0.00      0      0      0       0       0
 1975 193     9     6    0.0      0   0.00      0      0      0      0      0      0    0.0  0.000      0      0  0.000  0.000  0.000  0.000   0.00   0.00   0.00      0      0      0.0   0.00   0.00   0.08   0.00   0.00   0.00   0.00   0.00   0.00   0.00   0.00   0.00   0.00      0      0      0       0       0
 1975 194    10     7    0.0      0   0.00      0      0      0      0      0      0    0.0  0.000      0      0  0.000  0.000  0.000  0.000   0.00   0.00   0.00      0      0      0.0   0.00   0.00   0.09   0.00   0.00   0.00   0.00   0.00   0.00   0.00   0.00   0.00   0.00      0      0      0       0       0
 1975 195    11     8    0.0      0   0.00      0      0      0      0      0      0    0.0  0.000      0      0  0.000  0.000  0.000  0.000   0.00   0.00   0.00      0      0      0.0   0.00   0.00   0.10   0.00   0.00   0.00   0.00   0.00   0.00   0.00   0.00   0.00   0.00      0      0      0       0       0
 1975 196    12     9    0.0      0   0.00      0      0      0      0      0      0    0.0  0.000      0      0  0.000  0.000  0.000  0.000   0.00   0.00   0.00      0      0      0.0   0.00   0.00   0.10   0.00   0.00   0.00   0.00   0.00   0.00   0.00   0.00   0.00   0.00      0      0      0       0       0
 1975 197    13    10    0.0      0   0.00      0      0      0      0      0      0    0.0  0.000      0      0  0.000  0.000  0.000  0.000   0.00   0.00   0.00      0      0      0.0   0.00   0.00   0.10   0.00   0.00   0.00   0.00   0.00   0.00   0.00   0.00   0.00   0.00      0      0      0       0       0
 1975 198    14    11    0.0      0   0.00      0      0      0      0      0      0    0.0  0.000      0      0  0.000  0.000  0.000  0.000   0.00   0.00   0.00      0      0      0.0   0.00   0.00   0.10   0.00   0.00   0.00   0.00   0.00   0.00   0.00   0.00   0.00   0.00      0      0      0       0       0
 1975 199    15    12    0.0      0   0.00      0      0      0      0      0      0    0.0  0.000      0      0  0.000  0.000  0.000  0.000   0.00   0.00   0.00      0      0      0.0   0.00   0.00   0.10   0.00   0.00   0.00   0.00   0.00   0.00   0.00   0.00   0.00   0.00      0      0      0       0       0
 1975 200    16    13    0.0      0   0.00      0      0      0      0      0      0    0.0  0.000      0      0  0.000  0.000  0.000  0.000   0.00   0.00   0.00      0      0      0.0   0.00   0.00   0.10   0.00   0.00   0.00   0.00   0.00   0.00   0.00   0.00   0.00   0.00      0      0      0       0       0
 1975 201    17    14    0.0      0   0.00      0      0      0      0      0      0    0.0  0.000      0      0  0.000  0.000  0.000  0.000   0.00   0.00   0.00      0      0      0.0   0.00   0.00   0.10   0.00   0.00   0.00   0.00   0.00   0.00   0.00   0.00   0.00   0.00      0      0      0       0       0
 1975 202    18    15    0.0      0   0.00      0      0      0      0      0      0    0.0  0.000      0      0  0.000  0.000  0.000  0.000   0.00   0.00   0.00      0      0      0.0   0.00   0.00   0.10   0.00   0.00   0.00   0.00   0.00   0.00   0.00   0.00   0.00   0.00      0      0      0       0       0
 1975 203    19    16    0.0      0   0.00      0      0      0      0      0      0    0.0  0.000      0      0  0.000  0.000  0.000  0.000   0.00   0.00   0.00      0      0      0.0   0.00   0.00   0.10   0.00   0.00   0.00   0.00   0.00   0.00   0.00   0.00   0.00   0.00      0      0      0       0       0
 1975 204    20    17    0.0      0   0.00      0      0      0      0      0      0    0.0  0.000      0      0  0.000  0.000  0.000  0.000   0.00   0.00   0.00      0      0      0.0   0.00   0.00   0.11   0.00   0.00   0.00   0.00   0.00   0.00   0.00   0.00   0.00   0.00      0      0      0       0       0
 1975 205    21    18    0.0      0   0.00      0      0      0      0      0      0    0.0  0.000      0      0  0.000  0.000  0.000  0.000   0.00   0.00   0.00      0      0      0.0   0.00   0.00   0.11   0.00   0.00   0.00   0.00   0.00   0.00   0.00   0.00   0.00   0.00      0      0      0       0       0
 1975 206    22    19    0.0      0   0.00      0      0      0      0      0      0    0.0  0.000      0      0  0.000  0.000  0.000  0.000   0.00   0.00   0.00      0      0      0.0   0.00   0.00   0.11   0.00   0.00   0.00   0.00   0.00   0.00   0.00   0.00   0.00   0.00      0      0      0       0       0
 1975 207    23    20    0.0      0   0.00      0      0      0      0      0      0    0.0  0.000      0      0  0.000  0.000  0.000  0.000   0.00   0.00   0.00      0      0      0.0   0.00   0.00   0.11   0.00   0.00   0.00   0.00   0.00   0.00   0.00   0.00   0.00   0.00      0      0      0       0       0
 1975 208    24    21    0.0      0   0.00      0      0      0      0      0      0    0.0  0.000      0      0  0.000  0.000  0.000  0.000   0.00   0.00   0.00      0      0      0.0   0.00   0.00   0.12   0.00   0.00   0.00   0.00   0.00   0.00   0.00   0.00   0.00   0.00      0      0      0       0       0
 1975 209    25    22    0.0      0   0.00      0      0      0      0      0      0    0.0  0.000      0      0  0.000  0.000  0.000  0.000   0.00   0.00   0.00      0      0      0.0   0.00   0.00   0.12   0.00   0.00   0.00   0.00   0.00   0.00   0.00   0.00   0.00   0.00      0      0      0       0       0
 1975 210    26    23    1.0      1   0.00     14     14      0     14     28      0    0.0  0.000      0      0  0.000  0.000  0.012  0.000   4.40   0.00   0.00      0      0      9.4   0.00   0.00   0.12   0.28   0.10   0.00   0.00   0.00   0.00   0.00   0.00   0.00   0.00      0      0      0       0       0
 1975 211    27    24    1.0      1   0.00     14     14      0     14     28      0    0.0  0.000      0      0  0.000  0.000  0.019  0.000   4.56   0.00   0.00      0      0     11.9   0.00   0.00   0.13   0.28   0.10   0.00   0.00   0.00   0.00   0.00   0.00   0.00   0.00      0      0      0       0       0
 1975 212    28    25    1.0      1   0.00     14     14      0     14     28      0    0.0  0.000      0      0  0.000  0.000  0.000  0.000   4.56   0.00   0.00      0      0     20.6   0.00   0.00   0.13   0.28   0.10   0.00   0.00   0.00   0.00   0.00   0.00   0.00   0.00      0      0      0       0       0
 1975 213    29    26    2.0      1   0.00     14     14      0     14     28      0    0.0  0.000      0      0  0.000  0.000  0.000  0.000   4.56   0.00   0.00      0      0     35.2   0.00   0.00   0.14   0.28   0.10   0.00   0.00   0.00   0.00   0.00   0.00   0.00   0.00      0      0      0       0       0
 1975 214    30    27    2.0      1   0.01     14     14      0     14     28      0    0.0  0.000      0      0  0.000  0.000  0.000  0.000   4.56   0.00   0.00      0      0     45.7   0.00   0.00   0.15   0.28   0.10   0.00   0.00   0.00   0.00   0.00   0.00   0.00   0.00      0      0      0       0       0
 1975 215    31    28    2.0      1   0.01     14     14      0     15     28      0    0.0  0.000      0      0  0.000  0.000  0.000  0.000   4.56   0.00   0.00      0      0     50.1   0.00   0.00   0.15   0.28   0.11   0.00   0.00   0.00   0.00   0.00   0.00   0.00   0.00      0      0      0       0       0
 1975 216    32    29    2.0      1   0.01     14     14      0     15     28      0    0.0  0.000      0      0  0.000  0.000  0.000  0.000   4.49   0.00   0.00      0      0     46.0   0.00   0.00   0.15   0.28   0.11   0.00   0.00   0.00   0.00   0.00   0.00   0.00   0.00      0      0      0       0       0
 1975 217    33    30    2.0      1   0.01     14     14      0     15     28      0    0.0  0.000      0      0  0.000  0.000  0.000  0.000   4.49   0.00   0.00      0      0     46.1   0.00   0.00   0.15   0.28   0.12   0.00   0.00   0.00   0.00   0.00   0.00   0.00   0.00      0      0      0       0       0
 1975 218    34    31    2.0      1   0.00     14     14      0     15     28      0    0.0  0.000      0      0  0.000  0.000  0.000  0.000   4.49   0.00   0.00      0      0     32.8   0.00   0.00   0.16   0.28   0.12   0.00   0.00   0.00   0.00   0.00   0.00   0.00   0.00      0      0      0       0       0
 1975 219    35    32    2.0      1   0.00     14     14      0     15     28      0    0.0  0.000      0      0  0.000  0.000  0.000  0.000   4.49   0.00   0.00      0      0     31.5   0.00   0.00   0.16   0.28   0.12   0.00   0.00   0.00   0.00   0.00   0.00   0.00   0.00      0      0      0       0       0
 1975 220    36    33    2.0      1   0.01     14     14      0     15     28      0    0.0  0.000      0      0  0.000  0.000  0.000  0.000   4.49   0.00   0.00      0      0     38.2   0.00   0.00   0.16   0.28   0.12   0.00   0.00   0.00   0.00   0.00   0.00   0.00   0.00      0      0      0       0       0
 1975 221    37    34    3.0      1   0.01     14     14      0     15     28      0    0.0  0.000      0      0  0.000  0.000  0.000  0.000   4.49   0.00   0.00      0      0     47.2   0.00   0.00   0.16   0.28   0.12   0.00   0.00   0.00   0.00   0.00   0.00   0.00   0.00      0      0      0       0       0
 1975 222    38    35    3.0      1   0.01     14     14      0     16     28      0    0.0  0.000      0      0  0.000  0.000  0.000  0.000   4.49   0.00   0.00      0      0     59.3   0.00   0.00   0.17   0.25   0.11   0.00   0.00   0.00   0.00   0.00   0.00   0.00   0.00      0      0      0       0       0
 1975 223    39    36    3.0      1   0.01     14     14      0     16     28      0    0.0  0.000      0      0  0.000  0.000  0.000  0.413   4.49   0.00   0.00      0      0     62.9   0.00   0.00   0.17   0.24   0.11   0.00   0.00   0.00   0.00   0.00   0.00   0.00   0.00      0      0      0       0       0
 1975 224    40    37    3.0      1   0.01     14     14      0     17     28      0    0.0  0.000      0      0  0.000  0.000  0.000  0.311   4.49   0.00   0.00      0      0     72.3   0.00   0.00   0.18   0.22   0.11   0.00   0.00   0.00   0.00   0.00   0.00   0.00   0.00      0      0      0       0       0
 1975 225    41    38    3.0      1   0.01     14     14      0     18     28      0    0.0  0.000      0      0  0.000  0.000  0.000  0.100   4.42   0.00   0.00      0      0     77.2   0.00   0.00   0.18   0.21   0.12   0.01   0.00   0.00   0.00   0.00   0.00   0.00   0.00      0      0      0       0       0
 1975 226    42    39    3.0      1   0.01     14     14      0     18     28      0    0.0  0.000      0      0  0.000  0.000  0.000  0.010   4.42   0.00   0.00      0      0     72.5   0.00   0.00   0.18   0.20   0.12   0.01   0.00   0.00   0.00   0.00   0.00   0.00   0.00      0      0      0       0       0
 1975 227    43    40    3.0      1   0.01     14     14      0     18     28      0    0.0  0.000      0      0  0.000  0.000  0.000  0.006   4.42   0.00   0.00      0      0     85.6   0.00   0.00   0.19   0.20   0.12   0.01   0.00   0.00   0.00   0.00   0.00   0.00   0.00      0      0      0       0       0
 1975 228    44    41    3.0      1   0.01     14     14      0     19     28      0    0.0  0.000      0      0  0.000  0.000  0.000  0.007   4.42   0.00   0.00      0      0     96.5   0.00   0.00   0.19   0.20   0.12   0.01   0.00   0.00   0.00   0.00   0.00   0.00   0.00      0      0      0       0       0
 1975 229    45    42    4.0      1   0.02     14     14      0     20     28      0    0.0  0.000      0      0  0.000  0.000  0.000  0.021   4.38   0.00   0.00      0      0    117.5   0.00   0.00   0.20   0.20   0.14   0.02   0.00   0.00   0.00   0.00   0.00   0.00   0.00      0      0      0       0       0
 1975 230    46    43    4.0      1   0.02     14     14      0     22     28      0    0.0  0.000      0      0  0.000  0.000  0.000  0.005   4.36   0.00   0.00      0      0    166.2   0.00   0.00   0.20   0.20   0.15   0.03   0.00   0.00   0.00   0.00   0.00   0.00   0.00      0      0      0       0       0
 1975 231    47    44    4.0      1   0.03     14     14      0     24     28      0    0.0  0.000      0      0  0.000  0.000  0.000  0.000   4.34   0.00   0.00      0      0    234.5   0.00   0.00   0.21   0.21   0.18   0.04   0.00   0.00   0.00   0.00   0.00   0.00   0.00      0      0      0       0       1
 1975 232    48    45    4.0      1   0.04     14     14      0     26     28      0    0.0  0.000      0      0  0.000  0.000  0.000  0.000   4.32   0.00   0.00      0      0    303.3   0.00   0.00   0.22   0.23   0.19   0.05   0.00   0.00   0.00   0.00   0.00   0.00   0.00      0      0      0       0       1
 1975 233    49    46    4.0      1   0.06     19     14      0     28     33      0    0.0  0.000      0      0  0.000  0.000  0.000  0.000   3.69   0.00   0.00      0      0    294.8   0.00   0.00   0.23   0.25   0.20   0.06   0.00   0.00   0.00   0.00   0.00   0.00   0.00      0      0      0       0       1
 1975 234    50    47    5.0      1   0.07     24     14      0     29     38      0    0.0  0.000      0      0  0.000  0.000  0.000  0.000   3.72   0.00   0.00      0      0    286.5   0.00   0.00   0.24   0.24   0.19   0.06   0.00   0.00   0.00   0.00   0.00   0.00   0.00      0      0      0       0       1
 1975 235    51    48    5.0      1   0.08     28     14      0     29     42      0    0.0  0.000      0      0  0.000  0.000  0.000  0.000   3.78   0.00   0.00      0      0    279.6   0.00   0.00   0.24   0.23   0.18   0.06   0.00   0.00   0.00   0.00   0.00   0.00   0.00      0      0      0       0       1
 1975 236    52    49    5.0      1   0.09     32     14      0     34     46      0    0.0  0.000      0      0  0.000  0.000  0.000  0.307   3.90   0.00   0.00      0      0    274.7   0.00   0.00   0.25   0.25   0.21   0.08   0.00   0.00   0.00   0.00   0.00   0.00   0.00      0      0      0       0       1
 1975 237    53    50    5.0      1   0.09     33     14      0     35     47      0    0.0  0.000      0      0  0.000  0.000  0.000  0.371   4.19   0.00   0.00      0      0    261.9   0.00   0.00   0.25   0.25   0.21   0.08   0.00   0.00   0.00   0.00   0.00   0.00   0.00      0      0      0       0       1
 1975 238    54    51    5.0      1   0.07     33     14      0     40     47      0    0.0  0.000      0      0  0.000  0.000  0.000  0.467   4.20   0.00   0.00      0      0    213.2   0.00   0.00   0.25   0.26   0.22   0.09   0.00   0.00   0.00   0.00   0.00   0.00   0.00      0      0      0       0       2
 1975 239    55    52    5.0      1   0.06     34     14      0     42     48      0    0.0  0.000      0      0  0.000  0.000  0.000  0.195   4.12   0.00   0.00      0      0    177.8   0.00   0.00   0.25   0.27   0.24   0.10   0.00   0.00   0.00   0.00   0.00   0.00   0.00      0      0      0       0       2
 1975 240    56    53    5.0      1   0.07     38     14      0     47     52      0    0.0  0.000      0      0  0.000  0.000  0.003  0.078   3.78   0.00   0.00      0      0    183.4   0.00   0.00   0.26   0.29   0.26   0.12   0.00   0.00   0.00   0.00   0.00   0.00   0.00      0      0      0       0       2
 1975 241    57    54    5.0      1   0.08     41     14      0     52     55      0    0.0  0.000      0      0  0.000  0.000  0.013  0.041   4.00   0.00   0.00      0      0    184.4   0.00   0.00   0.26   0.32   0.30   0.15   0.00   0.00   0.00   0.00   0.00   0.00   0.00      0      0      0       0       2
 1975 242    58    55    5.0      1   0.08     44     14      0     57     58      0    0.0  0.000      0      0  0.000  0.000  0.000  0.010   4.00   0.00   0.00      0      0    174.2   0.00   0.00   0.27   0.36   0.33   0.18   0.00   0.00   0.00   0.00   0.00   0.00   0.00      0      0      0       0       2
 1975 243    59    56    6.0      1   0.09     48     14      0     63     62      0    0.0  0.000      0      0  0.000  0.000  0.000  0.000   3.91   0.00   0.00      0      0    175.6   0.00   0.00   0.27   0.40   0.38   0.22   0.00   0.00   0.00   0.00   0.00   0.00   0.00      0      0      0       0       2
 1975 244    60    57    6.0      1   0.10     57     14      0     69     71      0    0.0  0.000      0      0  0.000  0.000  0.000  0.000   3.69   0.00   0.00      0      0    181.1   0.00   0.00   0.28   0.44   0.42   0.25   0.00   0.00   0.00   0.00   0.00   0.00   0.00      0      0      0       0       3
 1975 245    61    58    6.0      1   0.12     65     14      0     81     79      0    0.0  0.000      0      0  0.000  0.000  0.000  0.000   3.73   0.00   0.00      0      0    181.7   0.00   0.00   0.29   0.52   0.50   0.33   0.00   0.00   0.00   0.00   0.00   0.00   0.00      0      0      0       0       3
 1975 246    62    59    6.0      1   0.13     72     14      0     95     86      0    0.0  0.000      0      0  0.000  0.000  0.000  0.000   3.77   0.00   0.00      0      0    179.2   0.00   0.00   0.29   0.61   0.59   0.42   0.00   0.00   0.00   0.00   0.00   0.00   0.00      0      0      0       0       3
 1975 247    63    60    6.0      1   0.15     82     14      0    102     96      0    0.0  0.000      0      0  0.000  0.000  0.000  0.000   3.70   0.00   0.00      0      0    181.4   0.00   0.00   0.30   0.67   0.64   0.47   0.00   0.00   0.00   0.00   0.00   0.00   0.00      0      0      0       0       4
 1975 248    64    61    7.0      1   0.17     95     14      0    104    109      0    0.0  0.000      0      0  0.000  0.000  0.000  0.000   3.61   0.00   0.00      0      0    182.8   0.00   0.00   0.31   0.68   0.65   0.48   0.00   0.00   0.00   0.00   0.00   0.00   0.00      0      0      0       0       4
 1975 249    65    62    7.0      1   0.17     97     14      0    108    111      0    0.0  0.000      0      0  0.000  0.000  0.000  0.000   4.03   0.00   0.00      0      0    178.8   0.00   0.00   0.31   0.70   0.68   0.51   0.00   0.00   0.00   0.00   0.00   0.00   0.00      0      0      0       0       5
 1975 250    66    63    7.0      1   0.15    102     14      0    123    116      0    0.0  0.000      0      0  0.000  0.000  0.000  0.000   3.94   0.00   0.00      0      0    150.5   0.00   0.00   0.31   0.78   0.78   0.61   0.00   0.00   0.00   0.00   0.00   0.00   0.00      0      0      0       0       6
 1975 251    67    64    7.0      1   0.16    108     14      0    126    122      0    0.0  0.000      0      0  0.000  0.000  0.000  0.094   3.75   0.00   0.00      0      0    152.1   0.00   0.00   0.31   0.80   0.80   0.63   0.00   0.00   0.00   0.00   0.00   0.00   0.00      0      0      0       0       6
 1975 252    68    65    7.0      1   0.18    117     14      0    131    131      0    0.0  0.000      0      0  0.000  0.000  0.017  0.046   3.79   0.00   0.00      0      0    154.2   0.00   0.00   0.32   0.82   0.82   0.66   0.00   0.00   0.00   0.00   0.00   0.00   0.00      0      0      0       0       6
 1975 253    69    66    7.0      1   0.20    126     14      0    142    140      0    0.0  0.000      0      0  0.000  0.000  0.000  0.010   3.79   0.00   0.00      0      0    156.1   0.00   0.00   0.32   0.88   0.89   0.73   0.01   0.00   0.00   0.00   0.00   0.00   0.00      0      0      0       0       7
 1975 254    70    67    7.0      1   0.20    133     14      0    162    147      0    0.0  0.000      0      0  0.000  0.000  0.000  0.000   3.85   0.00   0.00      0      0    147.5   0.00   0.00   0.32   0.99   1.02   0.86   0.01   0.00   0.00   0.00   0.00   0.00   0.00      0      0      0       0       8
 1975 255    71    68    7.0      1   0.22    148     14      0    164    162      0    0.0  0.000      0      0  0.000  0.000  0.000  0.000   3.67   0.00   0.00      0      0    150.2   0.00   0.00   0.33   1.00   1.03   0.87   0.02   0.00   0.00   0.00   0.00   0.00   0.00      0      0      0       0       8
 1975 256    72    69    8.0      1   0.25    163     14      0    182    177      0    0.0  0.000      0      0  0.000  0.000  0.000  0.000   3.66   0.00   0.00      0      0    152.3   0.00   0.00   0.34   1.11   1.15   0.99   0.03   0.00   0.00   0.00   0.00   0.00   0.00      0      0      0       0       9
 1975 257    73    70    8.0      1   0.27    177     14      0    193    191      0    0.0  0.000      0      0  0.000  0.000  0.000  0.000   3.72   0.00   0.00      0      0    153.6   0.00   0.00   0.35   1.17   1.21   1.06   0.04   0.00   0.00   0.00   0.00   0.00   0.00      0      0      0       0      10
 1975 258    74    71    8.0      1   0.29    189     14      0    225    203      0    0.0  0.000      0      0  0.000  0.000  0.000  0.000   3.74   0.00   0.00      0      0    153.6   0.00   0.00   0.36   1.35   1.40   1.26   0.07   0.00   0.00   0.00   0.00   0.00   0.00      0      0      0       0      11
 1975 259    75    72    8.0      1   0.32    205     14      0    251    219      0    0.0  0.000      0      0  0.000  0.000  0.000  0.000   3.70   0.00   0.00      0      0    154.4   0.00   0.00   0.37   1.49   1.56   1.42   0.10   0.00   0.00   0.00   0.00   0.00   0.00      0      0      0       0      12
 1975 260    76    73    8.0      1   0.35    226     14      0    285    240      0    0.0  0.000      0      0  0.000  0.000  0.000  0.000   3.60   0.00   0.00      0      0    155.0   0.00   0.00   0.38   1.69   1.76   1.63   0.14   0.00   0.00   0.00   0.00   0.00   0.00      0      0      0       0      13
 1975 261    77    74    8.0      1   0.39    248     14      0    289    262      0    0.0  0.000      0      0  0.000  0.000  0.000  0.000   3.61   0.00   0.00      0      0    155.3   0.00   0.00   0.39   1.71   1.78   1.65   0.15   0.00   0.00   0.00   0.00   0.00   0.00      0      0      0       0      15
 1975 262    78    75    9.0      1   0.43    275     14      0    292    289      0    0.0  0.000      0      0  0.000  0.000  0.000  0.000   3.55   0.00   0.00      0      0    155.3   0.00   0.00   0.40   1.72   1.80   1.66   0.15   0.00   0.00   0.00   0.00   0.00   0.00      0      0      0       0      16
 1975 263    79    76    9.0      2   0.49    292     14      0    340    306      0    0.0  0.000      0      0  0.000  0.000  0.000  0.000   3.67   0.00   0.00      0      0    168.1   0.00   0.00   0.41   1.94   2.07   1.95   0.24   0.00   0.00   0.00   0.00   0.00   0.00      0      0      0       0      18
 1975 264    80    77    9.0      2   0.54    324     14      0    377    338      0    0.0  0.000      0      0  0.000  0.000  0.001  0.000   3.53   0.00   0.00      0      0    167.3   0.00   0.00   0.43   2.11   2.28   2.16   0.31   0.00   0.00   0.00   0.00   0.00   0.00      0      0      0       0      19
 1975 265    81    78    9.0      2   0.58    347     14      0    438    361      0    0.0  0.000      0      0  0.000  0.000  0.000  0.000   3.57   0.00   0.00      0      0    166.6   0.00   0.00   0.43   2.38   2.63   2.51   0.44   0.00   0.00   0.00   0.00   0.00   0.00      0      0      0       0      21
 1975 266    82    79   10.0      2   0.63    381     14      0    504    395      0    0.0  0.000      0      0  0.000  0.000  0.000  0.000   3.78   0.00   0.00      0      0    165.6   0.00   0.00   0.44   2.68   2.99   2.88   0.58   0.00   0.00   0.00   0.00   0.00   0.00      0      0      0       0      24
 1975 267    83    80   10.0      3   0.64    395     14      0    531    409      0    0.0  0.000      0      0  0.000  0.000  0.022  0.000   3.73   0.00   0.00      0      0    163.3   0.00   0.00   0.45   2.80   3.14   3.03   0.65   0.00   0.00   0.00   0.00   0.00   0.00      0      0      0       0      26
 1975 268    84    81   10.0      3   0.57    405     14      0    577    419      0    0.0  0.000      0      0  0.000  0.000  0.022  0.000   3.65   0.00   0.00      0      0    141.9   0.00   0.00   0.45   3.00   3.39   3.29   0.75   0.00   0.00   0.00   0.00   0.00   0.00      0      0      0       0      29
 1975 269    85    82   10.0      3   0.45    419     14      0    627    433      0    0.0  0.000      0      0  0.000  0.000  0.022  0.000   3.62   0.00   0.00      0      0    106.6   0.00   0.00   0.46   3.23   3.66   3.57   0.87   0.00   0.00   0.00   0.00   0.00   0.00      0      0      0       0      32
 1975 270    86    83   10.0      3   0.50    455     14      0    639    469      0    0.0  0.000      0      0  0.000  0.000  0.022  0.000   3.56   0.00   0.00      0      0    109.6   0.00   0.00   0.47   3.28   3.72   3.63   0.90   0.01   0.00   0.00   0.00   0.00   0.00      0      0      0       0      35
 1975 271    87    84   10.0      3   0.57    507     15      0    658    521      0    0.0  0.000      0      0  0.000  0.000  0.022  0.000   3.52   0.00   0.00      0      0    112.9   0.00   0.00   0.48   3.36   3.82   3.74   0.94   0.01   0.00   0.00   0.00   0.00   0.00      0      0      0       0      38
 1975 272    88    85   11.0      3   0.63    545     15      0    662    561      0    0.0  0.000      0      0  0.000  0.000  0.022  0.000   3.50   0.00   0.00      0      0    114.7   0.00   0.00   0.49   3.37   3.84   3.76   0.95   0.02   0.00   0.00   0.00   0.00   0.00      0      0      0       0      41
 1975 273    89    86   11.0      3   0.68    587     16      0    732    603      0    0.0  0.000      0      0  0.000  0.000  0.022  0.000   3.47   0.00   0.00      0      0    116.3   0.00   0.00   0.50   3.25   3.95   3.93   1.06   0.07   0.00   0.00   0.00   0.00   0.00      0      0      0       0      45
 1975 274    90    87   11.0      3   0.73    624     17      0    809    642      0    0.0  0.000      0      0  0.000  0.000  0.022  0.000   3.45   0.00   0.00      0      0    117.3   0.00   0.00   0.51   3.22   4.00   4.00   1.21   0.13   0.00   0.00   0.00   0.00   0.00      0      0      0       0      48
 1975 275    91    88   11.0      3   0.76    646     18      0    828    664      0    0.0  0.000      0      0  0.000  0.000  0.022  0.075   3.47   0.00   0.00      0      0    117.6   0.00   0.00   0.51   3.17   4.00   4.00   1.23   0.15   0.00   0.00   0.00   0.00   0.00      0      0      0       0      52
 1975 276    92    89   11.0      3   0.74    673     19      0    913    692      0    0.0  0.000      0      0  0.000  0.000  0.022  0.005   3.43   0.00   0.00      0      0    109.8   0.00   0.00   0.52   3.27   4.00   4.00   1.42   0.24   0.00   0.00   0.00   0.00   0.00      0      0      0       0      56
 1975 277    93    90   11.0      3   0.78    703     21      0    991    724      0    0.0  0.000      0      0  0.000  0.000  0.022  0.002   3.41   0.00   0.00      0      0    110.6   0.00   0.00   0.52   3.38   4.00   4.00   1.59   0.32   0.00   0.00   0.00   0.00   0.00      0      0      0       0      61
 1975 278    94    91   11.0      3   0.73    731     22      0   1067    754      0    0.0  0.000      0      0  0.000  0.000  0.022  0.002   3.40   0.00   0.00      0      0     99.3   0.00   0.00   0.53   3.50   4.00   4.00   1.77   0.41   0.00   0.00   0.00   0.00   0.00      0      0      0       0      66
 1975 279    95    92   12.0      3   0.79    784     26      0   1092    810      0    0.0  0.000      0      0  0.000  0.000  0.022  0.002   3.37   0.00   0.00      0      0    101.3   0.00   0.00   0.54   3.53   4.00   4.00   1.82   0.45   0.00   0.00   0.00   0.00   0.00      0      0      0       0      71
 1975 280    96    93   12.0      3   0.91    875     34      0   1125    909      0    0.0  0.000      0      0  0.000  0.000  0.022  0.001   3.34   0.00   0.00      0      0    104.0   0.00   0.00   0.55   3.59   4.00   4.00   1.90   0.50   0.00   0.00   0.00   0.00   0.00      0      0      0       0      77
 1975 281    97    94   12.0      3   0.95    908     38      0   1214    946      0    0.0  0.000      0      0  0.000  0.000  0.022  0.000   3.34   0.00   0.00      0      0    104.6   0.00   0.00   0.56   3.78   4.00   4.00   2.11   0.65   0.00   0.00   0.00   0.00   0.00      0      0      0       0      82
 1975 282    98    95   12.0      3   0.84    937     41      0   1298    978      0    0.0  0.000      0      0  0.000  0.000  0.022  0.000   3.34   0.00   0.00      0      0     89.3   0.00   0.00   0.56   3.96   4.00   4.00   2.31   0.80   0.00   0.00   0.00   0.00   0.00      0      0      0       0      88
 1975 283    99    96   12.0      3   0.69    971     45      0   1382   1016      0    0.0  0.000      0      0  0.000  0.000  0.022  0.000   3.31   0.00   0.00      0      0     71.4   0.00   0.00   0.57   4.00   4.00   4.00   2.52   0.96   0.00   0.00   0.00   0.00   0.00      0      0      0       0      95
 1975 284   100    97   12.0      3   0.73   1012     51      0   1453   1062      0    0.0  0.000      0      0  0.000  0.000  0.022  0.000   3.28   0.00   0.00      0      0     72.6   0.00   0.00   0.58   4.00   4.00   4.00   2.69   1.10   0.00   0.00   0.00   0.00   0.00      0      0      0       0     102
 1975 285   101    98   12.0      3   0.79   1056     57      0   1508   1113      0    0.0  0.000      0      0  0.000  0.000  0.022  0.000   3.26   0.00   0.00      0      0     74.6   0.00   0.00   0.58   4.00   4.00   4.00   2.82   1.21   0.00   0.00   0.00   0.00   0.00      0      0      0       0     109
 1975 286   102    99   13.0      3   0.88   1131     70      0   1547   1201      0    0.0  0.000      0      0  0.000  0.000  0.022  0.000   3.24   0.00   0.00      0      0     77.6   0.00   0.00   0.59   4.00   4.00   4.00   2.92   1.31   0.00   0.00   0.00   0.00   0.00      0      0      0       0     117
 1975 287   103   100   13.0      3   0.96   1199     84      0   1618   1283      0    0.0  0.000      0      0  0.000  0.000  0.022  0.000   3.21   0.00   0.00      0      0     79.9   0.00   0.00   0.60   4.00   4.00   4.00   3.07   1.46   0.00   0.00   0.00   0.00   0.00      0      0      0       0     124
 1975 288   104   101   13.0      3   1.05   1275    101      0   1697   1376      0    0.0  0.000      0      0  0.000  0.000  0.022  0.000   3.19   0.00   0.00      0      0     82.1   0.00   0.00   0.61   4.00   4.00   4.00   3.21   1.61   0.01   0.00   0.00   0.00   0.00      0      0      0       0     132
 1975 289   105   102   13.0      3   1.15   1365    125      0   1770   1490      0    0.0  0.000      0      0  0.000  0.000  0.022  0.000   3.16   0.00   0.00      0      0     84.3   0.00   0.00   0.63   4.00   4.00   4.00   3.34   1.75   0.02   0.00   0.00   0.00   0.00      0      0      0       0     141
 1975 290   106   103   14.0      3   1.25   1450    150      0   1869   1600      0    0.0  0.000      0      0  0.000  0.000  0.022  0.000   3.13   0.00   0.00      0      0     86.0   0.00   0.00   0.64   4.00   4.00   4.00   3.51   1.94   0.04   0.00   0.00   0.00   0.00      0      0      0       0     150
 1975 291   107   104   14.0      3   1.34   1534    178      0   1971   1712      0    0.0  0.000      0      0  0.000  0.000  0.022  0.000   3.10   0.00   0.00      0      0     87.3   0.00   0.00   0.65   4.00   4.00   4.00   3.69   2.14   0.06   0.00   0.00   0.00   0.00      0      0      0       0     159
 1975 292   108   105   14.0      3   1.43   1619    211      0   2038   1830      0    0.0  0.000      0      0  0.000  0.000  0.022  0.001   3.07   0.00   0.00      0      0     88.5   0.00   0.00   0.66   4.00   4.00   4.00   3.81   2.27   0.09   0.00   0.00   0.00   0.00      0      0      0       0     169
 1975 293   109   106   14.0      3   1.52   1700    244      0   2111   1945      0    0.0  0.000      0      0  0.000  0.000  0.022  0.001   3.05   0.00   0.00      0      0     89.5   0.00   0.00   0.67   4.00   4.00   4.00   3.95   2.41   0.12   0.00   0.00   0.00   0.00      0      0      0       0     179
 1975 294   110   107   15.0      3   1.59   1762    272      0   2233   2035      0    0.0  0.000      0      0  0.000  0.000  0.022  0.001   3.02   0.00   0.00      0      0     90.0   0.00   0.00   0.68   4.00   4.00   4.00   4.00   2.66   0.18   0.00   0.00   0.00   0.00      0      0      0       0     190
 1975 295   111   108   15.0      3   1.64   1813    297      0   2382   2110      0    0.0  0.000      0      0  0.000  0.000  0.022  0.001   3.01   0.00   0.00      0      0     90.4   0.00   0.00   0.68   4.00   4.00   4.00   4.00   2.98   0.26   0.00   0.00   0.00   0.00      0      0      0       0     201
 1975 296   112   109   15.0      3   1.65   1868    325      0   2531   2194      0    0.0  0.000      0      0  0.000  0.000  0.022  0.001   2.99   0.00   0.00      0      0     88.4   0.00   0.00   0.69   4.00   4.00   4.00   4.00   3.32   0.35   0.00   0.00   0.00   0.00      0      0      0       0     213
 1975 297   113   110   15.0      3   1.72   1935    361      0   2618   2296      0    0.0  0.000      0      0  0.000  0.000  0.022  0.001   2.97   0.00   0.00      0      0     88.9   0.00   0.00   0.70   4.00   4.00   4.00   4.00   3.52   0.41   0.00   0.00   0.00   0.00      0      0      0       0     225
 1975 298   114   111   15.0      3   1.83   2036    422      0   2683   2457      0    0.0  0.000      0      0  0.000  0.000  0.022  0.000   2.94   0.00   0.00      0      0     89.7   0.00   0.00   0.71   4.00   4.00   4.00   4.00   3.69   0.46   0.00   0.00   0.00   0.00      0      0      0       0     238
 1975 299   115   112   16.0      3   1.91   2122    479      0   2677   2601      0    0.0  0.000      0      0  0.000  0.000  0.022  0.000   2.91   0.00   0.00      0      0     90.2   0.00   0.00   0.72   3.99   4.00   4.00   4.00   3.69   0.47   0.00   0.00   0.00   0.00      0      0      0       0     252
 1975 300   116   113   16.0      3   2.00   2205    538      0   2742   2743      0    0.0  0.000      0      0  0.000  0.000  0.022  0.000   2.89   0.00   0.00      0      0     90.6   0.00   0.00   0.73   4.00   4.00   4.00   4.00   3.86   0.54   0.00   0.00   0.00   0.00      0      0      0       0     265
 1975 301   117   114   16.0      3   2.06   2272    589      0   2849   2861      0    0.0  0.000      0      0  0.000  0.000  0.022  0.000   2.87   0.00   0.00      0      0     90.8   0.00   0.00   0.74   4.00   4.00   4.00   4.00   4.00   0.66   0.00   0.00   0.00   0.00      0      0      0       0     279
 1975 302   118   115   16.0      3   2.16   2366    666      0   2964   3032      0    0.0  0.000      0      0  0.000  0.000  0.022  0.000   2.85   0.00   0.00      0      0     91.2   0.00   0.00   0.75   4.00   4.00   4.00   4.00   4.00   0.81   0.00   0.00   0.00   0.00      0      0      0       0     293
 1975 303   119   116   17.0      3   2.24   2454    743      0   3104   3196      0    0.0  0.000      0      0  0.000  0.000  0.022  0.000   2.82   0.00   0.00      0      0     91.4   0.00   0.00   0.76   4.00   4.00   4.00   4.00   4.00   1.02   0.00   0.00   0.00   0.00      0      0      0       0     308
 1975 304   120   117   17.0      3   2.31   2523    807      0   3254   3330      0    0.0  0.000      0      0  0.000  0.000  0.022  0.000   2.80   0.00   0.00      0      0     91.6   0.00   0.00   0.77   4.00   4.00   4.00   4.00   4.00   1.27   0.00   0.00   0.00   0.00      0      0      0       0     324
 1975 305   121   118   17.0      3   2.38   2593    875      0   3411   3467      0    0.0  0.000      0      0  0.000  0.000  0.022  0.000   2.78   0.00   0.00      0      0     91.6   0.00   0.00   0.78   4.00   4.00   4.00   4.00   4.00   1.57   0.00   0.00   0.00   0.00      0      0      0       0     340
 1975 306   122   119   17.0      3   2.45   2672    956      0   3556   3628      0    0.0  0.000      0      0  0.000  0.000  0.022  0.000   2.76   0.00   0.00      0      0     91.7   0.00   0.00   0.79   4.00   4.00   4.00   4.00   4.00   1.88   0.00   0.00   0.00   0.00      0      0      0       0     357
 1975 307   123   120   17.0      3   2.53   2752   1044      0   3688   3795      0    0.0  0.000      0      0  0.000  0.000  0.022  0.000   2.74   0.00   0.00      0      0     91.8   0.00   0.00   0.80   4.00   4.00   4.00   4.00   4.00   2.21   0.00   0.00   0.00   0.00      0      0      0       0     375
 1975 308   124   121   18.0      3   2.72   2948   1165      0   3687   4113      0    0.0  0.000      0      0  0.000  0.000  0.022  0.000   2.72   0.00   0.00      0      0     92.2   0.00   0.00   0.81   3.98   3.98   3.98   4.00   4.00   2.25   0.00   0.00   0.00   0.00      0      0      0       0     393
 1975 309   125   122   18.0      3   2.80   3038   1258      0   3679   4296      0    0.0  0.000      0      0  0.000  0.000  0.022  0.000   2.69   0.00   0.00      0      0     92.2   0.00   0.00   0.82   3.97   3.97   3.97   4.00   4.00   2.26   0.00   0.00   0.00   0.00      0      0      0       0     412
 1975 310   126   123   18.0      3   2.87   3114   1360      0   3670   4474      0    0.0  0.000      0      0  0.000  0.000  0.022  0.000   2.66   0.00   0.00      0      0     92.2   0.00   0.00   0.83   3.95   3.95   3.95   4.00   4.00   2.28   0.00   0.00   0.00   0.00      0      0      0       0     430
 1975 311   127   124   18.0      3   2.92   3169   1444      0   3660   4614      0    0.0  0.000      0      0  0.000  0.000  0.022  0.000   2.64   0.00   0.00      0      0     92.1   0.00   0.00   0.84   3.93   3.93   3.93   4.00   4.00   2.30   0.00   0.00   0.00   0.00      0      0      0       0     448
 1975 312   128   125   19.0      3   3.01   3269   1617      0   3656   4887      0    0.0  0.000      0      0  0.000  0.000  0.022  0.000   2.57   0.00   0.00      0      0     92.0   0.00   0.00   0.85   3.92   3.92   3.92   4.00   4.00   2.33   0.00   0.00   0.00   0.00      0      0      0       0     467
 1975 313   129   126   19.0      3   3.08   3347   1764      0   3791   5112      0    0.0  0.000      0      0  0.000  0.000  0.022  0.000   2.50   0.00   0.00      0      0     91.9   0.00   0.00   0.87   3.99   3.99   3.99   4.00   4.00   2.88   0.00   0.00   0.00   0.00      0      0      0       0     485
 1975 314   130   127   19.0      3   3.13   3409   1888      0   3947   5297      0    0.0  0.000      0      0  0.000  0.000  0.022  0.000   2.44   0.00   0.00      0      0     91.8   0.00   0.00   0.87   4.00   4.00   4.00   4.00   4.00   3.54   0.00   0.00   0.00   0.00      0      0      0       0     504
 1975 315   131   128   19.0      3   3.18   3474   2026      0   4075   5500      0    0.0  0.000      0      0  0.000  0.000  0.023  0.000   2.38   0.00   0.00      0      0     91.7   0.00   0.00   0.88   4.00   4.00   4.00   4.00   4.00   4.00   0.00   0.00   0.00   0.00      0      0      0       0     524
 1975 316   132   129   19.0      3   3.24   3538   2170      0   4221   5708      0    0.0  0.000      0      0  0.000  0.000  0.024  0.000   2.32   0.00   0.00      0      0     91.5   0.00   0.00   0.89   4.00   4.00   4.00   4.00   4.00   4.00   0.00   0.00   0.00   0.00      0      0      0       0     544
 1975 317   133   130   20.0      3   3.31   3621   2368      0   4311   5989      0    0.0  0.000      0      0  0.000  0.000  0.026  0.000   2.23   0.00   0.00      0      0     91.3   0.00   0.00   0.91   4.00   4.00   4.00   4.00   4.00   4.00   0.00   0.00   0.00   0.00      0      0      0       0     565
 1975 318   134   131   20.0      3   3.38   3712   2602      0   4400   6313      0    0.0  0.000      0      0  0.000  0.000  0.027  0.000   2.13   0.00   0.00      0      0     91.1   0.00   0.00   0.92   4.00   4.00   4.00   4.00   4.00   4.00   0.29   0.00   0.00   0.00      0      0      0       0     587
 1975 319   135   132   21.0      3   3.41   3751   2711      0   4386   6462      0    0.0  0.000      0      0  0.000  0.000  0.030  0.000   2.12   0.00   0.00      0      0     90.9   0.00   0.00   0.94   3.99   3.99   3.99   3.98   3.98   3.99   0.32   0.00   0.00   0.00      0      0      0       0     609
 1975 320   136   133   21.0      3   3.44   3795   2834      0   4417   6629      0    0.0  0.000      0      0  0.000  0.000  0.034  0.000   2.10   0.00   0.00      0      0     90.5   0.00   0.00   0.94   4.00   4.00   4.00   4.00   4.00   4.00   0.59   0.00   0.00   0.00      0      0      0       0     631
 1975 321   137   134   21.0      3   3.46   3834   2947      0   4590   6781      0    0.0  0.000      0      0  0.000  0.000  0.034  0.000   2.07   0.00   0.00      0      0     90.2   0.00   0.00   0.95   4.00   4.00   4.00   4.00   4.00   4.00   1.65   0.00   0.00   0.00      0      0      0       0     653
 1975 322   138   135   21.0      3   3.47   3865   3039      0   4778   6904      0    0.0  0.000      0      0  0.000  0.000  0.035  0.011   2.06   0.00   0.00      0      0     89.9   0.00   0.00   0.96   4.00   4.00   4.00   4.00   4.00   4.00   2.79   0.00   0.00   0.00      0      0      0       0     676
 1975 323   139   136   21.0      3   3.51   3921   3198      0   4919   7119      0    0.0  0.000      0      0  0.000  0.000  0.036  0.000   2.02   0.00   0.00      0      0     89.5   0.00   0.00   0.97   4.00   4.00   4.00   4.00   4.00   4.00   3.70   0.00   0.00   0.00      0      0      0       0     699
 1975 324   140   137   21.0      3   3.56   3992   3402      0   4959   7394      0    0.0  0.000      0      0  0.000  0.000  0.035  0.000   1.96   0.00   0.00      0      0     89.2   0.00   0.00   0.98   4.00   4.00   4.00   4.00   4.00   4.00   4.00   0.00   0.00   0.00      0      0      0       0     724
 1975 325   141   138   21.0      3   3.61   4055   3580      0   5069   7634      0    0.0  0.000      0      0  0.000  0.000  0.037  0.000   1.91   0.00   0.00      0      0     88.9   0.00   0.00   0.99   4.00   4.00   4.00   4.00   4.00   4.00   4.00   0.00   0.00   0.00      0      0      0       0     749
 1975 326   142   139   21.0      3   3.65   4118   3761      0   5178   7879      0    0.0  0.000      0      0  0.000  0.000  0.039  0.000   1.87   0.00   0.00      0      0     88.6   0.00   0.00   1.00   4.00   4.00   4.00   4.00   4.00   4.00   4.00   0.00   0.00   0.00      0      0      0       0     774
 1975 327   143   140   21.0      3   3.68   4174   3919      0   5265   8093      0    0.0  0.000      0      0  0.000  0.000  0.042  0.000   1.83   0.00   0.00      0      0     88.2   0.00   0.00   1.01   4.00   4.00   4.00   4.00   4.00   4.00   4.00   0.00   0.00   0.00      0      0      0       0     800
 1975 328   144   141   21.0      3   3.70   4218   4044      0   5429   8263      0    0.0  0.000      0      0  0.000  0.000  0.045  0.000   1.80   0.00   0.00      0      0     87.8   0.00   0.00   1.02   4.00   4.00   4.00   4.00   4.00   4.00   4.00   0.00   0.00   0.00      0      0      0       0     826
 1975 329   145   142   21.0      3   3.73   4276   4206      0   5569   8482      0    0.0  0.000      0      0  0.000  0.000  0.046  0.000   1.77   0.00   0.00      0      0     87.3   0.00   0.00   1.03   4.00   4.00   4.00   4.00   4.00   4.00   4.00   0.00   0.00   0.00      0      0      0       0     854
 1975 330   146   143   21.0      4   3.71   4231   3574      0   5677   8684      0    0.0  0.000    878      0  0.000  0.000  0.047  0.000   1.93   0.00   0.10      0    878     87.7   0.00   0.00   1.04   4.00   4.00   4.00   4.00   4.00   4.00   4.00   0.00   0.00   0.00      0      0      0       0     881
 1975 331   147   144   21.0      4   3.69   4184   3646      0   5777   8887      0    0.0  0.000   1057      0  0.000  0.000  0.047  0.000   1.93   0.00   0.12      0   1057     88.2   0.00   0.00   1.06   4.00   4.00   4.00   4.00   4.00   4.00   4.00   0.00   0.00   0.00      0      0      0       0     910
 1975 332   148   145   21.0      4   3.68   4134   3713      0   5759   9072      0    0.0  0.000   1225      0  0.000  0.000  0.032  0.000   1.94   0.00   0.14      0   1225     88.9   0.00   0.00   1.07   4.00   4.00   4.00   3.99   3.99   3.99   4.00   0.00   0.00   0.00      0      0      0       0     939
 1975 333   149   146   21.0      4   3.66   4083   3744      0   5860   9130      0    0.0  0.000   1303      0  0.000  0.000  0.031  0.000   1.95   0.00   0.14      0   1303     89.7   0.00   0.00   1.07   4.00   4.00   4.00   4.00   4.00   4.00   4.00   0.00   0.00   0.00      0      0      0       0     967
 1975 334   150   147   21.0      4   3.60   4031   3777      0   6059   9193      0    0.0  0.000   1386      0  0.000  0.000  0.030  0.000   1.96   0.00   0.15      0   1386     89.3   0.00   0.00   1.08   4.00   4.00   4.00   4.00   4.00   4.00   4.00   0.00   0.00   0.00      0      0      0       0     997
 1975 335   151   148   21.0      4   3.59   3976   3826      0   6227   9311      0    0.0  0.000   1508      0  0.000  0.000  0.028  0.000   1.96   0.00   0.16      0   1508     90.2   0.00   0.00   1.09   4.00   4.00   4.00   4.00   4.00   4.00   4.00   0.00   0.00   0.00      0      0      0       0    1027
 1975 336   152   149   21.0      4   3.58   3920   3901      0   6349   9515      0    0.0  0.000   1695      0  0.000  0.000  0.026  0.000   1.96   0.00   0.18      0   1695     91.2   0.00   0.00   1.10   4.00   4.00   4.00   4.00   4.00   4.00   4.00   0.19   0.00   0.00      0      0      0       0    1058
 1975 337   153   150   21.0      4   3.57   3860   3974      0   6432   9713      0    0.0  0.000   1879      0  0.000  0.000  0.024  0.000   1.96   0.00   0.19      0   1879     92.4   0.00   0.00   1.11   4.00   4.00   4.00   4.00   4.00   4.00   4.00   0.39   0.00   0.00      0      0      0       0    1090
 1975 338   154   151   21.0      4   3.56   3798   4047      0   6551   9905      0    0.0  0.000   2060      0  0.000  0.000  0.022  0.000   1.96   0.00   0.21      0   2060     93.6   0.00   0.00   1.11   4.00   4.00   4.00   4.00   4.00   4.00   4.00   0.71   0.00   0.00      0      0      0       0    1122
 1975 339   155   152   21.0      4   3.55   3734   4113      0   6532  10072      0    0.0  0.000   2225      0  0.000  0.000  0.022  0.000   1.97   0.00   0.22      0   2225     95.0   0.00   0.00   1.12   4.00   4.00   4.00   4.00   3.99   3.99   3.99   0.74   0.00   0.00      0      0      0       0    1155
 1975 340   156   153   21.0      4   3.54   3665   4214      0   6574  10358      0    0.0  0.000   2478      0  0.000  0.000  0.022  0.000   1.96   0.00   0.24      0   2478     96.5   0.00   0.00   1.13   4.00   4.00   4.00   4.00   4.00   4.00   4.00   0.95   0.00   0.00      0      0      0       0    1188
 1975 341   157   154   21.0      4   3.53   3594   4307      0   6613  10610      0    0.0  0.000   2709      0  0.000  0.000  0.022  0.000   1.95   0.00   0.26      0   2709     98.1   0.00   0.00   1.14   4.00   4.00   4.00   4.00   4.00   4.00   4.00   1.16   0.00   0.00      0      0      0       0    1220
 1975 342   158   155   21.0      4   3.52   3520   4384      0   6637  10807      0    0.0  0.000   2903      0  0.000  0.000  0.022  0.000   1.95   0.00   0.27      0   2903     99.9   0.00   0.00   1.15   4.00   4.00   4.00   4.00   4.00   4.00   4.00   1.34   0.00   0.00      0      0      0       0    1253
 1975 343   159   156   21.0      4   3.51   3443   4449      0   6775  10959      0    0.0  0.000   3066      0  0.000  0.000  0.022  0.046   1.94   0.00   0.28      0   3066    101.9   0.00   0.00   1.16   4.00   4.00   4.00   4.00   4.00   4.00   4.00   1.88   0.00   0.00      0      0      0       0    1287
 1975 344   160   157   21.0      5   3.51   3443   4449    285   6818  11243   3905    7.3  0.025   3351      7  0.000  0.000  0.000  0.015   1.88   8.49   0.30      0   3351    101.9   0.00   0.00   1.17   4.00   4.00   4.00   4.00   4.00   4.00   4.00   2.12   0.00   0.00      0      0      0       0    1321
 1975 345   161   158   21.0      5   3.51   3443   4449    529   6872  11487   3905   13.5  0.046   3595      7  0.000  0.000  0.000  0.000   1.83  14.70   0.31      0   3595    101.9   0.00   0.00   1.18   4.00   4.00   4.00   4.00   4.00   4.00   4.00   2.40   0.00   0.00      0      0      0       0    1355
 1975 346   162   159   21.0      5   3.51   3443   4449    821   6899  11780   3905   21.0  0.070   3888      7  0.000  0.000  0.000  0.000   1.77  21.13   0.33      0   3888    101.9   0.00   0.00   1.19   4.00   4.00   4.00   4.00   4.00   4.00   4.00   2.59   0.00   0.00      0      0      0       0    1389
 1975 347   163   160   21.0      5   3.51   3443   4449   1005   6967  11964   3905   25.7  0.084   4071      7  0.000  0.000  0.000  0.000   1.74  24.68   0.34      0   4071    101.9   0.00   0.00   1.20   4.00   4.00   4.00   4.00   4.00   4.00   4.00   2.91   0.00   0.00      0      0      0       0    1423
 1975 348   164   161   21.0      5   3.51   3443   4449   1188   7034  12147   3905   30.4  0.098   4254      7  0.000  0.000  0.000  0.000   1.70  27.93   0.35      0   4254    101.9   0.00   0.00   1.20   4.00   4.00   4.00   4.00   4.00   4.00   4.00   3.21   0.00   0.00      0      0      0       0    1458
 1975 349   165   162   21.0      5   3.51   3443   4449   1481   7055  12440   3905   37.9  0.119   4547      7  0.000  0.000  0.000  0.000   1.64  32.57   0.37      0   4547    101.9   0.00   0.00   1.21   4.00   4.00   4.00   4.00   4.00   4.00   4.00   3.37   0.00   0.00      0      0      0       0    1493
 1975 350   166   163   21.0      5   3.51   3443   4449   1774   7065  12733   3905   45.4  0.139   4840      7  0.000  0.000  0.001  0.000   1.58  36.65   0.38      0   4840    101.8   0.00   0.00   1.23   4.00   4.00   4.00   4.00   4.00   4.00   4.00   3.48   0.00   0.00      0      0      0       0    1529
 1975 351   167   164   21.0      5   3.50   3443   4449   2067   7093  13026   3905   52.9  0.159   5133      7  0.000  0.000  0.009  0.000   1.53  40.26   0.39      0   5133    101.7   0.00   0.00   1.24   4.00   4.00   4.00   4.00   4.00   4.00   4.00   3.65   0.00   0.00      0      0      0       0    1564
 1975 352   168   165   21.0      5   3.50   3443   4449   2360   7127  13318   3905   60.4  0.177   5426      7  0.000  0.000  0.017  0.000   1.47  43.49   0.41      0   5426    101.5   0.00   0.00   1.25   4.00   4.00   4.00   4.00   4.00   4.00   4.00   3.82   0.00   0.00      0      0      0       0    1600
 1975 353   169   166   21.0      5   3.48   3443   4449   2531   7138  13490   3905   64.8  0.188   5597      7  0.000  0.000  0.031  0.000   1.44  45.22   0.41      0   5597    101.1   0.00   0.00   1.25   4.00   4.00   4.00   4.00   4.00   4.00   4.00   3.92   0.00   0.00      0      0      0       0    1635
 1975 354   170   167   21.0      5   3.47   3443   4449   2696   7202  13655   3905   69.1  0.197   5763      7  0.000  0.000  0.037  0.000   1.42  46.79   0.42      0   5763    100.7   0.00   0.00   1.25   4.00   4.00   4.00   4.00   4.00   4.00   4.00   4.00   0.00   0.00      0      0      0       0    1671
 1975 355   171   168   21.0      5   3.45   3443   4449   2952   7244  13911   3905   75.6  0.212   6019      7  0.000  0.000  0.038  0.000   1.37  49.06   0.43      0   6019    100.2   0.00   0.00   1.25   4.00   4.00   4.00   4.00   4.00   4.00   4.00   4.00   0.00   0.00      0      0      0       0    1707
 1975 356   172   169   21.0      5   3.43   3443   4449   3245   7254  14204   3905   83.1  0.228   6311      7  0.000  0.000  0.045  0.000   1.32  51.42   0.44      0   6311     99.6   0.00   0.00   1.25   4.00   4.00   4.00   4.00   4.00   4.00   4.00   4.00   0.00   0.00      0      0      0       0    1743
 1975 357   173   170   21.0      5   3.41   3443   4449   3536   7263  14495   3905   90.5  0.244   6602      7  0.000  0.000  0.056  0.000   1.27  53.56   0.46      0   6602     98.9   0.00   0.00   1.25   4.00   4.00   4.00   4.00   4.00   4.00   4.00   4.00   0.00   0.00      0      0      0       0    1779
 1975 358   174   171   21.0      5   3.38   3443   4449   3805   7286  14764   3905   97.4  0.258   6871      7  0.000  0.000  0.069  0.000   1.23  55.38   0.47      0   6871     98.1   0.00   0.00   1.25   4.00   4.00   4.00   4.00   4.00   4.00   4.00   4.00   0.00   0.00      0      0      0       0    1816
 1975 359   175   172   21.0      5   3.34   3443   4449   4098   7283  15057   3905  104.9  0.272   7164      7  0.000  0.000  0.076  0.000   1.18  57.20   0.48      0   7164     97.1   0.00   0.00   1.25   4.00   4.00   4.00   4.00   4.00   4.00   4.00   4.00   0.00   0.00      0      0      0       0    1852
 1975 360   176   173   21.0      5   3.31   3443   4446   4391   7247  15346   3905  112.4  0.286   7457      7  0.000  0.000  0.087  0.000   1.13  58.88   0.49      0   7457     96.1   0.00   0.00   1.25   4.00   4.00   4.00   4.00   4.00   4.00   4.00   4.00   0.00   0.00      0      0      0       0    1889
 1975 361   177   174   21.0      5   3.27   3443   4449   4641   7224  15599   3905  118.8  0.297   7707      7  0.000  0.000  0.100  0.000   1.10  60.21   0.49      0   7707     94.9   0.00   0.00   1.25   4.00   4.00   4.00   4.00   4.00   3.99   3.99   3.98   0.00   0.00      0      0      0       0    1925
 1975 362   178   175   21.0      5   3.22   3443   4449   4838   7271  15797   3905  123.9  0.306   7904      7  0.000  0.000  0.111  0.003   1.07  61.21   0.50      0   7904     93.5   0.00   0.00   1.25   4.00   4.00   4.00   4.00   4.00   4.00   4.00   4.00   0.00   0.00      0      0      0       0    1961
 1975 363   179   176   21.0      5   3.17   3443   4449   5106   7298  16065   3905  130.8  0.318   8172      7  0.000  0.000  0.117  0.000   1.03  62.48   0.51      0   8172     92.2   0.00   0.00   1.25   4.00   4.00   4.00   4.00   4.00   4.00   4.00   4.00   0.00   0.00      0      0      0       0    1997
 1975 364   180   177   21.0      5   3.12   3443   4449   5399   7316  16358   3905  138.3  0.330   8465      7  0.000  0.000  0.125  0.000   0.99  63.78   0.52      0   8465     90.7   0.00   0.00   1.25   4.00   4.00   4.00   4.00   4.00   4.00   4.00   4.00   0.00   0.00      0      0      0       0    2034
 1975 365   181   178   21.0      5   3.07   3443   4449   5692   7333  16651   3905  145.8  0.342   8758      7  0.000  0.000  0.137  0.000   0.95  64.99   0.53      0   8758     89.2   0.00   0.00   1.25   4.00   4.00   4.00   4.00   4.00   4.00   4.00   4.00   0.00   0.00      0      0      0       0    2070
 1976 001   182   179   21.0      5   3.01   3443   4449   5985   7331  16943   3905  153.3  0.353   9051      7  0.000  0.000  0.147  0.000   0.92  66.12   0.53      0   9051     87.5   0.00   0.00   1.25   4.00   4.00   4.00   4.00   4.00   4.00   4.00   3.99   0.00   0.00      0      0      0       0    2107
 1976 002   183   180   21.0      5   2.95   3443   4449   6277   7318  17236   3905  160.8  0.364   9344      7  0.000  0.000  0.159  0.000   0.88  67.18   0.54      0   9344     85.8   0.00   0.00   1.25   4.00   4.00   4.00   4.00   4.00   4.00   4.00   3.98   0.00   0.00      0      0      0       0    2144
 1976 003   184   181   21.0      5   2.89   3443   4449   6570   7289  17529   3905  168.3  0.375   9636      7  0.000  0.000  0.169  0.000   0.84  68.18   0.55      0   9636     84.0   0.00   0.00   1.25   4.00   4.00   4.00   3.99   3.99   3.99   3.98   3.96   0.00   0.00      0      0      0       0    2180
 1976 004   185   182   21.0      5   2.83   3443   4449   6863   7276  17822   3905  175.8  0.385   9929      7  0.000  0.000  0.182  0.000   0.81  69.12   0.56      0   9929     82.1   0.00   0.00   1.25   4.00   4.00   4.00   4.00   4.00   3.99   3.98   3.95   0.00   0.00      0      0      0       0    2217
 1976 005   186   183   21.0      5   2.76   3443   4305   7156   7240  17970   3905  183.3  0.398  10222      7  0.000  0.000  0.194  0.000   0.79  70.01   0.57      0  10222     80.1   0.00   0.00   1.25   4.00   4.00   4.00   4.00   4.00   3.99   3.98   3.95   0.00   0.00      0      0      0       0    2253
 1976 006   187   184   21.0      5   2.69   3443   4387   7406   7245  18303   3905  189.7  0.405  10472      7  0.000  0.000  0.225  0.000   0.76  70.72   0.57      0  10472     78.0   0.00   0.00   1.25   4.00   4.00   4.00   4.00   4.00   4.00   3.99   3.95   0.00   0.00      0      0      0       0    2289
 1976 007   188   185   21.0      5   2.62   3443   4449   7654   7252  18613   3905  196.0  0.411  10720      7  0.000  0.000  0.225  0.000   0.73  71.40   0.58      0  10720     76.0   0.00   0.00   1.25   4.00   4.00   4.00   4.00   4.00   4.00   4.00   3.95   0.00   0.00      0      0      0       0    2325
 1976 008   189   186   21.0      5   2.54   3443   4382   7926   7216  18817   3905  203.0  0.421  10992      7  0.000  0.000  0.274  0.000   0.71  72.11   0.58      0  10992     73.8   0.00   0.00   1.25   4.00   4.00   4.00   4.00   4.00   4.00   4.00   3.95   0.00   0.00      0      0      0       0    2362
 1976 009   190   187   21.0      5   2.47   3443   4218   8212   7180  18940   3905  210.3  0.434  11278      7  0.000  0.000  0.315  0.000   0.70  72.81   0.60      0  11278     71.6   0.00   0.00   1.25   4.00   4.00   4.00   4.00   4.00   4.00   4.00   3.95   0.00   0.00      0      0      0       0    2398
 1976 010   191   188   21.0      5   2.39   3443   4172   8505   7144  19187   3905  217.8  0.443  11571      7  0.000  0.000  0.339  0.000   0.68  73.50   0.60      0  11571     69.4   0.00   0.00   1.25   4.00   4.00   4.00   4.00   4.00   4.00   4.00   3.95   0.00   0.00      0      0      0       0    2434
 1976 011   192   189   21.0      5   2.32   3443   4199   8798   7122  19507   3905  225.3  0.451  11864      7  0.000  0.000  0.349  0.000   0.65  74.16   0.61      0  11864     67.3   0.00   0.00   1.25   4.00   4.00   4.00   4.00   4.00   3.99   3.99   3.93   0.00   0.00      0      0      0       0    2469
 1976 012   193   190   21.0      5   2.24   3443   4171   9091   7086  19771   3905  232.8  0.460  12157      7  0.000  0.000  0.381  0.000   0.62  74.78   0.61      0  12157     65.1   0.00   0.00   1.25   4.00   4.00   4.00   4.00   4.00   3.99   3.99   3.93   0.00   0.00      0      0      0       0    2505
 1976 013   194   191   21.0      5   2.16   3443   3979   9383   7051  19871   3905  240.3  0.472  12450      7  0.000  0.000  0.426  0.000   0.62  75.37   0.63      0  12450     62.8   0.00   0.00   1.25   4.00   4.00   4.00   4.00   4.00   3.99   3.99   3.93   0.00   0.00      0      0      0       0    2540
 1976 014   195   192   21.0      5   2.05   3443   3816   9658   7015  19983   3905  247.3  0.483  12725      7  0.000  0.000  0.461  0.000   0.61  75.90   0.64      0  12725     59.6   0.00   0.00   1.25   4.00   4.00   4.00   4.00   4.00   3.99   3.99   3.93   0.00   0.00      0      0      0       0    2576
 1976 015   196   193   21.0      5   2.05   3443   3816   9658   7015  19983   3905  247.3  0.483  12725      7  0.000  0.000  0.461  0.000   0.61  75.90   0.64      0  12725     59.6   0.00   0.00   1.25   4.00   4.00   4.00   4.00   4.00   3.99   3.99   3.93   0.00   0.00      0      0      0       0    2576
 1976 016   197   194   21.0      5   2.05   3443   3816   9658   7015  19983   3905  247.3  0.483  12725      7  0.000  0.000  0.461  0.000   0.61  75.90   0.64      0  12725     59.6   0.00   0.00   1.25   4.00   4.00   4.00   4.00   4.00   3.99   3.99   3.93   0.00   0.00      0      0      0       0    2576
 1976 017   198   195   21.0      5   2.05   3443   3816   9658   7015  19983   3905  247.3  0.483  12725      7  0.000  0.000  0.461  0.000   0.61  75.90   0.64      0  12725     59.6   0.00   0.00   1.25   4.00   4.00   4.00   4.00   4.00   3.99   3.99   3.93   0.00   0.00      0      0      0       0    2576
 1976 018   199   196   21.0      5   2.05   3443   3816   9658   7015  19983   3905  247.3  0.483  12725      7  0.000  0.000  0.461  0.000   0.61  75.90   0.64      0  12725     59.6   0.00   0.00   1.25   4.00   4.00   4.00   4.00   4.00   3.99   3.99   3.93   0.00   0.00      0      0      0       0    2576

*DSSAT Cropping System Model Ver. 4.0.2.000               Aug 01, 2016; 15:14:21

*RUN   2        : UYMZ                    
 MODEL          : MZCER040 - Maize           
 EXPERIMENT     : UYMZ0102 MZ    late to create DSS                             
 TREATMENT  1   : UYMZ                    

@YEAR DOY   DAS   DAP   L#SD   GSTD   LAID   LWAD   SWAD   GWAD   RWAD   CWAD   G#AD   GWGD   HIAD   PWAD   P#AD   WSPD   WSGD   NSTD   EWSD   LN%D   SH%D   HIPD   PWDD   PWTD     SLAD   CHTD   CWID   RDPD   RL1D   RL2D   RL3D   RL4D   RL5D   RL6D   RL7D   RL8D   RL9D   RL10   CDAD   LDAD   SDAD   SNW0C   SNW1C
 1976 187     3     0    0.0      0   0.00      0      0      0      0      0      0    0.0  0.000      0      0  0.000  0.000  0.000  0.000   0.00   0.00   0.00      0      0      0.0   0.00   0.00   0.03   0.00   0.00   0.00   0.00   0.00   0.00   0.00   0.00   0.00   0.00      0      0      0       0       0
 1976 188     4     1    0.0      0   0.00      0      0      0      0      0      0    0.0  0.000      0      0  0.000  0.000  0.000  0.000   0.00   0.00   0.00      0      0      0.0   0.00   0.00   0.03   0.00   0.00   0.00   0.00   0.00   0.00   0.00   0.00   0.00   0.00      0      0      0       0       0
 1976 189     5     2    0.0      0   0.00      0      0      0      0      0      0    0.0  0.000      0      0  0.000  0.000  0.000  0.000   0.00   0.00   0.00      0      0      0.0   0.00   0.00   0.03   0.00   0.00   0.00   0.00   0.00   0.00   0.00   0.00   0.00   0.00      0      0      0       0       0
 1976 190     6     3    0.0      0   0.00      0      0      0      0      0      0    0.0  0.000      0      0  0.000  0.000  0.000  0.000   0.00   0.00   0.00      0      0      0.0   0.00   0.00   0.03   0.00   0.00   0.00   0.00   0.00   0.00   0.00   0.00   0.00   0.00      0      0      0       0       0
 1976 191     7     4    0.0      0   0.00      0      0      0      0      0      0    0.0  0.000      0      0  0.000  0.000  0.000  0.000   0.00   0.00   0.00      0      0      0.0   0.00   0.00   0.03   0.00   0.00   0.00   0.00   0.00   0.00   0.00   0.00   0.00   0.00      0      0      0       0       0
 1976 192     8     5    0.0      0   0.00      0      0      0      0      0      0    0.0  0.000      0      0  0.000  0.000  0.000  0.000   0.00   0.00   0.00      0      0      0.0   0.00   0.00   0.03   0.00   0.00   0.00   0.00   0.00   0.00   0.00   0.00   0.00   0.00      0      0      0       0       0
 1976 193     9     6    0.0      0   0.00      0      0      0      0      0      0    0.0  0.000      0      0  0.000  0.000  0.000  0.000   0.00   0.00   0.00      0      0      0.0   0.00   0.00   0.03   0.00   0.00   0.00   0.00   0.00   0.00   0.00   0.00   0.00   0.00      0      0      0       0       0
 1976 194    10     7    0.0      0   0.00      0      0      0      0      0      0    0.0  0.000      0      0  0.000  0.000  0.000  0.000   0.00   0.00   0.00      0      0      0.0   0.00   0.00   0.03   0.00   0.00   0.00   0.00   0.00   0.00   0.00   0.00   0.00   0.00      0      0      0       0       0
 1976 195    11     8    0.0      0   0.00      0      0      0      0      0      0    0.0  0.000      0      0  0.000  0.000  0.000  0.000   0.00   0.00   0.00      0      0      0.0   0.00   0.00   0.03   0.00   0.00   0.00   0.00   0.00   0.00   0.00   0.00   0.00   0.00      0      0      0       0       0
 1976 196    12     9    0.0      0   0.00      0      0      0      0      0      0    0.0  0.000      0      0  0.000  0.000  0.000  0.000   0.00   0.00   0.00      0      0      0.0   0.00   0.00   0.03   0.00   0.00   0.00   0.00   0.00   0.00   0.00   0.00   0.00   0.00      0      0      0       0       0
 1976 197    13    10    0.0      0   0.00      0      0      0      0      0      0    0.0  0.000      0      0  0.000  0.000  0.000  0.000   0.00   0.00   0.00      0      0      0.0   0.00   0.00   0.04   0.00   0.00   0.00   0.00   0.00   0.00   0.00   0.00   0.00   0.00      0      0      0       0       0
 1976 198    14    11    0.0      0   0.00      0      0      0      0      0      0    0.0  0.000      0      0  0.000  0.000  0.000  0.000   0.00   0.00   0.00      0      0      0.0   0.00   0.00   0.04   0.00   0.00   0.00   0.00   0.00   0.00   0.00   0.00   0.00   0.00      0      0      0       0       0
 1976 199    15    12    0.0      0   0.00      0      0      0      0      0      0    0.0  0.000      0      0  0.000  0.000  0.000  0.000   0.00   0.00   0.00      0      0      0.0   0.00   0.00   0.04   0.00   0.00   0.00   0.00   0.00   0.00   0.00   0.00   0.00   0.00      0      0      0       0       0
 1976 200    16    13    0.0      0   0.00      0      0      0      0      0      0    0.0  0.000      0      0  0.000  0.000  0.000  0.000   0.00   0.00   0.00      0      0      0.0   0.00   0.00   0.05   0.00   0.00   0.00   0.00   0.00   0.00   0.00   0.00   0.00   0.00      0      0      0       0       0
 1976 201    17    14    0.0      0   0.00      0      0      0      0      0      0    0.0  0.000      0      0  0.000  0.000  0.000  0.000   0.00   0.00   0.00      0      0      0.0   0.00   0.00   0.06   0.00   0.00   0.00   0.00   0.00   0.00   0.00   0.00   0.00   0.00      0      0      0       0       0
 1976 202    18    15    0.0      0   0.00      0      0      0      0      0      0    0.0  0.000      0      0  0.000  0.000  0.000  0.000   0.00   0.00   0.00      0      0      0.0   0.00   0.00   0.07   0.00   0.00   0.00   0.00   0.00   0.00   0.00   0.00   0.00   0.00      0      0      0       0       0
 1976 203    19    16    0.0      0   0.00      0      0      0      0      0      0    0.0  0.000      0      0  0.000  0.000  0.000  0.000   0.00   0.00   0.00      0      0      0.0   0.00   0.00   0.09   0.00   0.00   0.00   0.00   0.00   0.00   0.00   0.00   0.00   0.00      0      0      0       0       0
 1976 204    20    17    0.0      0   0.00      0      0      0      0      0      0    0.0  0.000      0      0  0.000  0.000  0.000  0.000   0.00   0.00   0.00      0      0      0.0   0.00   0.00   0.11   0.00   0.00   0.00   0.00   0.00   0.00   0.00   0.00   0.00   0.00      0      0      0       0       0
 1976 205    21    18    1.0      1   0.00     14     14      0     14     28      0    0.0  0.000      0      0  0.000  0.000  0.012  0.000   4.40   0.00   0.00      0      0     18.8   0.00   0.00   0.12   0.28   0.08   0.00   0.00   0.00   0.00   0.00   0.00   0.00   0.00      0      0      0       0       0
 1976 206    22    19    2.0      1   0.00     14     14      0     14     28      0    0.0  0.000      0      0  0.000  0.000  0.017  0.000   4.54   0.00   0.00      0      0     31.5   0.00   0.00   0.13   0.25   0.08   0.00   0.00   0.00   0.00   0.00   0.00   0.00   0.00      0      0      0       0       0
 1976 207    23    20    2.0      1   0.01     14     14      0     14     28      0    0.0  0.000      0      0  0.000  0.000  0.000  0.000   4.54   0.00   0.00      0      0     39.6   0.00   0.00   0.13   0.24   0.07   0.00   0.00   0.00   0.00   0.00   0.00   0.00   0.00      0      0      0       0       0
 1976 208    24    21    2.0      1   0.01     14     14      0     14     28      0    0.0  0.000      0      0  0.000  0.000  0.000  0.080   4.51   0.00   0.00      0      0     46.1   0.00   0.00   0.14   0.24   0.08   0.00   0.00   0.00   0.00   0.00   0.00   0.00   0.00      0      0      0       0       0
 1976 209    25    22    2.0      1   0.01     14     14      0     15     28      0    0.0  0.000      0      0  0.000  0.000  0.000  0.031   4.50   0.00   0.00      0      0     54.4   0.00   0.00   0.14   0.24   0.09   0.00   0.00   0.00   0.00   0.00   0.00   0.00   0.00      0      0      0       0       0
 1976 210    26    23    2.0      1   0.01     14     14      0     15     28      0    0.0  0.000      0      0  0.000  0.000  0.000  0.000   4.50   0.00   0.00      0      0     58.4   0.00   0.00   0.14   0.24   0.09   0.00   0.00   0.00   0.00   0.00   0.00   0.00   0.00      0      0      0       0       0
 1976 211    27    24    3.0      1   0.01     14     14      0     16     28      0    0.0  0.000      0      0  0.000  0.000  0.000  0.000   4.50   0.00   0.00      0      0     75.6   0.00   0.00   0.15   0.24   0.10   0.00   0.00   0.00   0.00   0.00   0.00   0.00   0.00      0      0      0       0       0
 1976 212    28    25    3.0      1   0.01     14     14      0     16     28      0    0.0  0.000      0      0  0.000  0.000  0.000  0.000   4.47   0.00   0.00      0      0     81.0   0.00   0.00   0.15   0.24   0.10   0.00   0.00   0.00   0.00   0.00   0.00   0.00   0.00      0      0      0       0       0
 1976 213    29    26    3.0      1   0.01     14     14      0     17     28      0    0.0  0.000      0      0  0.000  0.000  0.000  0.000   4.46   0.00   0.00      0      0     79.8   0.00   0.00   0.16   0.25   0.12   0.00   0.00   0.00   0.00   0.00   0.00   0.00   0.00      0      0      0       0       0
 1976 214    30    27    3.0      1   0.01     14     14      0     17     28      0    0.0  0.000      0      0  0.000  0.000  0.000  0.000   4.46   0.00   0.00      0      0     84.9   0.00   0.00   0.16   0.25   0.12   0.00   0.00   0.00   0.00   0.00   0.00   0.00   0.00      0      0      0       0       0
 1976 215    31    28    3.0      1   0.01     14     14      0     17     28      0    0.0  0.000      0      0  0.000  0.000  0.000  0.000   4.46   0.00   0.00      0      0     91.9   0.00   0.00   0.16   0.23   0.11   0.00   0.00   0.00   0.00   0.00   0.00   0.00   0.00      0      0      0       0       0
 1976 216    32    29    3.0      1   0.01     14     14      0     17     28      0    0.0  0.000      0      0  0.000  0.000  0.000  0.000   4.46   0.00   0.00      0      0    101.6   0.00   0.00   0.17   0.22   0.11   0.00   0.00   0.00   0.00   0.00   0.00   0.00   0.00      0      0      0       0       0
 1976 217    33    30    3.0      1   0.02     14     14      0     18     28      0    0.0  0.000      0      0  0.000  0.000  0.000  0.212   4.46   0.00   0.00      0      0    109.7   0.00   0.00   0.17   0.21   0.11   0.00   0.00   0.00   0.00   0.00   0.00   0.00   0.00      0      0      0       0       0
 1976 218    34    31    3.0      1   0.02     14     14      0     18     28      0    0.0  0.000      0      0  0.000  0.000  0.000  0.285   4.46   0.00   0.00      0      0    120.0   0.00   0.00   0.18   0.19   0.11   0.00   0.00   0.00   0.00   0.00   0.00   0.00   0.00      0      0      0       0       0
 1976 219    35    32    4.0      1   0.02     14     14      0     20     28      0    0.0  0.000      0      0  0.000  0.000  0.000  0.347   4.39   0.00   0.00      0      0    152.4   0.00   0.00   0.18   0.18   0.12   0.01   0.00   0.00   0.00   0.00   0.00   0.00   0.00      0      0      0       0       0
 1976 220    36    33    4.0      1   0.03     14     14      0     22     28      0    0.0  0.000      0      0  0.000  0.000  0.000  0.123   4.38   0.00   0.00      0      0    186.2   0.00   0.00   0.19   0.18   0.14   0.02   0.00   0.00   0.00   0.00   0.00   0.00   0.00      0      0      0       0       0
 1976 221    37    34    4.0      1   0.03     14     14      0     23     28      0    0.0  0.000      0      0  0.000  0.000  0.000  0.026   4.38   0.00   0.00      0      0    216.5   0.00   0.00   0.19   0.17   0.15   0.02   0.00   0.00   0.00   0.00   0.00   0.00   0.00      0      0      0       0       0
 1976 222    38    35    4.0      1   0.03     14     14      0     23     28      0    0.0  0.000      0      0  0.000  0.000  0.000  0.016   4.36   0.00   0.00      0      0    233.8   0.00   0.00   0.20   0.17   0.15   0.02   0.00   0.00   0.00   0.00   0.00   0.00   0.00      0      0      0       0       1
 1976 223    39    36    4.0      1   0.03     14     14      0     26     28      0    0.0  0.000      0      0  0.000  0.000  0.000  0.016   4.36   0.00   0.00      0      0    240.6   0.00   0.00   0.20   0.17   0.17   0.03   0.00   0.00   0.00   0.00   0.00   0.00   0.00      0      0      0       0       1
 1976 224    40    37    4.0      1   0.04     14     14      0     28     28      0    0.0  0.000      0      0  0.000  0.000  0.000  0.016   4.35   0.00   0.00      0      0    255.6   0.00   0.00   0.20   0.18   0.19   0.04   0.00   0.00   0.00   0.00   0.00   0.00   0.00      0      0      0       0       1
 1976 225    41    38    4.0      1   0.04     14     14      0     30     28      0    0.0  0.000      0      0  0.000  0.000  0.000  0.008   4.34   0.00   0.00      0      0    286.6   0.00   0.00   0.20   0.18   0.22   0.06   0.00   0.00   0.00   0.00   0.00   0.00   0.00      0      0      0       0       1
 1976 226    42    39    4.0      1   0.04     14     14      0     33     28      0    0.0  0.000      0      0  0.000  0.000  0.000  0.005   4.34   0.00   0.00      0      0    297.4   0.00   0.00   0.20   0.19   0.24   0.07   0.00   0.00   0.00   0.00   0.00   0.00   0.00      0      0      0       0       1
 1976 227    43    40    4.0      1   0.04     14     14      0     35     28      0    0.0  0.000      0      0  0.000  0.000  0.000  0.000   4.34   0.00   0.00      0      0    285.0   0.00   0.00   0.21   0.19   0.26   0.08   0.00   0.00   0.00   0.00   0.00   0.00   0.00      0      0      0       0       1
 1976 228    44    41    4.0      1   0.03     14     14      0     37     28      0    0.0  0.000      0      0  0.000  0.000  0.000  0.000   4.29   0.00   0.00      0      0    196.9   0.00   0.00   0.21   0.20   0.29   0.09   0.00   0.00   0.00   0.00   0.00   0.00   0.00      0      0      0       0       1
 1976 229    45    42    4.0      1   0.03     15     14      0     38     29      0    0.0  0.000      0      0  0.000  0.000  0.000  0.000   4.13   0.00   0.00      0      0    184.0   0.00   0.00   0.21   0.20   0.29   0.10   0.00   0.00   0.00   0.00   0.00   0.00   0.00      0      0      0       0       1
 1976 230    46    43    4.0      1   0.03     17     14      0     39     31      0    0.0  0.000      0      0  0.000  0.000  0.004  0.000   4.05   0.00   0.00      0      0    193.6   0.00   0.00   0.21   0.21   0.30   0.11   0.00   0.00   0.00   0.00   0.00   0.00   0.00      0      0      0       0       2
 1976 231    47    44    4.0      1   0.03     19     14      0     42     33      0    0.0  0.000      0      0  0.000  0.000  0.000  0.000   4.08   0.00   0.00      0      0    178.3   0.00   0.00   0.22   0.22   0.32   0.12   0.00   0.00   0.00   0.00   0.00   0.00   0.00      0      0      0       0       2
 1976 232    48    45    5.0      1   0.03     20     14      0     43     34      0    0.0  0.000      0      0  0.000  0.000  0.000  0.000   4.15   0.00   0.00      0      0    167.8   0.00   0.00   0.22   0.24   0.34   0.13   0.00   0.00   0.00   0.00   0.00   0.00   0.00      0      0      0       0       2
 1976 233    49    46    5.0      1   0.02     22     14      0     45     36      0    0.0  0.000      0      0  0.000  0.000  0.000  0.000   4.13   0.00   0.00      0      0    109.0   0.00   0.00   0.22   0.26   0.35   0.14   0.00   0.00   0.00   0.00   0.00   0.00   0.00      0      0      0       0       2
 1976 234    50    47    5.0      1   0.02     24     14      0     47     38      0    0.0  0.000      0      0  0.000  0.000  0.000  0.000   4.08   0.00   0.00      0      0    104.4   0.00   0.00   0.22   0.27   0.36   0.14   0.00   0.00   0.00   0.00   0.00   0.00   0.00      0      0      0       0       3
 1976 235    51    48    5.0      1   0.02     26     14      0     48     40      0    0.0  0.000      0      0  0.000  0.000  0.000  0.000   4.02   0.00   0.00      0      0     90.6   0.00   0.00   0.23   0.29   0.37   0.15   0.00   0.00   0.00   0.00   0.00   0.00   0.00      0      0      0       0       3
 1976 236    52    49    5.0      1   0.03     30     14      0     50     44      0    0.0  0.000      0      0  0.000  0.000  0.000  0.000   3.91   0.00   0.00      0      0     87.2   0.00   0.00   0.23   0.30   0.38   0.16   0.00   0.00   0.00   0.00   0.00   0.00   0.00      0      0      0       0       3
 1976 237    53    50    5.0      1   0.04     34     14      0     50     48      0    0.0  0.000      0      0  0.000  0.000  0.000  0.000   3.90   0.00   0.00      0      0    104.9   0.00   0.00   0.24   0.31   0.38   0.16   0.00   0.00   0.00   0.00   0.00   0.00   0.00      0      0      0       0       3
 1976 238    54    51    5.0      1   0.04     38     14      0     50     52      0    0.0  0.000      0      0  0.000  0.000  0.000  0.000   3.91   0.00   0.00      0      0    118.4   0.00   0.00   0.24   0.29   0.35   0.15   0.00   0.00   0.00   0.00   0.00   0.00   0.00      0      0      0       0       3
 1976 239    55    52    5.0      1   0.06     44     14      0     50     58      0    0.0  0.000      0      0  0.000  0.000  0.000  0.000   3.79   0.00   0.00      0      0    133.0   0.00   0.00   0.25   0.27   0.34   0.14   0.00   0.00   0.00   0.00   0.00   0.00   0.00      0      0      0       0       4
 1976 240    56    53    6.0      1   0.07     49     14      0     50     63      0    0.0  0.000      0      0  0.000  0.000  0.000  0.451   3.83   0.00   0.00      0      0    142.6   0.00   0.00   0.26   0.26   0.32   0.14   0.00   0.00   0.00   0.00   0.00   0.00   0.00      0      0      0       0       4
[...]
 1995 314   130   127   20.0      3   3.08   3473   2883      0   3704   6356      0    0.0  0.000      0      0  0.000  0.000  0.024  0.030   2.23   0.00   0.00      0      0     88.7   0.00   0.00   0.94   4.00   4.00   4.00   3.98   4.00   2.95   1.30   0.00   0.00   0.00      0      0      0       0     493
 1995 315   131   128   20.0      3   3.12   3527   3044      0   3806   6572      0    0.0  0.000      0      0  0.000  0.000  0.025  0.000   2.18   0.00   0.00      0      0     88.6   0.00   0.00   0.95   4.00   4.00   4.00   4.00   4.00   3.12   1.80   0.00   0.00   0.00      0      0      0       0     512
 1995 316   132   129   20.0      3   3.18   3590   3231      0   3817   6821      0    0.0  0.000      0      0  0.000  0.000  0.025  0.000   2.13   0.00   0.00      0      0     88.5   0.00   0.00   0.96   4.00   4.00   4.00   4.00   4.00   3.12   1.95   0.00   0.00   0.00      0      0      0       0     531
 1995 317   133   130   20.0      3   3.23   3653   3415      0   3869   7068      0    0.0  0.000      0      0  0.000  0.000  0.026  0.000   2.08   0.00   0.00      0      0     88.3   0.00   0.00   0.97   4.00   4.00   4.00   4.00   4.00   3.15   2.31   0.00   0.00   0.00      0      0      0       0     550
 1995 318   134   131   20.0      3   3.28   3716   3602      0   3950   7319      0    0.0  0.000      0      0  0.000  0.000  0.028  0.000   2.02   0.00   0.00      0      0     88.1   0.00   0.00   0.98   4.00   4.00   4.00   4.00   4.00   3.20   2.83   0.00   0.00   0.00      0      0      0       0     569
 1995 319   135   132   20.0      3   3.32   3774   3770      0   3989   7544      0    0.0  0.000      0      0  0.000  0.000  0.030  0.000   1.98   0.00   0.00      0      0     87.9   0.00   0.00   0.99   4.00   4.00   4.00   4.00   4.00   3.22   3.13   0.00   0.00   0.00      0      0      0       0     589
 1995 320   136   133   20.0      3   3.36   3827   3927      0   4087   7754      0    0.0  0.000      0      0  0.000  0.000  0.032  0.000   1.94   0.00   0.00      0      0     87.7   0.00   0.00   1.00   4.00   4.00   4.00   4.00   4.00   3.28   3.71   0.00   0.00   0.00      0      0      0       0     609
 1995 321   137   134   20.0      4   3.34   3788   3327      0   4220   7911      0    0.0  0.000    796      0  0.000  0.000  0.034  0.019   2.12   0.00   0.10      0    796     88.2   0.00   0.00   1.01   4.00   4.00   4.00   4.00   4.00   3.36   4.00   0.00   0.00   0.00      0      0      0       0     629
 1995 322   138   135   20.0      4   3.33   3747   3390      0   4368   8091      0    0.0  0.000    953      0  0.000  0.000  0.035  0.000   2.13   0.00   0.12      0    953     88.8   0.00   0.00   1.02   4.00   4.00   4.00   4.00   4.00   3.46   4.00   0.00   0.00   0.00      0      0      0       0     650
 1995 323   139   136   20.0      4   3.32   3703   3462      0   4370   8299      0    0.0  0.000   1134      0  0.000  0.000  0.023  0.000   2.12   0.00   0.14      0   1134     89.6   0.00   0.00   1.04   4.00   4.00   4.00   4.00   4.00   3.46   4.00   0.00   0.00   0.00      0      0      0       0     672
 1995 324   140   137   20.0      4   3.31   3657   3548      0   4378   8553      0    0.0  0.000   1348      0  0.000  0.000  0.022  0.000   2.12   0.00   0.16      0   1348     90.5   0.00   0.00   1.05   4.00   4.00   4.00   4.00   4.00   3.46   4.00   0.00   0.00   0.00      0      0      0       0     694
 1995 325   141   138   20.0      4   3.30   3608   3607      0   4507   8710      0    0.0  0.000   1495      0  0.000  0.000  0.022  0.000   2.12   0.00   0.17      0   1495     91.5   0.00   0.00   1.06   4.00   4.00   4.00   4.00   4.00   3.57   4.00   0.00   0.00   0.00      0      0      0       0     716
 1995 326   142   139   20.0      4   3.29   3558   3658      0   4683   8840      0    0.0  0.000   1624      0  0.000  0.000  0.022  0.000   2.12   0.00   0.18      0   1624     92.5   0.00   0.00   1.07   4.00   4.00   4.00   4.00   4.00   3.72   4.00   0.00   0.00   0.00      0      0      0       0     738
 1995 327   143   140   20.0      4   3.28   3507   3714      0   4820   8982      0    0.0  0.000   1762      0  0.000  0.000  0.022  0.000   2.11   0.00   0.20      0   1762     93.6   0.00   0.00   1.08   4.00   4.00   4.00   4.00   4.00   3.85   4.00   0.00   0.00   0.00      0      0      0       0     762
 1995 328   144   141   20.0      4   3.27   3452   3795      0   4919   9213      0    0.0  0.000   1966      0  0.000  0.000  0.022  0.000   2.10   0.00   0.21      0   1966     94.8   0.00   0.00   1.09   4.00   4.00   4.00   4.00   4.00   3.96   4.00   0.00   0.00   0.00      0      0      0       0     786
 1995 329   145   142   20.0      4   3.26   3396   3842      0   5080   9321      0    0.0  0.000   2083      0  0.000  0.000  0.022  0.000   2.09   0.00   0.22      0   2083     96.1   0.00   0.00   1.10   4.00   4.00   4.00   4.00   4.00   4.00   4.00   0.23   0.00   0.00      0      0      0       0     811
 1995 330   146   143   20.0      4   3.26   3338   3888      0   5265   9424      0    0.0  0.000   2197      0  0.000  0.000  0.022  0.000   2.08   0.00   0.23      0   2197     97.5   0.00   0.00   1.10   4.00   4.00   4.00   4.00   4.00   4.00   4.00   0.56   0.00   0.00      0      0      0       0     836
 1995 331   147   144   20.0      4   3.25   3278   3959      0   5401   9613      0    0.0  0.000   2376      0  0.000  0.000  0.022  0.000   2.05   0.00   0.25      0   2376     99.0   0.00   0.00   1.11   4.00   4.00   4.00   4.00   4.00   4.00   4.00   0.89   0.00   0.00      0      0      0       0     862
 1995 332   148   145   20.0      4   3.24   3216   4036      0   5526   9818      0    0.0  0.000   2566      0  0.000  0.000  0.022  0.000   2.01   0.00   0.26      0   2566    100.7   0.00   0.00   1.12   4.00   4.00   4.00   4.00   4.00   4.00   4.00   1.26   0.00   0.00      0      0      0       0     889
 1995 333   149   146   20.0      4   3.23   3151   4090      0   5507   9945      0    0.0  0.000   2703      0  0.000  0.000  0.022  0.000   2.01   0.00   0.27      0   2703    102.5   0.00   0.00   1.13   4.00   4.00   4.00   3.99   3.99   3.99   3.98   1.27   0.00   0.00      0      0      0       0     889
 1995 334   150   147   20.0      4   3.22   3083   4177      0   5527  10179      0    0.0  0.000   2920      0  0.000  0.000  0.022  0.000   2.01   0.00   0.29      0   2920    104.5   0.00   0.00   1.14   4.00   4.00   4.00   4.00   4.00   4.00   3.99   1.41   0.00   0.00      0      0      0       0     889
 1995 335   151   148   20.0      4   3.21   3012   4259      0   5615  10396      0    0.0  0.000   3125      0  0.000  0.000  0.022  0.000   2.01   0.00   0.30      0   3125    106.6   0.00   0.00   1.15   4.00   4.00   4.00   4.00   4.00   4.00   4.00   1.76   0.00   0.00      0      0      0       0     889
 1995 336   152   149   20.0      5   3.21   3012   4259    269   5665  10666   3997    6.7  0.025   3394      7  0.000  0.000  0.000  0.000   1.88   7.93   0.32      0   3394    106.6   0.00   0.00   1.16   4.00   4.00   4.00   4.00   4.00   4.00   4.00   1.92   0.00   0.00      0      0      0       0     917
 1995 337   153   150   20.0      5   3.21   3012   4259    569   5706  10965   3997   14.2  0.052   3694      7  0.000  0.000  0.000  0.000   1.85  15.41   0.34      0   3694    106.6   0.00   0.00   1.17   4.00   4.00   4.00   4.00   4.00   4.00   4.00   2.05   0.00   0.00      0      0      0       0     946
 1995 338   154   151   20.0      5   3.21   3012   4259    869   5748  11265   3997   21.7  0.077   3994      7  0.000  0.000  0.000  0.000   1.80  21.75   0.35      0   3994    106.6   0.00   0.00   1.18   4.00   4.00   4.00   4.00   4.00   4.00   4.00   2.34   0.00   0.00      0      0      0       0     974
 1995 339   155   152   20.0      5   3.21   3012   4259   1169   5755  11565   3997   29.2  0.101   4293      7  0.000  0.000  0.000  0.000   1.74  27.22   0.37      0   4293    106.6   0.00   0.00   1.19   4.00   4.00   4.00   4.00   4.00   4.00   4.00   2.48   0.00   0.00      0      0      0       0    1003
 1995 340   156   153   20.0      5   3.21   3012   4259   1316   5837  11712   3997   32.9  0.112   4441      7  0.000  0.000  0.000  0.000   1.72  29.63   0.38      0   4441    106.6   0.00   0.00   1.20   4.00   4.00   4.00   4.00   4.00   4.00   4.00   2.95   0.00   0.00      0      0      0       0    1032
 1995 341   157   154   20.0      5   3.13   3012   4259   1418   5930  11815   3997   35.5  0.120   4543      7  0.000  0.000  0.000  0.000   1.71  31.22   0.38      0   4543    103.9   0.00   0.00   1.20   4.00   4.00   4.00   4.00   4.00   4.00   4.00   3.46   0.00   0.00      0      0      0       0    1061
 1995 342   158   155   20.0      5   3.13   3012   4259   1595   6003  11991   3997   39.9  0.133   4720      7  0.000  0.000  0.000  0.000   1.68  33.79   0.39      0   4720    103.9   0.00   0.00   1.21   4.00   4.00   4.00   4.00   4.00   4.00   4.00   3.87   0.00   0.00      0      0      0       0    1091
 1995 343   159   156   20.0      5   3.13   3012   4259   1824   6054  12220   3997   45.6  0.149   4949      7  0.000  0.000  0.000  0.000   1.63  36.86   0.40      0   4949    103.9   0.00   0.00   1.22   4.00   4.00   4.00   4.00   4.00   4.00   4.00   4.00   0.00   0.00      0      0      0       0    1121
 1995 344   160   157   20.0      5   3.12   3012   4259   1980   6134  12376   3997   49.5  0.160   5105      7  0.000  0.000  0.000  0.000   1.60  38.79   0.41      0   5105    103.5   0.00   0.00   1.22   4.00   4.00   4.00   4.00   4.00   4.00   4.00   4.00   0.00   0.00      0      0      0       0    1151
 1995 345   161   158   20.0      5   3.12   3012   4259   2273   6179  12669   3997   56.9  0.179   5397      7  0.000  0.000  0.000  0.000   1.54  42.10   0.43      0   5397    103.5   0.00   0.00   1.23   4.00   4.00   4.00   4.00   4.00   4.00   4.00   4.00   0.00   0.00      0      0      0       0    1182
 1995 346   162   159   20.0      5   3.12   3012   4259   2471   6232  12867   3997   61.8  0.192   5596      7  0.000  0.000  0.005  0.000   1.51  44.16   0.43      0   5596    103.4   0.00   0.00   1.24   4.00   4.00   4.00   4.00   4.00   4.00   4.00   4.00   0.00   0.00      0      0      0       0    1212
 1995 347   163   160   20.0      5   3.11   3012   4259   2751   6272  13148   3997   68.8  0.209   5876      7  0.000  0.000  0.009  0.000   1.45  46.82   0.45      0   5876    103.3   0.00   0.00   1.25   4.00   4.00   4.00   4.00   4.00   4.00   4.00   4.00   0.00   0.00      0      0      0       0    1244
 1995 348   164   161   20.0      5   3.10   3012   4259   3051   6304  13447   3997   76.3  0.227   6176      7  0.000  0.000  0.020  0.000   1.40  49.40   0.46      0   6176    103.1   0.00   0.00   1.25   4.00   4.00   4.00   4.00   4.00   4.00   4.00   4.00   0.00   0.00      0      0      0       0    1275
 1995 349   165   162   20.0      5   3.09   3012   4259   3351   6322  13747   3997   83.8  0.244   6476      7  0.000  0.000  0.032  0.000   1.34  51.75   0.47      0   6476    102.7   0.00   0.00   1.25   4.00   4.00   4.00   4.00   4.00   4.00   4.00   4.00   0.00   0.00      0      0      0       0    1306
 1995 350   166   163   20.0      5   3.08   3012   4259   3651   6340  14047   3997   91.3  0.260   6776      7  0.000  0.000  0.043  0.000   1.29  53.88   0.48      0   6776    102.1   0.00   0.00   1.25   4.00   4.00   4.00   4.00   4.00   4.00   4.00   4.00   0.00   0.00      0      0      0       0    1338
 1995 351   167   164   20.0      5   3.05   3012   4259   3932   6375  14328   3997   98.4  0.274   7057      7  0.000  0.000  0.057  0.000   1.24  55.72   0.49      0   7057    101.4   0.00   0.00   1.25   4.00   4.00   4.00   4.00   4.00   4.00   4.00   4.00   0.00   0.00      0      0      0       0    1370
 1995 352   168   165   20.0      5   3.03   3012   4259   4197   6406  14593   3997  105.0  0.288   7322      7  0.000  0.000  0.069  0.000   1.20  57.32   0.50      0   7322    100.5   0.00   0.00   1.25   4.00   4.00   4.00   4.00   4.00   4.00   4.00   4.00   0.00   0.00      0      0      0       0    1402
 1995 353   169   166   20.0      5   3.00   3012   4259   4496   6391  14893   3997  112.5  0.302   7621      7  0.000  0.000  0.077  0.000   1.15  59.00   0.51      0   7621     99.5   0.00   0.00   1.25   4.00   4.00   4.00   4.00   4.00   3.99   3.99   4.00   0.00   0.00      0      0      0       0    1434
 1995 354   170   167   20.0      5   2.96   3012   4161   4796   6359  15094   3997  120.0  0.318   7921      7  0.000  0.000  0.090  0.000   1.11  60.55   0.52      0   7921     98.4   0.00   0.00   1.25   4.00   4.00   4.00   4.00   4.00   3.99   3.99   4.00   0.00   0.00      0      0      0       0    1466
 1995 355   171   168   20.0      5   2.93   3012   4021   5096   6327  15254   3997  127.5  0.334   8221      7  0.000  0.000  0.103  0.000   1.09  61.99   0.54      0   8221     97.1   0.00   0.00   1.25   4.00   4.00   4.00   4.00   4.00   3.99   3.99   4.00   0.00   0.00      0      0      0       0    1497
 1995 356   172   169   20.0      5   2.89   3012   3896   5396   6295  15429   3997  135.0  0.350   8521      7  0.000  0.000  0.110  0.049   1.06  63.33   0.55      0   8521     95.8   0.00   0.00   1.25   4.00   4.00   4.00   4.00   4.00   3.99   3.99   4.00   0.00   0.00      0      0      0       0    1529
 1995 357   173   170   20.0      5   2.84   3012   3975   5695   6303  15807   3997  142.5  0.360   8820      7  0.000  0.000  0.115  0.017   1.00  64.57   0.56      0   8820     94.4   0.00   0.00   1.25   4.00   4.00   4.00   4.00   4.00   4.00   4.00   4.00   0.00   0.00      0      0      0       0    1561
 1995 358   174   171   20.0      5   2.80   3012   4075   5973   6322  16185   3997  149.5  0.369   9098      7  0.000  0.000  0.123  0.000   0.95  65.65   0.56      0   9098     93.0   0.00   0.00   1.25   4.00   4.00   4.00   4.00   4.00   4.00   4.00   4.00   0.00   0.00      0      0      0       0    1592
 1995 359   175   172   20.0      5   2.75   3012   4192   6221   6349  16550   3997  155.6  0.376   9346      7  0.000  0.000  0.141  0.000   0.90  66.56   0.56      0   9346     91.3   0.00   0.00   1.25   4.00   4.00   4.00   4.00   4.00   4.00   4.00   4.00   0.00   0.00      0      0      0       0    1624
 1995 360   176   173   20.0      5   2.70   3012   4259   6505   6369  16901   3997  162.7  0.385   9630      7  0.000  0.000  0.159  0.000   0.85  67.55   0.57      0   9630     89.5   0.00   0.00   1.25   4.00   4.00   4.00   4.00   4.00   4.00   4.00   4.00   0.00   0.00      0      0      0       0    1655
 1995 361   177   174   20.0      5   2.64   3012   4259   6792   6377  17188   3997  169.9  0.395   9917      7  0.000  0.000  0.180  0.000   0.82  68.49   0.58      0   9917     87.5   0.00   0.00   1.25   4.00   4.00   4.00   4.00   4.00   4.00   4.00   3.99   0.00   0.00      0      0      0       0    1687
 1995 362   178   175   20.0      5   2.57   3012   4259   7090   6359  17486   3997  177.4  0.405  10214      7  0.000  0.000  0.197  0.000   0.79  69.41   0.58      0  10214     85.3   0.00   0.00   1.25   4.00   4.00   4.00   4.00   4.00   3.99   3.99   3.98   0.00   0.00      0      0      0       0    1719
 1995 363   179   176   20.0      5   2.50   3012   4259   7361   6341  17757   3997  184.2  0.415  10486      7  0.000  0.000  0.232  0.000   0.76  70.20   0.59      0  10486     83.1   0.00   0.00   1.25   4.00   4.00   4.00   4.00   3.99   3.99   3.98   3.96   0.00   0.00      0      0      0       0    1751
 1995 364   180   177   20.0      5   2.43   3012   4259   7655   6327  18051   3997  191.5  0.424  10780      7  0.000  0.000  0.265  0.000   0.73  71.01   0.60      0  10780     80.8   0.00   0.00   1.25   4.00   4.00   4.00   4.00   4.00   3.99   3.97   3.95   0.00   0.00      0      0      0       0    1783
 1995 365   181   178   20.0      5   2.36   3012   4259   7955   6319  18351   3997  199.0  0.433  11080      7  0.000  0.000  0.301  0.000   0.70  71.80   0.60      0  11080     78.4   0.00   0.00   1.25   4.00   4.00   4.00   4.00   4.00   3.99   3.97   3.94   0.00   0.00      0      0      0       0    1814
 1996 001   182   179   20.0      5   2.29   3012   4259   8248   6294  18645   3997  206.4  0.442  11373      7  0.000  0.000  0.341  0.000   0.67  72.52   0.61      0  11373     76.0   0.00   0.00   1.25   4.00   4.00   4.00   3.99   3.99   3.98   3.96   3.92   0.00   0.00      0      0      0       0    1846
 1996 002   183   180   20.0      5   2.22   3012   4259   8548   6273  18944   3997  213.9  0.451  11673      7  0.000  0.000  0.381  0.000   0.65  73.23   0.62      0  11673     73.5   0.00   0.00   1.25   4.00   4.00   4.00   3.98   3.98   3.97   3.94   3.91   0.00   0.00      0      0      0       0    1877
 1996 003   184   181   20.0      5   2.14   3012   4243   8848   6242  19228   3997  221.4  0.460  11973      7  0.000  0.000  0.411  0.000   0.63  73.90   0.62      0  11973     71.1   0.00   0.00   1.25   4.00   4.00   4.00   3.98   3.98   3.97   3.94   3.91   0.00   0.00      0      0      0       0    1909
 1996 004   185   182   20.0      5   2.06   3012   4136   9148   6210  19421   3997  228.9  0.471  12273      7  0.000  0.000  0.449  0.000   0.61  74.54   0.63      0  12273     68.5   0.00   0.00   1.25   4.00   4.00   4.00   3.98   3.98   3.97   3.94   3.91   0.00   0.00      0      0      0       0    1940
 1996 005   186   183   20.0      5   1.99   3012   4071   9447   6179  19656   3997  236.4  0.481  12572      7  0.000  0.000  0.481  0.000   0.60  75.14   0.64      0  12572     66.0   0.00   0.00   1.25   4.00   4.00   4.00   3.98   3.98   3.97   3.94   3.91   0.00   0.00      0      0      0       0    1971
 1996 006   187   184   20.0      5   1.91   3012   4107   9635   6167  19880   3997  241.1  0.485  12760      7  0.000  0.000  0.499  0.000   0.58  75.51   0.64      0  12760     63.5   0.00   0.00   1.25   4.00   4.00   4.00   3.99   3.98   3.97   3.94   3.89   0.00   0.00      0      0      0       0    2002
 1996 007   188   185   20.0      5   1.84   3012   4122   9861   6143  20119   3997  246.7  0.490  12985      7  0.000  0.000  0.503  0.000   0.57  75.94   0.65      0  12985     61.2   0.00   0.00   1.25   4.00   4.00   4.00   3.98   3.97   3.96   3.92   3.88   0.00   0.00      0      0      0       0    2033
 1996 008   189   186   20.0      5   1.77   3012   4090  10119   6112  20346   3997  253.2  0.497  13244      7  0.000  0.000  0.527  0.000   0.56  76.40   0.65      0  13244     58.8   0.00   0.00   1.25   4.00   4.00   4.00   3.98   3.97   3.96   3.92   3.88   0.00   0.00      0      0      0       0    2063
 1996 009   190   187   20.0      5   1.77   3012   4090  10119   6112  20346   3997  253.2  0.497  13244      7  0.000  0.000  0.527  0.000   0.56  76.40   0.65      0  13244     58.8   0.00   0.00   1.25   4.00   4.00   4.00   3.98   3.97   3.96   3.92   3.88   0.00   0.00      0      0      0       0    2063
 1996 010   191   188   20.0      5   1.77   3012   4090  10119   6112  20346   3997  253.2  0.497  13244      7  0.000  0.000  0.527  0.000   0.56  76.40   0.65      0  13244     58.8   0.00   0.00   1.25   4.00   4.00   4.00   3.98   3.97   3.96   3.92   3.88   0.00   0.00      0      0      0       0    2063
 1996 011   192   189   20.0      5   1.77   3012   4090  10119   6112  20346   3997  253.2  0.497  13244      7  0.000  0.000  0.527  0.000   0.56  76.40   0.65      0  13244     58.8   0.00   0.00   1.25   4.00   4.00   4.00   3.98   3.97   3.96   3.92   3.88   0.00   0.00      0      0      0       0    2063
