*PLANT N OUTPUT FILE

*DSSAT Cropping System Model Ver. 4.0.2.000               Aug 01, 2016; 15:14:21

*RUN   1        : UYMZ                    
 MODEL          : MZCER040 - Maize           
 EXPERIMENT     : UYMZ0102 MZ    late to create DSS                             
 TREATMENT  1   : UYMZ                    

@YEAR DOY   DAS   DAP   CNAD   GNAD   VNAD   GN%D   VN%D   NUPC   LNAD   SNAD   LN%D   SN%D   RN%D   SNN0C   SNN1C
 1975 187     3     0    0.0    0.0    0.0   0.00   0.00    0.0    0.0    0.0    0.0   0.00   0.00    0.00    0.00
 1975 188     4     1    0.0    0.0    0.0   0.00   0.00    0.0    0.0    0.0    0.0   0.00   0.00    0.00    0.00
 1975 189     5     2    0.0    0.0    0.0   0.00   0.00    0.0    0.0    0.0    0.0   0.00   0.00    0.00    0.00
 1975 190     6     3    0.0    0.0    0.0   0.00   0.00    0.0    0.0    0.0    0.0   0.00   0.00    0.00    0.00
 1975 191     7     4    0.0    0.0    0.0   0.00   0.00    0.0    0.0    0.0    0.0   0.00   0.00    0.00    0.00
 1975 192     8     5    0.0    0.0    0.0   0.00   0.00    0.0    0.0    0.0    0.0   0.00   0.00    0.00    0.00
 1975 193     9     6    0.0    0.0    0.0   0.00   0.00    0.0    0.0    0.0    0.0   0.00   0.00    0.00    0.00
 1975 194    10     7    0.0    0.0    0.0   0.00   0.00    0.0    0.0    0.0    0.0   0.00   0.00    0.00    0.00
 1975 195    11     8    0.0    0.0    0.0   0.00   0.00    0.0    0.0    0.0    0.0   0.00   0.00    0.00    0.00
 1975 196    12     9    0.0    0.0    0.0   0.00   0.00    0.0    0.0    0.0    0.0   0.00   0.00    0.00    0.00
 1975 197    13    10    0.0    0.0    0.0   0.00   0.00    0.0    0.0    0.0    0.0   0.00   0.00    0.00    0.00
 1975 198    14    11    0.0    0.0    0.0   0.00   0.00    0.0    0.0    0.0    0.0   0.00   0.00    0.00    0.00
 1975 199    15    12    0.0    0.0    0.0   0.00   0.00    0.0    0.0    0.0    0.0   0.00   0.00    0.00    0.00
 1975 200    16    13    0.0    0.0    0.0   0.00   0.00    0.0    0.0    0.0    0.0   0.00   0.00    0.00    0.00
 1975 201    17    14    0.0    0.0    0.0   0.00   0.00    0.0    0.0    0.0    0.0   0.00   0.00    0.00    0.00
 1975 202    18    15    0.0    0.0    0.0   0.00   0.00    0.0    0.0    0.0    0.0   0.00   0.00    0.00    0.00
 1975 203    19    16    0.0    0.0    0.0   0.00   0.00    0.0    0.0    0.0    0.0   0.00   0.00    0.00    0.00
 1975 204    20    17    0.0    0.0    0.0   0.00   0.00    0.0    0.0    0.0    0.0   0.00   0.00    0.00    0.00
 1975 205    21    18    0.0    0.0    0.0   0.00   0.00    0.0    0.0    0.0    0.0   0.00   0.00    0.00    0.00
 1975 206    22    19    0.0    0.0    0.0   0.00   0.00    0.0    0.0    0.0    0.0   0.00   0.00    0.00    0.00
 1975 207    23    20    0.0    0.0    0.0   0.00   0.00    0.0    0.0    0.0    0.0   0.00   0.00    0.00    0.00
 1975 208    24    21    0.0    0.0    0.0   0.00   0.00    0.0    0.0    0.0    0.0   0.00   0.00    0.00    0.00
 1975 209    25    22    0.0    0.0    0.0   0.00   0.00    0.0    0.0    0.0    0.0   0.00   0.00    0.00    0.00
 1975 210    26    23    1.2    0.0    1.2   0.00   4.40    0.0    0.6    0.6    4.4   4.40   0.00    0.00    0.00
 1975 211    27    24    1.3    0.0    1.3   0.00   4.56    0.2    0.6    0.6    4.6   4.56   1.07    0.00    0.00
 1975 212    28    25    1.3    0.0    1.3   0.00   4.56    0.2    0.6    0.6    4.6   4.56   1.07    0.00    0.00
 1975 213    29    26    1.3    0.0    1.3   0.00   4.56    0.2    0.6    0.6    4.6   4.56   1.06    0.00    0.00
 1975 214    30    27    1.3    0.0    1.3   0.00   4.56    0.2    0.6    0.6    4.6   4.56   1.04    0.00    0.00
 1975 215    31    28    1.3    0.0    1.3   0.00   4.56    0.2    0.6    0.6    4.6   4.56   1.03    0.00    0.00
 1975 216    32    29    1.3    0.0    1.3   0.00   4.49    0.2    0.6    0.6    4.5   4.49   1.14    0.00    0.00
 1975 217    33    30    1.3    0.0    1.3   0.00   4.49    0.2    0.6    0.6    4.5   4.49   1.14    0.00    0.00
 1975 218    34    31    1.3    0.0    1.3   0.00   4.49    0.2    0.6    0.6    4.5   4.49   1.14    0.00    0.00
 1975 219    35    32    1.3    0.0    1.3   0.00   4.49    0.2    0.6    0.6    4.5   4.49   1.13    0.00    0.00
 1975 220    36    33    1.3    0.0    1.3   0.00   4.49    0.2    0.6    0.6    4.5   4.49   1.13    0.00    0.00
 1975 221    37    34    1.3    0.0    1.3   0.00   4.49    0.2    0.6    0.6    4.5   4.49   1.13    0.00    0.00
 1975 222    38    35    1.3    0.0    1.3   0.00   4.49    0.2    0.6    0.6    4.5   4.49   1.12    0.00    0.00
 1975 223    39    36    1.3    0.0    1.3   0.00   4.49    0.2    0.6    0.6    4.5   4.49   1.11    0.00    0.00
 1975 224    40    37    1.3    0.0    1.3   0.00   4.49    0.2    0.6    0.6    4.5   4.49   1.04    0.00    0.00
 1975 225    41    38    1.2    0.0    1.2   0.00   4.42    0.2    0.6    0.6    4.4   4.42   1.17    0.00    0.00
 1975 226    42    39    1.2    0.0    1.2   0.00   4.42    0.2    0.6    0.6    4.4   4.42   1.16    0.00    0.00
 1975 227    43    40    1.2    0.0    1.2   0.00   4.42    0.2    0.6    0.6    4.4   4.42   1.14    0.00    0.00
 1975 228    44    41    1.2    0.0    1.2   0.00   4.42    0.2    0.6    0.6    4.4   4.42   1.10    0.00    0.00
 1975 229    45    42    1.2    0.0    1.2   0.00   4.38    0.2    0.6    0.6    4.4   4.38   1.18    0.00    0.00
 1975 230    46    43    1.2    0.0    1.2   0.00   4.36    0.2    0.6    0.6    4.4   4.36   1.16    0.00    0.01
 1975 231    47    44    1.2    0.0    1.2   0.00   4.34    0.3    0.6    0.6    4.3   4.34   1.18    0.00    0.01
 1975 232    48    45    1.2    0.0    1.2   0.00   4.32    0.3    0.6    0.6    4.3   4.32   1.14    0.00    0.01
 1975 233    49    46    1.2    0.0    1.2   0.00   3.69    0.3    0.7    0.5    3.7   3.69   1.14    0.00    0.01
 1975 234    50    47    1.4    0.0    1.4   0.00   3.72    0.5    0.9    0.5    3.7   3.72   1.09    0.00    0.01
 1975 235    51    48    1.6    0.0    1.6   0.00   3.78    0.7    1.1    0.5    3.8   3.78   1.10    0.00    0.01
 1975 236    52    49    1.8    0.0    1.8   0.00   3.90    1.0    1.3    0.5    3.9   3.90   1.21    0.00    0.01
 1975 237    53    50    2.0    0.0    2.0   0.00   4.19    1.2    1.4    0.6    4.2   4.19   1.21    0.00    0.02
 1975 238    54    51    2.0    0.0    2.0   0.00   4.20    1.4    1.4    0.6    4.2   4.20   1.60    0.00    0.02
 1975 239    55    52    2.0    0.0    2.0   0.00   4.12    1.4    1.4    0.6    4.1   4.12   1.49    0.00    0.02
 1975 240    56    53    2.0    0.0    2.0   0.00   3.78    1.4    1.5    0.5    3.8   3.78   1.36    0.00    0.02
 1975 241    57    54    2.2    0.0    2.2   0.00   4.00    1.6    1.7    0.6    4.0   4.00   1.26    0.00    0.02
 1975 242    58    55    2.3    0.0    2.3   0.00   4.00    1.8    1.8    0.6    4.0   4.00   1.22    0.00    0.03
 1975 243    59    56    2.4    0.0    2.4   0.00   3.91    2.0    1.9    0.5    3.9   3.91   1.19    0.00    0.03
 1975 244    60    57    2.6    0.0    2.6   0.00   3.69    2.2    2.1    0.5    3.7   3.69   1.17    0.00    0.03
 1975 245    61    58    2.9    0.0    2.9   0.00   3.73    2.7    2.4    0.5    3.7   3.73   1.22    0.00    0.04
 1975 246    62    59    3.3    0.0    3.3   0.00   3.77    3.2    2.7    0.5    3.8   3.77   1.22    0.00    0.04
 1975 247    63    60    3.6    0.0    3.6   0.00   3.70    3.5    3.0    0.5    3.7   3.70   1.15    0.00    0.05
 1975 248    64    61    4.0    0.0    4.0   0.00   3.61    3.9    3.5    0.5    3.6   3.61   1.09    0.00    0.05
 1975 249    65    62    4.5    0.0    4.5   0.00   4.03    4.6    3.9    0.6    4.0   4.03   1.21    0.00    0.06
 1975 250    66    63    4.6    0.0    4.6   0.00   3.94    5.0    4.0    0.6    3.9   3.94   1.32    0.00    0.07
 1975 251    67    64    4.6    0.0    4.6   0.00   3.75    5.0    4.0    0.5    3.8   3.75   1.29    0.00    0.07
 1975 252    68    65    4.9    0.0    4.9   0.00   3.79    5.2    4.4    0.5    3.8   3.79   1.11    0.00    0.07
 1975 253    69    66    5.3    0.0    5.3   0.00   3.79    5.7    4.8    0.5    3.8   3.79   1.16    0.00    0.08
 1975 254    70    67    5.7    0.0    5.7   0.00   3.85    6.5    5.1    0.5    3.8   3.85   1.26    0.00    0.09
 1975 255    71    68    5.9    0.0    5.9   0.00   3.67    6.5    5.4    0.5    3.7   3.67   1.08    0.00    0.10
 1975 256    72    69    6.5    0.0    6.5   0.00   3.66    7.4    6.0    0.5    3.7   3.66   1.18    0.00    0.11
 1975 257    73    70    7.1    0.0    7.1   0.00   3.72    8.1    6.6    0.5    3.7   3.72   1.14    0.00    0.12
 1975 258    74    71    7.6    0.0    7.6   0.00   3.74    9.2    7.1    0.5    3.7   3.74   1.24    0.00    0.13
 1975 259    75    72    8.1    0.0    8.1   0.00   3.70    9.8    7.6    0.5    3.7   3.70   1.18    0.00    0.14
 1975 260    76    73    8.6    0.0    8.6   0.00   3.60   10.9    8.1    0.5    3.6   3.60   1.20    0.00    0.16
 1975 261    77    74    9.5    0.0    9.5   0.00   3.61   11.4    9.0    0.5    3.6   3.61   1.08    0.00    0.18
 1975 262    78    75   10.3    0.0   10.3   0.00   3.55   12.2    9.8    0.5    3.6   3.55   1.08    0.00    0.19
 1975 263    79    76   11.2    0.0   11.2   0.00   3.67   14.2   10.7    0.5    3.7   3.67   1.22    0.00    0.21
 1975 264    80    77   11.9    0.0   11.9   0.00   3.53   15.1   11.4    0.5    3.5   3.53   1.17    0.00    0.23
 1975 265    81    78   12.9    0.0   12.9   0.00   3.57   17.1   12.4    0.5    3.6   3.57   1.23    0.00    0.25
 1975 266    82    79   14.9    0.0   14.9   0.00   3.78   19.8   14.4    0.5    3.8   3.78   1.21    0.00    0.28
 1975 267    83    80   15.2    0.0   15.2   0.00   3.73   20.3   14.7    0.5    3.7   3.73   1.18    0.00    0.31
 1975 268    84    81   15.3    0.0   15.3   0.00   3.65   21.5   14.8    0.5    3.7   3.65   1.29    0.00    0.34
 1975 269    85    82   15.7    0.0   15.7   0.00   3.62   22.1   15.1    0.5    3.6   3.62   1.21    0.00    0.38
 1975 270    86    83   16.7    0.0   16.7   0.00   3.56   22.4   16.2    0.5    3.6   3.56   1.09    0.00    0.41
 1975 271    87    84   18.4    0.0   18.4   0.00   3.52   24.4   17.9    0.5    3.5   3.52   1.10    0.00    0.45
 1975 272    88    85   19.6    0.0   19.6   0.00   3.50   25.5   19.1    0.5    3.5   3.50   1.08    0.00    0.48
 1975 273    89    86   20.9    0.0   20.9   0.00   3.47   28.4   20.4    0.6    3.5   3.47   1.18    0.00    0.52
 1975 274    90    87   22.1    0.0   22.1   0.00   3.45   30.4   21.5    0.6    3.4   3.45   1.17    0.00    0.56
 1975 275    91    88   23.1    0.0   23.1   0.00   3.47   31.1   22.4    0.6    3.5   3.47   1.12    0.00    0.61
 1975 276    92    89   23.7    0.0   23.7   0.00   3.43   33.4   23.1    0.7    3.4   3.43   1.19    0.00    0.66
 1975 277    93    90   24.7    0.0   24.7   0.00   3.41   35.0   24.0    0.7    3.4   3.41   1.16    0.00    0.71
 1975 278    94    91   25.6    0.0   25.6   0.00   3.40   36.9   24.9    0.8    3.4   3.40   1.16    0.00    0.77
 1975 279    95    92   27.3    0.0   27.3   0.00   3.37   38.1   26.4    0.9    3.4   3.37   1.10    0.00    0.83
 1975 280    96    93   30.3    0.0   30.3   0.00   3.34   41.6   29.2    1.2    3.3   3.34   1.10    0.00    0.89
 1975 281    97    94   31.6    0.0   31.6   0.00   3.34   44.7   30.3    1.3    3.3   3.34   1.18    0.00    0.95
 1975 282    98    95   32.7    0.0   32.7   0.00   3.34   46.9   31.3    1.4    3.3   3.34   1.18    0.00    1.02
 1975 283    99    96   33.6    0.0   33.6   0.00   3.31   48.5   32.1    1.5    3.3   3.31   1.16    0.00    1.10
 1975 284   100    97   34.8    0.0   34.8   0.00   3.28   50.1   33.2    1.7    3.3   3.28   1.12    0.00    1.18
 1975 285   101    98   36.3    0.0   36.3   0.00   3.26   52.0   34.5    1.9    3.3   3.26   1.11    0.00    1.26
 1975 286   102    99   38.9    0.0   38.9   0.00   3.24   54.8   36.6    2.3    3.2   3.24   1.10    0.00    1.35
 1975 287   103   100   41.2    0.0   41.2   0.00   3.21   58.2   38.5    2.7    3.2   3.21   1.12    0.00    1.43
 1975 288   104   101   43.9    0.0   43.9   0.00   3.19   61.8   40.6    3.2    3.2   3.19   1.12    0.00    1.52
 1975 289   105   102   47.0    0.0   47.0   0.00   3.16   65.7   43.1    3.9    3.2   3.16   1.12    0.00    1.62
 1975 290   106   103   50.0    0.0   50.0   0.00   3.13   70.1   45.3    4.7    3.1   3.13   1.13    0.00    1.72
 1975 291   107   104   53.0    0.0   53.0   0.00   3.10   74.2   47.5    5.5    3.1   3.10   1.13    0.00    1.82
 1975 292   108   105   56.2    0.0   56.2   0.00   3.07   77.7   49.7    6.5    3.1   3.07   1.11    0.00    1.93
 1975 293   109   106   59.2    0.0   59.2   0.00   3.05   81.6   51.8    7.4    3.0   3.05   1.11    0.00    2.05
 1975 294   110   107   61.5    0.0   61.5   0.00   3.02   85.8   53.3    8.2    3.0   3.02   1.13    0.00    2.16
 1975 295   111   108   63.5    0.0   63.5   0.00   3.01   89.6   54.5    8.9    3.0   3.01   1.14    0.00    2.29
 1975 296   112   109   65.6    0.0   65.6   0.00   2.99   93.4   55.9    9.7    3.0   2.99   1.14    0.00    2.42
 1975 297   113   110   68.2    0.0   68.2   0.00   2.97   96.2   57.5   10.7    3.0   2.97   1.11    0.00    2.57
 1975 298   114   111   72.3    0.0   72.3   0.00   2.94  100.8   59.9   12.4    2.9   2.94   1.10    0.00    2.71
 1975 299   115   112   75.8    0.0   75.8   0.00   2.91  103.4   61.8   14.0    2.9   2.91   1.07    0.00    2.86
 1975 300   116   113   79.3    0.0   79.3   0.00   2.89  108.4   63.7   15.6    2.9   2.89   1.10    0.00    3.00
 1975 301   117   114   82.1    0.0   82.1   0.00   2.87  112.8   65.2   16.9    2.9   2.87   1.11    0.00    3.15
 1975 302   118   115   86.3    0.0   86.3   0.00   2.85  118.4   67.3   18.9    2.8   2.85   1.11    0.00    3.31
 1975 303   119   116   90.2    0.0   90.2   0.00   2.82  124.0   69.2   21.0    2.8   2.82   1.12    0.00    3.48
 1975 304   120   117   93.3    0.0   93.3   0.00   2.80  128.9   70.7   22.6    2.8   2.80   1.12    0.00    3.65
 1975 305   121   118   96.5    0.0   96.5   0.00   2.78  133.9   72.1   24.3    2.8   2.78   1.12    0.00    3.83
 1975 306   122   119  100.2    0.0  100.2   0.00   2.76  139.1   73.8   26.4    2.8   2.76   1.12    0.00    4.02
 1975 307   123   120  104.0    0.0  104.0   0.00   2.74  144.1   75.4   28.6    2.7   2.74   1.11    0.00    4.22
 1975 308   124   121  111.8    0.0  111.8   0.00   2.72  150.5   80.1   31.7    2.7   2.72   1.07    0.00    4.43
 1975 309   125   122  115.5    0.0  115.5   0.00   2.69  154.1   81.7   33.8    2.7   2.69   1.07    0.00    4.62
 1975 310   126   123  119.0    0.0  119.0   0.00   2.66  157.5   82.8   36.2    2.7   2.66   1.07    0.00    4.82
 1975 311   127   124  121.8    0.0  121.8   0.00   2.64  160.1   83.7   38.1    2.6   2.64   1.07    0.00    5.02
 1975 312   128   125  125.6    0.0  125.6   0.00   2.57  163.9   84.0   41.6    2.6   2.57   1.07    0.00    5.21
 1975 313   129   126  127.7    0.0  127.7   0.00   2.50  167.0   83.6   44.1    2.5   2.50   1.06    0.00    5.41
 1975 314   130   127  129.5    0.0  129.5   0.00   2.44  169.6   83.3   46.1    2.4   2.44   1.03    0.00    5.61
 1975 315   131   128  131.0    0.0  131.0   0.00   2.38  171.8   82.8   48.3    2.4   2.38   1.02    0.00    5.81
 1975 316   132   129  132.3    0.0  132.3   0.00   2.32  173.5   82.0   50.3    2.3   2.32   0.99    0.00    6.02
 1975 317   133   130  133.5    0.0  133.5   0.00   2.23  175.2   80.7   52.8    2.2   2.23   0.98    0.00    6.23
 1975 318   134   131  134.7    0.0  134.7   0.00   2.13  176.6   79.2   55.5    2.1   2.13   0.97    0.00    6.44
 1975 319   135   132  137.1    0.0  137.1   0.00   2.12  179.5   79.6   57.5    2.1   2.12   0.98    0.00    6.65
 1975 320   136   133  139.0    0.0  139.0   0.00   2.10  181.9   79.6   59.4    2.1   2.10   0.98    0.00    6.87
 1975 321   137   134  140.7    0.0  140.7   0.00   2.07  184.1   79.6   61.2    2.1   2.07   0.96    0.00    7.08
 1975 322   138   135  142.3    0.0  142.3   0.00   2.06  186.2   79.7   62.6    2.1   2.06   0.93    0.00    7.30
 1975 323   139   136  143.7    0.0  143.7   0.00   2.02  188.2   79.1   64.5    2.0   2.02   0.91    0.00    7.52
 1975 324   140   137  145.0    0.0  145.0   0.00   1.96  189.9   78.3   66.7    2.0   1.96   0.91    0.00    7.75
 1975 325   141   138  146.1    0.0  146.1   0.00   1.91  191.4   77.6   68.5    1.9   1.91   0.90    0.00    7.98
 1975 326   142   139  147.1    0.0  147.1   0.00   1.87  192.8   76.9   70.2    1.9   1.87   0.89    0.00    8.21
 1975 327   143   140  148.2    0.0  148.2   0.00   1.83  194.1   76.4   71.7    1.8   1.83   0.88    0.00    8.44
 1975 328   144   141  149.1    0.0  149.1   0.00   1.80  195.4   76.1   73.0    1.8   1.80   0.86    0.00    8.67
 1975 329   145   142  150.0    0.0  150.0   0.00   1.77  196.6   75.6   74.4    1.8   1.77   0.84    0.00    8.90
 1975 330   146   143  150.8    0.0  150.8   0.00   1.93  197.8   81.7   69.1    1.9   1.93   0.83    0.00    9.14
 1975 331   147   144  151.4    0.0  151.4   0.00   1.93  198.9   80.9   70.5    1.9   1.93   0.83    0.00    9.37
 1975 332   148   145  152.0    0.0  152.0   0.00   1.94  199.9   80.1   71.9    1.9   1.94   0.84    0.00    9.61
 1975 333   149   146  152.5    0.0  152.5   0.00   1.95  200.9   79.6   73.0    1.9   1.95   0.83    0.00    9.85
 1975 334   150   147  152.9    0.0  152.9   0.00   1.96  201.8   78.9   74.0    2.0   1.96   0.81    0.00   10.10
 1975 335   151   148  153.2    0.0  153.2   0.00   1.96  202.6   78.1   75.1    2.0   1.96   0.80    0.00   10.34
 1975 336   152   149  153.4    0.0  153.4   0.00   1.96  203.4   76.9   76.5    2.0   1.96   0.79    0.00   10.59
 1975 337   153   150  153.8    0.0  153.8   0.00   1.96  204.5   75.8   78.0    2.0   1.96   0.79    0.00   10.84
 1975 338   154   151  154.0    0.0  154.0   0.00   1.96  205.6   74.6   79.4    2.0   1.96   0.79    0.00   11.09
 1975 339   155   152  154.2    0.0  154.2   0.00   1.97  206.9   73.4   80.8    2.0   1.97   0.81    0.00   11.35
 1975 340   156   153  154.3    0.0  154.3   0.00   1.96  208.1   71.8   82.5    2.0   1.96   0.82    0.00   11.62
 1975 341   157   154  154.2    0.0  154.2   0.00   1.95  209.4   70.2   84.1    2.0   1.95   0.83    0.00   11.89
 1975 342   158   155  153.9    0.0  153.9   0.00   1.95  210.4   68.5   85.3    1.9   1.95   0.85    0.00   12.16
 1975 343   159   156  153.3    0.0  153.3   0.00   1.94  211.4   66.9   86.4    1.9   1.94   0.86    0.00   12.45
 1975 344   160   157  153.3    4.8  148.4   1.70   1.88  212.5   64.8   83.7    1.9   1.88   0.87    0.00   12.74
 1975 345   161   158  153.5    9.0  144.5   1.70   1.83  213.9   63.1   81.5    1.8   1.83   0.88    0.00   13.03
 1975 346   162   159  153.8   14.0  139.8   1.70   1.77  215.0   61.0   78.8    1.8   1.77   0.89    0.00   13.33
 1975 347   163   160  154.1   17.1  137.0   1.70   1.74  216.0   59.8   77.2    1.7   1.74   0.89    0.00   13.64
 1975 348   164   161  154.4   20.2  134.2   1.70   1.70  217.0   58.5   75.6    1.7   1.70   0.89    0.00   13.95
 1975 349   165   162  154.8   25.2  129.6   1.70   1.64  218.0   56.5   73.1    1.6   1.64   0.89    0.00   14.26
 1975 350   166   163  155.2   30.1  125.1   1.70   1.58  219.0   54.6   70.5    1.6   1.58   0.90    0.00   14.58
 1975 351   167   164  155.7   35.1  120.6   1.70   1.53  219.9   52.6   68.0    1.5   1.53   0.90    0.00   14.89
 1975 352   168   165  156.2   40.1  116.1   1.70   1.47  220.8   50.6   65.4    1.5   1.47   0.90    0.00   15.21
 1975 353   169   166  156.5   42.8  113.7   1.69   1.44  221.6   49.6   64.1    1.4   1.44   0.91    0.00   15.53
 1975 354   170   167  157.1   45.4  111.7   1.69   1.42  222.7   48.7   63.0    1.4   1.42   0.91    0.00   15.86
 1975 355   171   168  157.6   49.5  108.1   1.68   1.37  223.5   47.2   61.0    1.4   1.37   0.90    0.00   16.18
 1975 356   172   169  158.2   54.0  104.2   1.66   1.32  224.5   45.5   58.7    1.3   1.32   0.91    0.00   16.51
 1975 357   173   170  158.7   58.4  100.3   1.65   1.27  225.4   43.8   56.5    1.3   1.27   0.91    0.00   16.84
 1975 358   174   171  159.3   62.4   96.9   1.64   1.23  226.2   42.3   54.6    1.2   1.23   0.91    0.00   17.17
 1975 359   175   172  159.8   66.7   93.1   1.63   1.18  227.0   40.6   52.5    1.2   1.18   0.92    0.00   17.50
 1975 360   176   173  160.4   70.9   89.5   1.61   1.13  227.9   39.1   50.4    1.1   1.13   0.92    0.00   17.84
 1975 361   177   174  160.8   74.3   86.5   1.60   1.10  228.5   37.7   48.8    1.1   1.10   0.93    0.00   18.17
 1975 362   178   175  161.4   77.0   84.4   1.59   1.07  229.3   36.8   47.6    1.1   1.07   0.93    0.00   18.51
 1975 363   179   176  162.2   80.5   81.7   1.58   1.03  230.5   35.6   46.0    1.0   1.03   0.93    0.00   18.85
 1975 364   180   177  162.7   84.3   78.4   1.56   0.99  231.2   34.2   44.2    1.0   0.99   0.93    0.00   19.18
 1975 365   181   178  163.4   88.0   75.3   1.55   0.95  232.2   32.9   42.5    1.0   0.95   0.93    0.00   19.52
 1976 001   182   179  163.9   91.7   72.3   1.53   0.92  233.0   31.5   40.7    0.9   0.92   0.93    0.00   19.86
 1976 002   183   180  164.6   95.2   69.4   1.52   0.88  233.9   30.3   39.1    0.9   0.88   0.94    0.00   20.20
 1976 003   184   181  165.1   98.7   66.4   1.50   0.84  234.5   29.0   37.4    0.8   0.84   0.94    0.00   20.55
 1976 004   185   182  166.0  102.0   63.9   1.49   0.81  235.7   27.9   36.0    0.8   0.81   0.95    0.00   20.89
 1976 005   186   183  166.5  105.2   61.3   1.47   0.79  236.4   27.3   34.1    0.8   0.79   0.95    0.00   21.23
 1976 006   187   184  167.3  107.7   59.6   1.45   0.76  237.4   26.2   33.4    0.8   0.76   0.96    0.00   21.58
 1976 007   188   185  167.8  110.3   57.5   1.44   0.73  238.1   25.1   32.4    0.7   0.73   0.96    0.00   21.92
 1976 008   189   186  168.6  112.9   55.6   1.42   0.71  239.0   24.5   31.2    0.7   0.71   0.96    0.00   22.27
 1976 009   190   187  169.1  115.6   53.6   1.41   0.70  239.7   24.1   29.5    0.7   0.70   0.97    0.00   22.62
 1976 010   191   188  169.7  118.2   51.5   1.39   0.68  240.4   23.3   28.2    0.7   0.68   0.98    0.00   22.97
 1976 011   192   189  170.2  120.8   49.4   1.37   0.65  241.1   22.3   27.2    0.6   0.65   0.98    0.00   23.32
 1976 012   193   190  170.9  123.3   47.6   1.36   0.62  241.9   21.5   26.1    0.6   0.62   0.99    0.00   23.66
 1976 013   194   191  171.5  125.7   45.9   1.34   0.62  242.7   21.3   24.6    0.6   0.62   0.99    0.00   24.01
 1976 014   195   192  172.1  127.8   44.3   1.32   0.61  243.3   21.0   23.3    0.6   0.61   1.00    0.00   24.36
 1976 015   196   193  172.1  127.8   44.3   1.32   0.61  244.0   21.0   23.3    0.6   0.61   1.00    0.00   24.36
 1976 016   197   194  172.1  127.8   44.3   1.32   0.61  244.6   21.0   23.3    0.6   0.61   1.00    0.00   24.36
 1976 017   198   195  172.1  127.8   44.3   1.32   0.61  245.2   21.0   23.3    0.6   0.61   1.00    0.00   24.36
 1976 018   199   196  172.1  127.8   44.3   1.32   0.61  245.9   21.0   23.3    0.6   0.61   1.00    0.00   24.36

*DSSAT Cropping System Model Ver. 4.0.2.000               Aug 01, 2016; 15:14:21

*RUN   2        : UYMZ                    
 MODEL          : MZCER040 - Maize           
 EXPERIMENT     : UYMZ0102 MZ    late to create DSS                             
 TREATMENT  1   : UYMZ                    

@YEAR DOY   DAS   DAP   CNAD   GNAD   VNAD   GN%D   VN%D   NUPC   LNAD   SNAD   LN%D   SN%D   RN%D   SNN0C   SNN1C
 1976 187     3     0    0.0    0.0    0.0   0.00   0.00    0.0    0.0    0.0    0.0   0.00   0.00    0.00    0.00
 1976 188     4     1    0.0    0.0    0.0   0.00   0.00    0.0    0.0    0.0    0.0   0.00   0.00    0.00    0.00
 1976 189     5     2    0.0    0.0    0.0   0.00   0.00    0.0    0.0    0.0    0.0   0.00   0.00    0.00    0.00
 1976 190     6     3    0.0    0.0    0.0   0.00   0.00    0.0    0.0    0.0    0.0   0.00   0.00    0.00    0.00
 1976 191     7     4    0.0    0.0    0.0   0.00   0.00    0.0    0.0    0.0    0.0   0.00   0.00    0.00    0.00
 1976 192     8     5    0.0    0.0    0.0   0.00   0.00    0.0    0.0    0.0    0.0   0.00   0.00    0.00    0.00
 1976 193     9     6    0.0    0.0    0.0   0.00   0.00    0.0    0.0    0.0    0.0   0.00   0.00    0.00    0.00
 1976 194    10     7    0.0    0.0    0.0   0.00   0.00    0.0    0.0    0.0    0.0   0.00   0.00    0.00    0.00
 1976 195    11     8    0.0    0.0    0.0   0.00   0.00    0.0    0.0    0.0    0.0   0.00   0.00    0.00    0.00
 1976 196    12     9    0.0    0.0    0.0   0.00   0.00    0.0    0.0    0.0    0.0   0.00   0.00    0.00    0.00
 1976 197    13    10    0.0    0.0    0.0   0.00   0.00    0.0    0.0    0.0    0.0   0.00   0.00    0.00    0.00
 1976 198    14    11    0.0    0.0    0.0   0.00   0.00    0.0    0.0    0.0    0.0   0.00   0.00    0.00    0.00
 1976 199    15    12    0.0    0.0    0.0   0.00   0.00    0.0    0.0    0.0    0.0   0.00   0.00    0.00    0.00
 1976 200    16    13    0.0    0.0    0.0   0.00   0.00    0.0    0.0    0.0    0.0   0.00   0.00    0.00    0.00
 1976 201    17    14    0.0    0.0    0.0   0.00   0.00    0.0    0.0    0.0    0.0   0.00   0.00    0.00    0.00
 1976 202    18    15    0.0    0.0    0.0   0.00   0.00    0.0    0.0    0.0    0.0   0.00   0.00    0.00    0.00
 1976 203    19    16    0.0    0.0    0.0   0.00   0.00    0.0    0.0    0.0    0.0   0.00   0.00    0.00    0.00
 1976 204    20    17    0.0    0.0    0.0   0.00   0.00    0.0    0.0    0.0    0.0   0.00   0.00    0.00    0.00
 1976 205    21    18    1.2    0.0    1.2   0.00   4.40    0.0    0.6    0.6    4.4   4.40   0.00    0.00    0.00
 1976 206    22    19    1.3    0.0    1.3   0.00   4.54    0.2    0.6    0.6    4.5   4.54   1.08    0.00    0.00
 1976 207    23    20    1.3    0.0    1.3   0.00   4.54    0.2    0.6    0.6    4.5   4.54   1.07    0.00    0.00
 1976 208    24    21    1.3    0.0    1.3   0.00   4.51    0.2    0.6    0.6    4.5   4.51   1.12    0.00    0.00
 1976 209    25    22    1.3    0.0    1.3   0.00   4.50    0.2    0.6    0.6    4.5   4.50   1.13    0.00    0.00
 1976 210    26    23    1.3    0.0    1.3   0.00   4.50    0.2    0.6    0.6    4.5   4.50   1.11    0.00    0.00
 1976 211    27    24    1.3    0.0    1.3   0.00   4.50    0.2    0.6    0.6    4.5   4.50   1.09    0.00    0.00
 1976 212    28    25    1.3    0.0    1.3   0.00   4.47    0.2    0.6    0.6    4.5   4.47   1.13    0.00    0.00
 1976 213    29    26    1.2    0.0    1.2   0.00   4.46    0.2    0.6    0.6    4.5   4.46   1.18    0.00    0.00
 1976 214    30    27    1.2    0.0    1.2   0.00   4.46    0.2    0.6    0.6    4.5   4.46   1.17    0.00    0.00
 1976 215    31    28    1.2    0.0    1.2   0.00   4.46    0.2    0.6    0.6    4.5   4.46   1.16    0.00    0.00
 1976 216    32    29    1.2    0.0    1.2   0.00   4.46    0.2    0.6    0.6    4.5   4.46   1.14    0.00    0.00
 1976 217    33    30    1.2    0.0    1.2   0.00   4.46    0.2    0.6    0.6    4.5   4.46   1.12    0.00    0.00
 1976 218    34    31    1.2    0.0    1.2   0.00   4.46    0.2    0.6    0.6    4.5   4.46   1.09    0.00    0.00
 1976 219    35    32    1.2    0.0    1.2   0.00   4.39    0.2    0.6    0.6    4.4   4.39   1.17    0.00    0.00
 1976 220    36    33    1.2    0.0    1.2   0.00   4.38    0.3    0.6    0.6    4.4   4.38   1.21    0.00    0.01
 1976 221    37    34    1.2    0.0    1.2   0.00   4.38    0.3    0.6    0.6    4.4   4.38   1.17    0.00    0.01
 1976 222    38    35    1.2    0.0    1.2   0.00   4.36    0.3    0.6    0.6    4.4   4.36   1.16    0.00    0.01
 1976 223    39    36    1.2    0.0    1.2   0.00   4.36    0.3    0.6    0.6    4.4   4.36   1.31    0.00    0.01
 1976 224    40    37    1.2    0.0    1.2   0.00   4.35    0.3    0.6    0.6    4.4   4.35   1.26    0.00    0.01
 1976 225    41    38    1.2    0.0    1.2   0.00   4.34    0.4    0.6    0.6    4.3   4.34   1.26    0.00    0.01
 1976 226    42    39    1.2    0.0    1.2   0.00   4.34    0.4    0.6    0.6    4.3   4.34   1.31    0.00    0.01
 1976 227    43    40    1.2    0.0    1.2   0.00   4.34    0.4    0.6    0.6    4.3   4.34   1.33    0.00    0.02
 1976 228    44    41    1.2    0.0    1.2   0.00   4.29    0.5    0.6    0.6    4.3   4.29   1.28    0.00    0.02
 1976 229    45    42    1.2    0.0    1.2   0.00   4.13    0.5    0.6    0.6    4.1   4.13   1.26    0.00    0.02
 1976 230    46    43    1.3    0.0    1.3   0.00   4.05    0.5    0.7    0.6    4.0   4.05   1.13    0.00    0.02
 1976 231    47    44    1.3    0.0    1.3   0.00   4.08    0.6    0.8    0.6    4.1   4.08   1.17    0.00    0.02
 1976 232    48    45    1.4    0.0    1.4   0.00   4.15    0.7    0.8    0.6    4.1   4.15   1.18    0.00    0.03
 1976 233    49    46    1.5    0.0    1.5   0.00   4.13    0.8    0.9    0.6    4.1   4.13   1.18    0.00    0.03
 1976 234    50    47    1.5    0.0    1.5   0.00   4.08    0.8    1.0    0.6    4.1   4.08   1.13    0.00    0.03
 1976 235    51    48    1.6    0.0    1.6   0.00   4.02    0.9    1.0    0.6    4.0   4.02   1.12    0.00    0.03
 1976 236    52    49    1.7    0.0    1.7   0.00   3.91    1.0    1.2    0.5    3.9   3.91   1.09    0.00    0.04
 1976 237    53    50    1.9    0.0    1.9   0.00   3.90    1.2    1.3    0.5    3.9   3.90   1.07    0.00    0.04
 1976 238    54    51    2.0    0.0    2.0   0.00   3.91    1.3    1.5    0.5    3.9   3.91   1.08    0.00    0.04
 1976 239    55    52    2.2    0.0    2.2   0.00   3.79    1.5    1.7    0.5    3.8   3.79   1.08    0.00    0.04
 1976 240    56    53    2.4    0.0    2.4   0.00   3.83    1.7    1.9    0.5    3.8   3.83   1.08    0.00    0.05
 1976 241    57    54    2.6    0.0    2.6   0.00   4.00    2.1    2.1    0.6    4.0   4.00   1.21    0.00    0.05
 1976 242    58    55    2.8    0.0    2.8   0.00   3.98    2.3    2.2    0.6    4.0   3.98   1.26    0.00    0.05
 1976 243    59    56    2.9    0.0    2.9   0.00   3.73    2.5    2.4    0.5    3.7   3.73   1.19    0.00    0.06
 1976 244    60    57    3.2    0.0    3.2   0.00   3.57    2.9    2.7    0.5    3.6   3.57   1.14    0.00    0.06
 1976 245    61    58    3.7    0.0    3.7   0.00   3.77    3.3    3.2    0.5    3.8   3.77   1.08    0.00    0.07
 1976 246    62    59    4.0    0.0    4.0   0.00   3.72    3.6    3.5    0.5    3.7   3.72   1.09    0.00    0.07
 1976 247    63    60    4.4    0.0    4.4   0.00   3.56    4.3    3.9    0.5    3.6   3.56   1.28    0.00    0.07
 1976 248    64    61    5.0    0.0    5.0   0.00   4.01    5.2    4.5    0.6    4.0   4.01   1.38    0.00    0.08
 1976 249    65    62    5.1    0.0    5.1   0.00   4.03    5.3    4.5    0.6    4.0   4.03   1.31    0.00    0.09
 1976 250    66    63    5.2    0.0    5.2   0.00   4.01    5.4    4.6    0.6    4.0   4.01   1.29    0.00    0.09
 1976 251    67    64    5.2    0.0    5.2   0.00   3.93    5.4    4.6    0.5    3.9   3.93   1.29    0.00    0.09
 1976 252    68    65    5.2    0.0    5.2   0.00   3.83    5.4    4.6    0.5    3.8   3.83   1.29    0.00    0.09
 1976 253    69    66    5.5    0.0    5.5   0.00   3.70    5.6    5.0    0.5    3.7   3.70   1.13    0.00    0.10
 1976 254    70    67    6.0    0.0    6.0   0.00   3.95    6.4    5.4    0.6    4.0   3.95   1.30    0.00    0.11
 1976 255    71    68    6.1    0.0    6.1   0.00   3.95    6.7    5.6    0.6    4.0   3.95   1.31    0.00    0.12
 1976 256    72    69    6.1    0.0    6.1   0.00   3.76    6.7    5.6    0.5    3.8   3.76   1.27    0.00    0.12
 1976 257    73    70    6.6    0.0    6.6   0.00   3.92    6.9    6.0    0.5    3.9   3.92   1.08    0.00    0.13
 1976 258    74    71    6.8    0.0    6.8   0.00   3.55    7.2    6.3    0.5    3.5   3.55   1.13    0.00    0.13
 1976 259    75    72    7.6    0.0    7.6   0.00   3.70    8.4    7.1    0.5    3.7   3.70   1.19    0.00    0.14
 1976 260    76    73    8.2    0.0    8.2   0.00   3.68    9.2    7.7    0.5    3.7   3.68   1.18    0.00    0.15
 1976 261    77    74    8.9    0.0    8.9   0.00   3.53   10.1    8.4    0.5    3.5   3.53   1.18    0.00    0.16
 1976 262    78    75    9.9    0.0    9.9   0.00   3.84   11.8    9.4    0.5    3.8   3.84   1.31    0.00    0.17
 1976 263    79    76   10.2    0.0   10.2   0.00   3.80   12.3    9.7    0.5    3.8   3.80   1.26    0.00    0.19
 1976 264    80    77   10.6    0.0   10.6   0.00   3.67   12.6   10.1    0.5    3.7   3.67   1.15    0.00    0.21
 1976 265    81    78   11.3    0.0   11.3   0.00   3.52   13.3   10.8    0.5    3.5   3.52   1.11    0.00    0.22
 1976 266    82    79   12.5    0.0   12.5   0.00   3.84   15.2   11.9    0.5    3.8   3.84   1.19    0.00    0.24
 1976 267    83    80   12.7    0.0   12.7   0.00   3.62   15.8   12.1    0.5    3.6   3.62   1.17    0.00    0.26
 1976 268    84    81   13.4    0.0   13.4   0.00   3.57   16.7   12.9    0.5    3.6   3.57   1.14    0.00    0.28
 1976 269    85    82   15.6    0.0   15.6   0.00   3.78   19.5   15.1    0.5    3.8   3.78   1.16    0.00    0.30
 1976 270    86    83   17.0    0.0   17.0   0.00   3.68   20.9   16.5    0.5    3.7   3.68   1.12    0.00    0.33
 1976 271    87    84   18.4    0.0   18.4   0.00   3.57   22.4   17.9    0.5    3.6   3.57   1.10    0.00    0.35
 1976 272    88    85   21.0    0.0   21.0   0.00   3.52   25.7   20.5    0.6    3.5   3.52   1.15    0.00    0.38
 1976 273    89    86   22.6    0.0   22.6   0.00   3.49   26.9   22.0    0.6    3.5   3.49   1.08    0.00    0.41
 1976 274    90    87   23.9    0.0   23.9   0.00   3.46   30.0   23.3    0.6    3.5   3.46   1.23    0.00    0.44
 1976 275    91    88   24.9    0.0   24.9   0.00   3.46   32.1   24.2    0.7    3.5   3.46   1.23    0.00    0.47
 1976 276    92    89   25.8    0.0   25.8   0.00   3.46   34.0   25.0    0.7    3.5   3.46   1.25    0.00    0.52
 1976 277    93    90   26.9    0.0   26.9   0.00   3.42   35.3   26.1    0.8    3.4   3.42   1.16    0.00    0.56
 1976 278    94    91   28.9    0.0   28.9   0.00   3.39   36.7   28.0    0.9    3.4   3.39   1.07    0.00    0.61
 1976 279    95    92   30.7    0.0   30.7   0.00   3.37   40.7   29.6    1.1    3.4   3.37   1.19    0.00    0.65
 1976 280    96    93   32.6    0.0   32.6   0.00   3.35   43.2   31.4    1.3    3.3   3.35   1.16    0.00    0.71
 1976 281    97    94   35.4    0.0   35.4   0.00   3.32   45.8   33.8    1.6    3.3   3.32   1.11    0.00    0.77
 1976 282    98    95   38.7    0.0   38.7   0.00   3.28   49.6   36.6    2.1    3.3   3.28   1.11    0.00    0.83
 1976 283    99    96   41.0    0.0   41.0   0.00   3.26   53.9   38.5    2.5    3.3   3.26   1.17    0.00    0.89
 1976 284   100    97   42.4    0.0   42.4   0.00   3.24   56.9   39.7    2.7    3.2   3.24   1.18    0.00    0.96
 1976 285   101    98   44.5    0.0   44.5   0.00   3.22   57.9   41.3    3.1    3.2   3.22   1.08    0.00    1.04
 1976 286   102    99   46.8    0.0   46.8   0.00   3.20   61.7   43.2    3.6    3.2   3.20   1.13    0.00    1.11
 1976 287   103   100   49.9    0.0   49.9   0.00   3.17   64.4   45.5    4.4    3.2   3.17   1.09    0.00    1.19
 1976 288   104   101   52.9    0.0   52.9   0.00   3.14   68.1   47.7    5.1    3.1   3.14   1.10    0.00    1.27
 1976 289   105   102   55.7    0.0   55.7   0.00   3.12   73.3   49.7    5.9    3.1   3.12   1.16    0.00    1.35
 1976 290   106   103   59.6    0.0   59.6   0.00   3.08   78.0   52.4    7.2    3.1   3.08   1.13    0.00    1.44
 1976 291   107   104   62.6    0.0   62.6   0.00   3.06   79.9   54.4    8.2    3.1   3.06   1.07    0.00    1.54
 1976 292   108   105   64.3    0.0   64.3   0.00   3.05   83.7   55.6    8.8    3.1   3.05   1.14    0.00    1.63
 1976 293   109   106   65.9    0.0   65.9   0.00   3.05   87.4   56.6    9.3    3.1   3.05   1.18    0.00    1.73
 1976 294   110   107   67.2    0.0   67.2   0.00   3.03   89.7   57.4    9.8    3.0   3.03   1.15    0.00    1.85
 1976 295   111   108   68.8    0.0   68.8   0.00   3.02   93.0   58.4   10.4    3.0   3.02   1.16    0.00    1.96
 1976 296   112   109   71.3    0.0   71.3   0.00   2.99   96.1   59.9   11.5    3.0   2.99   1.12    0.00    2.09
 1976 297   113   110   74.6    0.0   74.6   0.00   2.97   98.0   61.8   12.8    3.0   2.97   1.07    0.00    2.22
 1976 298   114   111   78.5    0.0   78.5   0.00   2.94  103.9   64.0   14.5    2.9   2.94   1.11    0.00    2.34
 1976 299   115   112   82.7    0.0   82.7   0.00   2.91  107.4   66.2   16.5    2.9   2.91   1.08    0.00    2.47
 1976 300   116   113   85.7    0.0   85.7   0.00   2.89  110.2   67.8   17.9    2.9   2.89   1.07    0.00    2.60
 1976 301   117   114   89.7    0.0   89.7   0.00   2.87  116.1   69.8   19.9    2.9   2.87   1.11    0.00    2.73
 1976 302   118   115   93.5    0.0   93.5   0.00   2.84  120.2   71.6   21.9    2.8   2.84   1.10    0.00    2.86
 1976 303   119   116   96.6    0.0   96.6   0.00   2.82  125.4   73.1   23.5    2.8   2.82   1.12    0.00    3.00
 1976 304   120   117  102.3    0.0  102.3   0.00   2.79  130.1   75.6   26.7    2.8   2.79   1.07    0.00    3.15
 1976 305   121   118  107.7    0.0  107.7   0.00   2.77  137.8   77.9   29.8    2.8   2.77   1.12    0.00    3.30
 1976 306   122   119  112.3    0.0  112.3   0.00   2.74  144.2   79.8   32.5    2.7   2.74   1.12    0.00    3.45
 1976 307   123   120  120.4    0.0  120.4   0.00   2.72  152.1   84.3   36.1    2.7   2.72   1.09    0.00    3.61
 1976 308   124   121  123.0    0.0  123.0   0.00   2.69  153.8   85.3   37.7    2.7   2.69   1.07    0.00    3.78
 1976 309   125   122  128.3    0.0  128.3   0.00   2.63  160.2   86.6   41.6    2.6   2.63   1.08    0.00    3.94
 1976 310   126   123  133.0    0.0  133.0   0.00   2.64  164.8   88.7   44.3    2.6   2.64   1.07    0.00    4.10
 1976 311   127   124  135.2    0.0  135.2   0.00   2.61  169.4   89.1   46.1    2.6   2.61   1.09    0.00    4.26
 1976 312   128   125  137.8    0.0  137.8   0.00   2.56  173.3   89.2   48.6    2.6   2.56   1.07    0.00    4.44
 1976 313   129   126  139.9    0.0  139.9   0.00   2.52  176.5   89.3   50.6    2.5   2.52   1.05    0.00    4.62
 1976 314   130   127  141.6    0.0  141.6   0.00   2.47  179.1   89.2   52.4    2.5   2.47   1.03    0.00    4.81
 1976 315   131   128  142.9    0.0  142.9   0.00   2.44  181.2   89.0   53.9    2.4   2.44   1.01    0.00    5.00
 1976 316   132   129  144.3    0.0  144.3   0.00   2.39  183.1   88.6   55.7    2.4   2.39   1.00    0.00    5.19
 1976 317   133   130  145.6    0.0  145.6   0.00   2.33  184.7   87.8   57.7    2.3   2.33   1.01    0.00    5.39
 1976 318   134   131  146.5    0.0  146.5   0.00   2.27  186.0   86.9   59.7    2.3   2.27   0.98    0.00    5.59
 1976 319   135   132  148.3    0.0  148.3   0.00   2.22  188.3   86.3   62.0    2.2   2.22   0.97    0.00    5.79
 1976 320   136   133  150.0    0.0  150.0   0.00   2.15  190.4   85.4   64.6    2.1   2.15   0.97    0.00    5.99
 1976 321   137   134  151.6    0.0  151.6   0.00   2.08  192.3   84.4   67.2    2.1   2.08   0.97    0.00    6.20
 1976 322   138   135  153.1    0.0  153.1   0.00   2.02  194.0   83.5   69.6    2.0   2.02   0.97    0.00    6.40
 1976 323   139   136  154.2    0.0  154.2   0.00   1.98  195.4   82.7   71.5    2.0   1.98   0.96    0.00    6.61
 1976 324   140   137  155.3    0.0  155.3   0.00   1.93  196.7   82.0   73.3    1.9   1.93   0.94    0.00    6.82
 1976 325   141   138  156.4    0.0  156.4   0.00   1.88  198.1   81.2   75.2    1.9   1.88   0.92    0.00    7.03
 1976 326   142   139  157.3    0.0  157.3   0.00   1.85  199.3   80.8   76.5    1.9   1.85   0.89    0.00    7.24
 1976 327   143   140  158.2    0.0  158.2   0.00   1.83  200.4   80.6   77.6    1.8   1.83   0.87    0.00    7.45
 1976 328   144   141  159.0    0.0  159.0   0.00   1.82  201.5   80.5   78.5    1.8   1.82   0.86    0.00    7.67
 1976 329   145   142  159.7    0.0  159.7   0.00   1.80  202.5   80.2   79.6    1.8   1.80   0.86    0.00    7.88
 1976 330   146   143  160.4    0.0  160.4   0.00   1.77  203.4   79.7   80.7    1.8   1.77   0.85    0.00    8.10
 1976 331   147   144  161.0    0.0  161.0   0.00   1.94  204.2   86.5   74.5    1.9   1.94   0.83    0.00    8.32
 1976 332   148   145  161.5    0.0  161.5   0.00   1.93  204.9   85.5   76.0    1.9   1.93   0.82    0.00    8.53
 1976 333   149   146  161.9    0.0  161.9   0.00   1.94  205.7   84.6   77.3    1.9   1.94   0.83    0.00    8.75
 1976 334   150   147  162.4    0.0  162.4   0.00   1.95  206.5   83.9   78.5    1.9   1.95   0.83    0.00    8.97
 1976 335   151   148  162.8    0.0  162.8   0.00   1.95  207.2   82.8   80.0    1.9   1.95   0.83    0.00    9.20
 1976 336   152   149  163.2    0.0  163.2   0.00   1.95  208.1   81.8   81.4    1.9   1.95   0.84    0.00    9.42
 1976 337   153   150  163.5    0.0  163.5   0.00   1.95  208.8   80.6   82.9    1.9   1.95   0.85    0.00    9.65
 1976 338   154   151  163.7    0.0  163.7   0.00   1.95  209.7   79.4   84.4    2.0   1.95   0.84    0.00    9.87
 1976 339   155   152  164.0    0.0  164.0   0.00   1.95  210.9   77.9   86.1    1.9   1.95   0.84    0.00   10.10
 1976 340   156   153  164.1    0.0  164.1   0.00   1.95  212.0   76.4   87.7    1.9   1.95   0.84    0.00   10.34
 1976 341   157   154  164.1    0.0  164.1   0.00   1.94  213.1   74.7   89.4    1.9   1.94   0.86    0.00   10.58
 1976 342   158   155  163.4    0.0  163.4   0.00   1.93  214.1   72.9   90.5    1.9   1.93   0.89    0.00   10.83
 1976 343   159   156  162.4    0.0  162.4   0.00   1.93  215.1   71.2   91.2    1.9   1.93   0.89    0.00   11.08
 1976 344   160   157  161.9    1.3  160.6   1.70   1.91  216.2   70.4   90.2    1.9   1.91   0.90    0.00   11.34
 1976 345   161   158  161.9    4.9  157.0   1.70   1.86  216.9   68.9   88.2    1.9   1.86   0.91    0.00   11.62
 1976 346   162   159  162.1    9.5  152.6   1.70   1.81  217.8   66.9   85.6    1.8   1.81   0.92    0.00   11.89
 1976 347   163   160  162.3   14.1  148.1   1.70   1.76  218.7   65.0   83.2    1.8   1.76   0.93    0.00   12.17
 1976 348   164   161  162.4   18.7  143.6   1.70   1.72  219.4   63.4   80.2    1.7   1.72   0.94    0.00   12.45
 1976 349   165   162  162.6   22.4  140.3   1.70   1.68  220.4   62.1   78.1    1.7   1.68   0.96    0.00   12.74
 1976 350   166   163  162.9   26.3  136.6   1.70   1.65  221.2   60.8   75.8    1.6   1.65   0.97    0.00   13.03
 1976 351   167   164  163.2   29.0  134.2   1.70   1.59  221.9   58.8   75.3    1.6   1.59   0.97    0.00   13.32
 1976 352   168   165  163.6   31.5  132.1   1.70   1.57  222.5   57.9   74.2    1.6   1.57   0.96    0.00   13.61
 1976 353   169   166  164.1   35.2  128.8   1.70   1.53  223.5   56.5   72.3    1.5   1.53   0.96    0.00   13.90
 1976 354   170   167  164.6   39.3  125.3   1.69   1.49  224.4   55.0   70.4    1.5   1.49   0.97    0.00   14.20
 1976 355   171   168  165.2   43.0  122.2   1.69   1.45  225.2   53.6   68.6    1.5   1.45   0.97    0.00   14.50
 1976 356   172   169  165.7   46.0  119.7   1.69   1.42  226.1   52.5   67.2    1.4   1.42   0.96    0.00   14.80
 1976 357   173   170  166.2   50.2  116.0   1.68   1.38  226.9   50.9   65.1    1.4   1.38   0.96    0.00   15.10
 1976 358   174   171  166.8   53.8  113.0   1.67   1.34  227.8   49.6   63.5    1.3   1.34   0.96    0.00   15.40
 1976 359   175   172  167.4   57.4  109.9   1.66   1.31  228.6   48.2   61.7    1.3   1.31   0.96    0.00   15.70
 1976 360   176   173  168.0   61.6  106.3   1.66   1.26  229.4   46.6   59.7    1.3   1.26   0.97    0.00   16.01
 1976 361   177   174  168.6   65.6  103.0   1.65   1.22  230.3   45.2   57.8    1.2   1.22   0.97    0.00   16.31
 1976 362   178   175  169.1   69.5   99.6   1.64   1.18  231.0   43.7   55.9    1.2   1.18   0.97    0.00   16.62
 1976 363   179   176  169.5   71.8   97.7   1.63   1.16  231.6   42.9   54.9    1.2   1.16   0.96    0.00   16.93
 1976 364   180   177  170.1   74.1   96.0   1.62   1.14  232.4   42.1   53.9    1.1   1.14   0.95    0.00   17.23
 1976 365   181   178  170.9   77.5   93.5   1.61   1.11  233.6   41.0   52.5    1.1   1.11   0.95    0.00   17.54
 1976 366   182   179  171.5   80.4   91.1   1.60   1.09  234.4   40.2   51.0    1.1   1.09   0.96    0.00   17.85
 1977 001   183   180  172.0   84.1   87.9   1.59   1.04  235.1   38.5   49.3    1.0   1.04   0.96    0.00   18.17
 1977 002   184   181  172.5   87.7   84.8   1.58   1.02  235.7   37.6   47.2    1.0   1.02   0.97    0.00   18.48
 1977 003   185   182  173.0   91.3   81.7   1.57   0.97  236.3   35.8   45.9    1.0   0.97   0.96    0.00   18.79
 1977 004   186   183  173.5   94.0   79.5   1.56   0.94  237.0   34.9   44.6    0.9   0.94   0.96    0.00   19.10
 1977 005   187   184  174.3   97.0   77.3   1.55   0.92  238.0   33.9   43.4    0.9   0.92   0.96    0.00   19.42
 1977 006   188   185  175.1  100.3   74.8   1.53   0.89  239.0   32.8   42.0    0.9   0.89   0.97    0.00   19.73
 1977 007   189   186  175.8  103.6   72.2   1.52   0.86  240.0   31.7   40.6    0.9   0.86   0.97    0.00   20.05
 1977 008   190   187  176.5  106.8   69.7   1.51   0.83  240.9   30.6   39.1    0.8   0.83   0.97    0.00   20.37
 1977 009   191   188  177.3  110.0   67.3   1.49   0.80  241.8   29.5   37.8    0.8   0.80   0.97    0.00   20.68
 1977 010   192   189  178.1  113.0   65.1   1.48   0.77  242.8   28.5   36.5    0.8   0.77   0.98    0.00   21.00
 1977 011   193   190  178.7  116.0   62.7   1.47   0.75  243.5   27.7   35.0    0.8   0.75   0.99    0.00   21.32
 1977 012   194   191  179.3  118.8   60.4   1.45   0.73  244.2   26.8   33.6    0.7   0.73   0.99    0.00   21.64
 1977 013   195   192  180.0  121.6   58.4   1.44   0.70  245.0   25.8   32.6    0.7   0.70   1.00    0.00   21.96
 1977 014   196   193  181.0  124.2   56.7   1.42   0.69  246.2   25.4   31.4    0.7   0.69   1.00    0.00   22.28
 1977 015   197   194  181.8  126.8   55.0   1.41   0.67  247.2   24.9   30.1    0.7   0.67   1.01    0.00   22.60
 1977 016   198   195  182.7  129.4   53.3   1.40   0.66  248.2   24.2   29.0    0.7   0.66   1.02    0.00   22.93
 1977 017   199   196  182.7  129.4   53.3   1.40   0.66  249.2   24.2   29.0    0.7   0.66   1.02    0.00   22.93
 1977 018   200   197  182.7  129.4   53.3   1.40   0.66  250.2   24.2   29.0    0.7   0.66   1.02    0.00   22.93
 1977 019   201   198  182.7  129.4   53.3   1.40   0.66  251.2   24.2   29.0    0.7   0.66   1.02    0.00   22.93

*DSSAT Cropping System Model Ver. 4.0.2.000               Aug 01, 2016; 15:14:21

*RUN   3        : UYMZ                    
 MODEL          : MZCER040 - Maize           
 EXPERIMENT     : UYMZ0102 MZ    late to create DSS                             
 TREATMENT  1   : UYMZ                    

@YEAR DOY   DAS   DAP   CNAD   GNAD   VNAD   GN%D   VN%D   NUPC   LNAD   SNAD   LN%D   SN%D   RN%D   SNN0C   SNN1C
 1977 187     3     0    0.0    0.0    0.0   0.00   0.00    0.0    0.0    0.0    0.0   0.00   0.00    0.00    0.00
 1977 188     4     1    0.0    0.0    0.0   0.00   0.00    0.0    0.0    0.0    0.0   0.00   0.00    0.00    0.00
 1977 189     5     2    0.0    0.0    0.0   0.00   0.00    0.0    0.0    0.0    0.0   0.00   0.00    0.00    0.00
 1977 190     6     3    0.0    0.0    0.0   0.00   0.00    0.0    0.0    0.0    0.0   0.00   0.00    0.00    0.00
 1977 191     7     4    0.0    0.0    0.0   0.00   0.00    0.0    0.0    0.0    0.0   0.00   0.00    0.00    0.00
 1977 192     8     5    0.0    0.0    0.0   0.00   0.00    0.0    0.0    0.0    0.0   0.00   0.00    0.00    0.00
 1977 193     9     6    0.0    0.0    0.0   0.00   0.00    0.0    0.0    0.0    0.0   0.00   0.00    0.00    0.00
 1977 194    10     7    0.0    0.0    0.0   0.00   0.00    0.0    0.0    0.0    0.0   0.00   0.00    0.00    0.00
 1977 195    11     8    0.0    0.0    0.0   0.00   0.00    0.0    0.0    0.0    0.0   0.00   0.00    0.00    0.00
 1977 196    12     9    0.0    0.0    0.0   0.00   0.00    0.0    0.0    0.0    0.0   0.00   0.00    0.00    0.00
 1977 197    13    10    0.0    0.0    0.0   0.00   0.00    0.0    0.0    0.0    0.0   0.00   0.00    0.00    0.00
 1977 198    14    11    0.0    0.0    0.0   0.00   0.00    0.0    0.0    0.0    0.0   0.00   0.00    0.00    0.00
 1977 199    15    12    0.0    0.0    0.0   0.00   0.00    0.0    0.0    0.0    0.0   0.00   0.00    0.00    0.00
 1977 200    16    13    0.0    0.0    0.0   0.00   0.00    0.0    0.0    0.0    0.0   0.00   0.00    0.00    0.00
 1977 201    17    14    0.0    0.0    0.0   0.00   0.00    0.0    0.0    0.0    0.0   0.00   0.00    0.00    0.00
 1977 202    18    15    0.0    0.0    0.0   0.00   0.00    0.0    0.0    0.0    0.0   0.00   0.00    0.00    0.00
 1977 203    19    16    1.2    0.0    1.2   0.00   4.40    0.0    0.6    0.6    4.4   4.40   0.00    0.00    0.00
 1977 204    20    17    1.3    0.0    1.3   0.00   4.55    0.2    0.6    0.6    4.5   4.55   1.07    0.00    0.00
 1977 205    21    18    1.3    0.0    1.3   0.00   4.54    0.2    0.6    0.6    4.5   4.54   1.09    0.00    0.00
 1977 206    22    19    1.3    0.0    1.3   0.00   4.53    0.2    0.6    0.6    4.5   4.53   1.09    0.00    0.00
 1977 207    23    20    1.3    0.0    1.3   0.00   4.53    0.2    0.6    0.6    4.5   4.53   1.08    0.00    0.00
 1977 208    24    21    1.3    0.0    1.3   0.00   4.53    0.2    0.6    0.6    4.5   4.53   1.08    0.00    0.00
 1977 209    25    22    1.3    0.0    1.3   0.00   4.53    0.2    0.6    0.6    4.5   4.53   1.07    0.00    0.00
 1977 210    26    23    1.3    0.0    1.3   0.00   4.53    0.2    0.6    0.6    4.5   4.53   1.05    0.00    0.00
 1977 211    27    24    1.3    0.0    1.3   0.00   4.53    0.2    0.6    0.6    4.5   4.53   1.03    0.00    0.00
 1977 212    28    25    1.3    0.0    1.3   0.00   4.47    0.2    0.6    0.6    4.5   4.47   1.15    0.00    0.00
 1977 213    29    26    1.3    0.0    1.3   0.00   4.47    0.2    0.6    0.6    4.5   4.47   1.14    0.00    0.00
 1977 214    30    27    1.2    0.0    1.2   0.00   4.45    0.2    0.6    0.6    4.4   4.45   1.17    0.00    0.00
 1977 215    31    28    1.2    0.0    1.2   0.00   4.45    0.2    0.6    0.6    4.4   4.45   1.15    0.00    0.00
 1977 216    32    29    1.2    0.0    1.2   0.00   4.45    0.2    0.6    0.6    4.4   4.45   1.13    0.00    0.00
 1977 217    33    30    1.2    0.0    1.2   0.00   4.45    0.2    0.6    0.6    4.4   4.45   1.13    0.00    0.00
 1977 218    34    31    1.2    0.0    1.2   0.00   4.45    0.2    0.6    0.6    4.4   4.45   1.12    0.00    0.00
 1977 219    35    32    1.2    0.0    1.2   0.00   4.45    0.2    0.6    0.6    4.4   4.45   1.10    0.00    0.00
 1977 220    36    33    1.2    0.0    1.2   0.00   4.45    0.2    0.6    0.6    4.4   4.45   1.06    0.00    0.00
 1977 221    37    34    1.2    0.0    1.2   0.00   4.38    0.2    0.6    0.6    4.4   4.38   1.17    0.00    0.00
 1977 222    38    35    1.2    0.0    1.2   0.00   4.38    0.2    0.6    0.6    4.4   4.38   1.15    0.00    0.00
 1977 223    39    36    1.2    0.0    1.2   0.00   4.38    0.2    0.6    0.6    4.4   4.38   1.11    0.00    0.00
 1977 224    40    37    1.2    0.0    1.2   0.00   4.34    0.2    0.6    0.6    4.3   4.34   1.15    0.00    0.01
 1977 225    41    38    1.2    0.0    1.2   0.00   4.33    0.3    0.6    0.6    4.3   4.33   1.33    0.00    0.01
 1977 226    42    39    1.2    0.0    1.2   0.00   4.32    0.3    0.6    0.6    4.3   4.32   1.32    0.00    0.01
 1977 227    43    40    1.2    0.0    1.2   0.00   4.32    0.4    0.6    0.6    4.3   4.32   1.34    0.00    0.01
 1977 228    44    41    1.2    0.0    1.2   0.00   4.31    0.4    0.6    0.6    4.3   4.31   1.26    0.00    0.01
 1977 229    45    42    1.2    0.0    1.2   0.00   4.10    0.4    0.6    0.6    4.1   4.10   1.21    0.00    0.01
 1977 230    46    43    1.3    0.0    1.3   0.00   4.19    0.4    0.7    0.6    4.2   4.19   1.14    0.00    0.01
 1977 231    47    44    1.3    0.0    1.3   0.00   4.08    0.4    0.7    0.6    4.1   4.08   1.14    0.00    0.02
 1977 232    48    45    1.4    0.0    1.4   0.00   3.99    0.5    0.8    0.6    4.0   3.99   1.11    0.00    0.02
 1977 233    49    46    1.5    0.0    1.5   0.00   3.77    0.6    0.9    0.5    3.8   3.77   1.08    0.00    0.02
 1977 234    50    47    1.6    0.0    1.6   0.00   3.82    0.8    1.1    0.5    3.8   3.82   1.08    0.00    0.02
 1977 235    51    48    1.8    0.0    1.8   0.00   3.90    1.0    1.3    0.5    3.9   3.90   1.09    0.00    0.02
 1977 236    52    49    2.0    0.0    2.0   0.00   3.92    1.2    1.4    0.5    3.9   3.92   1.16    0.00    0.02
 1977 237    53    50    2.1    0.0    2.1   0.00   3.78    1.4    1.6    0.5    3.8   3.78   1.19    0.00    0.03
 1977 238    54    51    2.4    0.0    2.4   0.00   3.74    1.7    1.8    0.5    3.7   3.74   1.19    0.00    0.03
 1977 239    55    52    2.6    0.0    2.6   0.00   3.88    2.0    2.1    0.5    3.9   3.88   1.10    0.00    0.03
 1977 240    56    53    2.8    0.0    2.8   0.00   3.84    2.4    2.3    0.5    3.8   3.84   1.26    0.00    0.04
 1977 241    57    54    3.1    0.0    3.1   0.00   3.76    2.5    2.5    0.5    3.8   3.76   1.10    0.00    0.04
 1977 242    58    55    3.4    0.0    3.4   0.00   3.57    2.9    2.9    0.5    3.6   3.57   1.17    0.00    0.04
 1977 243    59    56    3.9    0.0    3.9   0.00   3.97    3.8    3.3    0.6    4.0   3.97   1.40    0.00    0.05
 1977 244    60    57    4.0    0.0    4.0   0.00   4.01    4.1    3.5    0.6    4.0   4.01   1.39    0.00    0.05
 1977 245    61    58    4.1    0.0    4.1   0.00   3.95    4.2    3.6    0.6    4.0   3.95   1.28    0.00    0.06
 1977 246    62    59    4.3    0.0    4.3   0.00   3.85    4.4    3.8    0.5    3.9   3.85   1.18    0.00    0.06
 1977 247    63    60    4.6    0.0    4.6   0.00   3.84    4.6    4.0    0.5    3.8   3.84   1.10    0.00    0.07
 1977 248    64    61    4.8    0.0    4.8   0.00   3.78    4.9    4.3    0.5    3.8   3.78   1.08    0.00    0.08
 1977 249    65    62    5.2    0.0    5.2   0.00   3.70    5.2    4.7    0.5    3.7   3.70   1.08    0.00    0.08
 1977 250    66    63    5.7    0.0    5.7   0.00   3.63    5.9    5.2    0.5    3.6   3.63   1.14    0.00    0.09
 1977 251    67    64    6.3    0.0    6.3   0.00   3.51    6.7    5.8    0.5    3.5   3.51   1.18    0.00    0.10
 1977 252    68    65    7.1    0.0    7.1   0.00   3.34    7.5    6.6    0.5    3.3   3.34   1.12    0.00    0.11
 1977 253    69    66    8.4    0.0    8.4   0.00   3.71    8.9    7.9    0.5    3.7   3.71   1.10    0.00    0.11
 1977 254    70    67    9.0    0.0    9.0   0.00   3.67    9.4    8.5    0.5    3.7   3.67   1.10    0.00    0.12
 1977 255    71    68    9.6    0.0    9.6   0.00   3.68   10.3    9.0    0.5    3.7   3.68   1.17    0.00    0.13
 1977 256    72    69   10.1    0.0   10.1   0.00   3.62   10.8    9.6    0.5    3.6   3.62   1.10    0.00    0.14
 1977 257    73    70   10.9    0.0   10.9   0.00   3.94   11.9   10.3    0.6    3.9   3.94   1.17    0.00    0.15
 1977 258    74    71   10.9    0.0   10.9   0.00   3.66   11.9   10.3    0.5    3.7   3.66   1.12    0.00    0.15
 1977 259    75    72   11.3    0.0   11.3   0.00   3.53   12.6   10.8    0.5    3.5   3.53   1.15    0.00    0.16
 1977 260    76    73   12.9    0.0   12.9   0.00   3.78   14.5   12.4    0.5    3.8   3.78   1.16    0.00    0.17
 1977 261    77    74   13.6    0.0   13.6   0.00   3.68   16.3   13.1    0.5    3.7   3.68   1.29    0.00    0.19
 1977 262    78    75   14.3    0.0   14.3   0.00   3.58   17.6   13.8    0.5    3.6   3.58   1.26    0.00    0.21
 1977 263    79    76   16.0    0.0   16.0   0.00   3.55   19.5   15.4    0.5    3.6   3.55   1.19    0.00    0.23
 1977 264    80    77   18.0    0.0   18.0   0.00   3.51   21.8   17.4    0.5    3.5   3.51   1.15    0.00    0.25
 1977 265    81    78   20.6    0.0   20.6   0.00   3.47   24.9   20.0    0.6    3.5   3.47   1.16    0.00    0.28
 1977 266    82    79   21.9    0.0   21.9   0.00   3.44   27.4   21.3    0.7    3.4   3.44   1.21    0.00    0.31
 1977 267    83    80   23.0    0.0   23.0   0.00   3.42   29.2   22.3    0.7    3.4   3.42   1.20    0.00    0.34
 1977 268    84    81   24.9    0.0   24.9   0.00   3.40   32.0   24.0    0.8    3.4   3.40   1.19    0.00    0.38
 1977 269    85    82   27.5    0.0   27.5   0.00   3.37   35.6   26.5    1.0    3.4   3.37   1.19    0.00    0.42
 1977 270    86    83   30.9    0.0   30.9   0.00   3.33   39.4   29.5    1.4    3.3   3.33   1.15    0.00    0.46
 1977 271    87    84   32.4    0.0   32.4   0.00   3.33   40.5   30.8    1.6    3.3   3.33   1.10    0.00    0.51
 1977 272    88    85   33.5    0.0   33.5   0.00   3.31   44.0   31.8    1.7    3.3   3.31   1.22    0.00    0.56
 1977 273    89    86   34.7    0.0   34.7   0.00   3.30   46.6   32.9    1.9    3.3   3.30   1.22    0.00    0.62
 1977 274    90    87   36.7    0.0   36.7   0.00   3.26   47.7   34.6    2.2    3.3   3.26   1.10    0.00    0.68
 1977 275    91    88   39.6    0.0   39.6   0.00   3.24   51.2   36.9    2.7    3.2   3.24   1.11    0.00    0.74
 1977 276    92    89   42.6    0.0   42.6   0.00   3.21   55.0   39.3    3.3    3.2   3.21   1.13    0.00    0.81
 1977 277    93    90   45.2    0.0   45.2   0.00   3.18   59.8   41.4    3.8    3.2   3.18   1.17    0.00    0.87
 1977 278    94    91   47.8    0.0   47.8   0.00   3.15   62.9   43.3    4.5    3.2   3.15   1.14    0.00    0.95
 1977 279    95    92   53.0    0.0   53.0   0.00   3.11   68.4   47.1    5.9    3.1   3.11   1.11    0.00    1.03
 1977 280    96    93   58.6    0.0   58.6   0.00   3.07   75.1   50.8    7.7    3.1   3.07   1.13    0.00    1.12
 1977 281    97    94   61.2    0.0   61.2   0.00   3.03   76.8   52.5    8.7    3.0   3.03   1.07    0.00    1.21
 1977 282    98    95   64.0    0.0   64.0   0.00   3.00   79.6   54.2    9.8    3.0   3.00   1.07    0.00    1.29
 1977 283    99    96   66.3    0.0   66.3   0.00   3.02   82.2   55.7   10.6    3.0   3.02   1.08    0.00    1.37
 1977 284   100    97   66.7    0.0   66.7   0.00   3.00   84.0   55.9   10.8    3.0   3.00   1.13    0.00    1.46
 1977 285   101    98   67.6    0.0   67.6   0.00   2.98   86.3   56.4   11.2    3.0   2.98   1.15    0.00    1.55
 1977 286   102    99   70.1    0.0   70.1   0.00   2.94   90.0   57.7   12.4    2.9   2.94   1.14    0.00    1.65
 1977 287   103   100   73.3    0.0   73.3   0.00   2.92   91.9   59.5   13.8    2.9   2.92   1.07    0.00    1.75
 1977 288   104   101   75.2    0.0   75.2   0.00   2.90   94.5   60.4   14.7    2.9   2.90   1.09    0.00    1.85
 1977 289   105   102   77.2    0.0   77.2   0.00   2.88  100.0   61.5   15.7    2.9   2.88   1.16    0.00    1.95
 1977 290   106   103   79.7    0.0   79.7   0.00   2.86  104.2   62.7   17.0    2.9   2.86   1.15    0.00    2.07
 1977 291   107   104   82.8    0.0   82.8   0.00   2.80  108.0   63.9   18.9    2.8   2.80   1.12    0.00    2.20
 1977 292   108   105   84.6    0.0   84.6   0.00   2.68  110.4   63.9   20.7    2.7   2.68   1.08    0.00    2.33
 1977 293   109   106   86.1    0.0   86.1   0.00   2.52  112.1   63.3   22.8    2.5   2.52   1.05    0.00    2.46
 1977 294   110   107   87.5    0.0   87.5   0.00   2.34  113.6   62.2   25.2    2.3   2.34   1.04    0.00    2.60
 1977 295   111   108   88.8    0.0   88.8   0.00   2.14  115.0   62.1   26.6    2.1   2.14   1.03    0.00    2.73
 1977 296   112   109   90.0    0.0   90.0   0.00   2.04  116.2   61.6   28.4    2.0   2.04   1.03    0.00    2.87
 1977 297   113   110   91.1    0.0   91.1   0.00   1.99  117.4   61.5   29.6    2.0   1.99   1.04    0.00    3.01
 1977 298   114   111   92.2    0.0   92.2   0.00   1.94  118.5   61.2   31.0    1.9   1.94   1.04    0.00    3.14
 1977 299   115   112   93.1    0.0   93.1   0.00   1.88  119.5   60.6   32.5    1.9   1.88   1.04    0.00    3.28
 1977 300   116   113   93.9    0.0   93.9   0.00   1.81  120.2   59.6   34.2    1.8   1.81   1.03    0.00    3.41
 1977 301   117   114   94.5    0.0   94.5   0.00   1.75  120.9   58.8   35.7    1.7   1.75   1.03    0.00    3.55
 1977 302   118   115   95.6    0.0   95.6   0.00   1.68  122.1   57.9   37.7    1.7   1.68   1.02    0.00    3.69
 1977 303   119   116   97.2    0.0   97.2   0.00   1.62  123.8   57.2   40.0    1.6   1.62   1.00    0.00    3.82
 1977 304   120   117   98.9    0.0   98.9   0.00   1.60  125.5   57.3   41.6    1.6   1.60   1.01    0.00    3.96
 1977 305   121   118  100.4    0.0  100.4   0.00   1.58  127.1   57.2   43.2    1.6   1.58   1.01    0.00    4.10
 1977 306   122   119  101.7    0.0  101.7   0.00   1.55  128.5   56.9   44.8    1.5   1.55   0.98    0.00    4.24
 1977 307   123   120  103.1    0.0  103.1   0.00   1.53  130.0   57.1   46.0    1.5   1.53   0.94    0.00    4.37
 1977 308   124   121  104.2    0.0  104.2   0.00   1.52  131.3   57.0   47.2    1.5   1.52   0.90    0.00    4.51
 1977 309   125   122  105.3    0.0  105.3   0.00   1.50  132.5   56.9   48.4    1.5   1.50   0.87    0.00    4.65
 1977 310   126   123  106.2    0.0  106.2   0.00   1.47  133.6   56.6   49.7    1.5   1.47   0.85    0.00    4.79
 1977 311   127   124  107.1    0.0  107.1   0.00   1.44  134.6   56.2   50.9    1.4   1.44   0.84    0.00    4.93
 1977 312   128   125  108.0    0.0  108.0   0.00   1.41  135.6   55.8   52.1    1.4   1.41   0.84    0.00    5.07
 1977 313   129   126  108.8    0.0  108.8   0.00   1.54  136.6   60.6   48.2    1.5   1.54   0.82    0.00    5.21
 1977 314   130   127  109.5    0.0  109.5   0.00   1.55  137.4   60.4   49.2    1.6   1.55   0.82    0.00    5.36
 1977 315   131   128  110.3    0.0  110.3   0.00   1.56  138.3   60.0   50.2    1.6   1.56   0.80    0.00    5.50
 1977 316   132   129  110.9    0.0  110.9   0.00   1.57  139.1   59.8   51.1    1.6   1.57   0.77    0.00    5.64
 1977 317   133   130  111.4    0.0  111.4   0.00   1.59  139.9   59.5   51.9    1.6   1.59   0.74    0.00    5.79
 1977 318   134   131  111.9    0.0  111.9   0.00   1.59  140.6   59.0   52.9    1.6   1.59   0.71    0.00    5.93
 1977 319   135   132  112.7    0.0  112.7   0.00   1.60  141.7   58.5   54.2    1.6   1.60   0.70    0.00    6.08
 1977 320   136   133  113.5    0.0  113.5   0.00   1.61  143.0   57.9   55.7    1.6   1.61   0.70    0.00    6.23
 1977 321   137   134  114.4    0.0  114.4   0.00   1.61  144.3   57.2   57.2    1.6   1.61   0.70    0.00    6.38
 1977 322   138   135  115.1    0.0  115.1   0.00   1.61  145.5   56.2   58.9    1.6   1.61   0.70    0.00    6.53
 1977 323   139   136  116.1    0.0  116.1   0.00   1.62  147.0   55.7   60.4    1.6   1.62   0.71    0.00    6.69
 1977 324   140   137  116.8    0.0  116.8   0.00   1.63  148.2   54.9   61.8    1.6   1.63   0.70    0.00    6.84
 1977 325   141   138  117.5    0.0  117.5   0.00   1.65  149.6   54.4   63.1    1.7   1.65   0.72    0.00    7.00
 1977 326   142   139  118.0    0.0  118.0   0.00   1.66  150.6   53.6   64.4    1.7   1.66   0.71    0.00    7.17
 1977 327   143   140  118.5    0.0  118.5   0.00   1.67  151.7   52.8   65.6    1.7   1.67   0.70    0.00    7.33
 1977 328   144   141  118.8    0.0  118.8   0.00   1.68  152.6   51.8   67.0    1.7   1.68   0.70    0.00    7.50
 1977 329   145   142  119.3    3.2  116.1   1.59   1.64  153.6   50.6   65.4    1.6   1.64   0.70    0.00    7.67
 1977 330   146   143  119.7    7.5  112.2   1.59   1.59  154.5   48.9   63.2    1.6   1.59   0.70    0.00    7.85
 1977 331   147   144  120.2   10.7  109.5   1.57   1.55  155.4   47.8   61.7    1.5   1.55   0.71    0.00    8.02
 1977 332   148   145  120.6   13.5  107.1   1.56   1.51  156.2   46.7   60.4    1.5   1.51   0.71    0.00    8.20
 1977 333   149   146  121.2   17.2  104.0   1.55   1.47  157.3   45.4   58.6    1.5   1.47   0.71    0.00    8.38
 1977 334   150   147  121.7   21.0  100.7   1.54   1.42  158.2   43.9   56.8    1.4   1.42   0.71    0.00    8.56
 1977 335   151   148  122.3   25.0   97.3   1.52   1.38  159.2   42.5   54.9    1.4   1.38   0.72    0.00    8.75
 1977 336   152   149  122.8   28.9   93.9   1.51   1.35  160.2   41.6   52.3    1.3   1.35   0.73    0.00    8.93
 1977 337   153   150  123.4   32.8   90.6   1.50   1.29  161.1   39.8   50.8    1.3   1.29   0.74    0.00    9.12
 1977 338   154   151  123.9   36.6   87.3   1.49   1.23  162.1   38.1   49.2    1.2   1.23   0.74    0.00    9.31
 1977 339   155   152  124.5   40.3   84.2   1.48   1.19  163.0   36.7   47.4    1.2   1.19   0.75    0.00    9.51
 1977 340   156   153  125.0   42.6   82.3   1.47   1.16  163.7   35.9   46.4    1.2   1.16   0.75    0.00    9.70
 1977 341   157   154  125.5   44.7   80.8   1.46   1.14  164.6   35.2   45.5    1.1   1.14   0.75    0.00    9.89
 1977 342   158   155  126.0   46.8   79.2   1.45   1.12  165.4   34.6   44.6    1.1   1.12   0.75    0.00   10.09
 1977 343   159   156  126.4   49.5   76.9   1.44   1.09  166.1   33.6   43.4    1.1   1.09   0.75    0.00   10.29
 1977 344   160   157  126.8   52.9   74.0   1.42   1.05  166.8   32.3   41.7    1.0   1.05   0.75    0.00   10.49
 1977 345   161   158  127.4   56.2   71.2   1.41   1.01  167.6   31.1   40.1    1.0   1.01   0.75    0.00   10.69
 1977 346   162   159  127.9   59.4   68.5   1.39   0.97  168.5   29.9   38.6    1.0   0.97   0.76    0.00   10.89
 1977 347   163   160  128.5   62.5   66.0   1.38   0.93  169.3   28.8   37.2    0.9   0.93   0.76    0.00   11.10
 1977 348   164   161  129.0   65.2   63.8   1.36   0.90  170.1   27.8   36.0    0.9   0.90   0.76    0.00   11.30
 1977 349   165   162  129.5   68.2   61.4   1.35   0.87  170.9   26.8   34.6    0.9   0.87   0.76    0.00   11.51
 1977 350   166   163  129.9   71.0   58.9   1.33   0.85  171.5   26.1   32.8    0.8   0.85   0.77    0.00   11.71
 1977 351   167   164  130.5   73.8   56.7   1.32   0.81  172.4   24.9   31.8    0.8   0.81   0.78    0.00   11.92
 1977 352   168   165  131.0   76.6   54.4   1.31   0.77  173.1   23.8   30.6    0.8   0.77   0.78    0.00   12.13
 1977 353   169   166  131.6   79.2   52.4   1.29   0.75  174.0   23.3   29.1    0.8   0.75   0.79    0.00   12.34
 1977 354   170   167  132.1   80.9   51.2   1.28   0.75  174.7   23.0   28.2    0.7   0.75   0.80    0.00   12.55
 1977 355   171   168  132.5   82.6   50.0   1.27   0.72  175.4   22.2   27.8    0.7   0.72   0.80    0.00   12.77
 1977 356   172   169  133.2   83.9   49.2   1.26   0.70  176.3   21.6   27.7    0.7   0.70   0.80    0.00   12.98
 1977 357   173   170  133.6   85.4   48.2   1.25   0.68  176.9   21.0   27.2    0.7   0.68   0.80    0.00   13.20
 1977 358   174   171  134.1   87.4   46.6   1.24   0.66  177.6   20.4   26.2    0.7   0.66   0.81    0.00   13.41
 1977 359   175   172  134.5   89.6   44.9   1.22   0.64  178.2   19.8   25.1    0.6   0.64   0.82    0.00   13.63
 1977 360   176   173  135.0   91.7   43.2   1.20   0.62  178.8   19.3   24.0    0.6   0.62   0.83    0.00   13.85
 1977 361   177   174  135.4   93.8   41.6   1.19   0.61  179.5   18.7   22.9    0.6   0.61   0.83    0.00   14.06
 1977 362   178   175  135.8   95.8   40.1   1.17   0.60  180.0   18.5   21.5    0.6   0.60   0.84    0.00   14.28
 1977 363   179   176  136.2   97.3   38.8   1.16   0.58  180.5   18.0   20.9    0.6   0.58   0.85    0.00   14.50
 1977 364   180   177  136.7   99.0   37.8   1.15   0.58  181.3   17.9   19.9    0.6   0.58   0.85    0.00   14.72
 1977 365   181   178  137.3  100.3   37.0   1.14   0.57  182.1   17.6   19.5    0.6   0.57   0.86    0.00   14.95
 1978 001   182   179  138.0  101.6   36.4   1.13   0.56  182.9   17.3   19.1    0.6   0.56   0.87    0.00   15.17
 1978 002   183   180  138.5  102.7   35.7   1.12   0.55  183.6   17.0   18.7    0.5   0.55   0.88    0.00   15.39
 1978 003   184   181  138.5  102.7   35.7   1.12   0.55  184.3   17.0   18.7    0.5   0.55   0.88    0.00   15.39
 1978 004   185   182  138.5  102.7   35.7   1.12   0.55  185.0   17.0   18.7    0.5   0.55   0.88    0.00   15.39
 1978 005   186   183  138.5  102.7   35.7   1.12   0.55  185.7   17.0   18.7    0.5   0.55   0.88    0.00   15.39
 1978 006   187   184  138.5  102.7   35.7   1.12   0.55  186.4   17.0   18.7    0.5   0.55   0.88    0.00   15.39

*DSSAT Cropping System Model Ver. 4.0.2.000               Aug 01, 2016; 15:14:21

*RUN   4        : UYMZ                    
 MODEL          : MZCER040 - Maize           
 EXPERIMENT     : UYMZ0102 MZ    late to create DSS                             
 TREATMENT  1   : UYMZ                    

@YEAR DOY   DAS   DAP   CNAD   GNAD   VNAD   GN%D   VN%D   NUPC   LNAD   SNAD   LN%D   SN%D   RN%D   SNN0C   SNN1C
 1978 187     3     0    0.0    0.0    0.0   0.00   0.00    0.0    0.0    0.0    0.0   0.00   0.00    0.00    0.00
 1978 188     4     1    0.0    0.0    0.0   0.00   0.00    0.0    0.0    0.0    0.0   0.00   0.00    0.00    0.00
 1978 189     5     2    0.0    0.0    0.0   0.00   0.00    0.0    0.0    0.0    0.0   0.00   0.00    0.00    0.00
 1978 190     6     3    0.0    0.0    0.0   0.00   0.00    0.0    0.0    0.0    0.0   0.00   0.00    0.00    0.00
 1978 191     7     4    0.0    0.0    0.0   0.00   0.00    0.0    0.0    0.0    0.0   0.00   0.00    0.00    0.00
 1978 192     8     5    0.0    0.0    0.0   0.00   0.00    0.0    0.0    0.0    0.0   0.00   0.00    0.00    0.00
 1978 193     9     6    0.0    0.0    0.0   0.00   0.00    0.0    0.0    0.0    0.0   0.00   0.00    0.00    0.00
 1978 194    10     7    0.0    0.0    0.0   0.00   0.00    0.0    0.0    0.0    0.0   0.00   0.00    0.00    0.00
 1978 195    11     8    0.0    0.0    0.0   0.00   0.00    0.0    0.0    0.0    0.0   0.00   0.00    0.00    0.00
 1978 196    12     9    1.2    0.0    1.2   0.00   4.40    0.0    0.6    0.6    4.4   4.40   0.00    0.00    0.00
 1978 197    13    10    1.3    0.0    1.3   0.00   4.55    0.2    0.6    0.6    4.6   4.55   1.08    0.00    0.00
 1978 198    14    11    1.3    0.0    1.3   0.00   4.55    0.2    0.6    0.6    4.6   4.55   1.08    0.00    0.00
 1978 199    15    12    1.3    0.0    1.3   0.00   4.54    0.2    0.6    0.6    4.5   4.54   1.11    0.00    0.00
 1978 200    16    13    1.3    0.0    1.3   0.00   4.54    0.2    0.6    0.6    4.5   4.54   1.11    0.00    0.00
 1978 201    17    14    1.3    0.0    1.3   0.00   4.54    0.2    0.6    0.6    4.5   4.54   1.11    0.00    0.00
 1978 202    18    15    1.3    0.0    1.3   0.00   4.54    0.2    0.6    0.6    4.5   4.54   1.10    0.00    0.00
 1978 203    19    16    1.3    0.0    1.3   0.00   4.52    0.2    0.6    0.6    4.5   4.52   1.13    0.00    0.00
 1978 204    20    17    1.3    0.0    1.3   0.00   4.52    0.2    0.6    0.6    4.5   4.52   1.12    0.00    0.00
 1978 205    21    18    1.3    0.0    1.3   0.00   4.51    0.2    0.6    0.6    4.5   4.51   1.14    0.00    0.00
 1978 206    22    19    1.3    0.0    1.3   0.00   4.51    0.2    0.6    0.6    4.5   4.51   1.12    0.00    0.00
 1978 207    23    20    1.3    0.0    1.3   0.00   4.51    0.2    0.6    0.6    4.5   4.51   1.12    0.00    0.00
 1978 208    24    21    1.3    0.0    1.3   0.00   4.51    0.2    0.6    0.6    4.5   4.51   1.11    0.00    0.00
 1978 209    25    22    1.3    0.0    1.3   0.00   4.51    0.2    0.6    0.6    4.5   4.51   1.10    0.00    0.00
 1978 210    26    23    1.3    0.0    1.3   0.00   4.51    0.2    0.6    0.6    4.5   4.51   1.08    0.00    0.00
 1978 211    27    24    1.2    0.0    1.2   0.00   4.46    0.2    0.6    0.6    4.5   4.46   1.17    0.00    0.00
 1978 212    28    25    1.2    0.0    1.2   0.00   4.46    0.2    0.6    0.6    4.5   4.46   1.15    0.00    0.00
 1978 213    29    26    1.2    0.0    1.2   0.00   4.46    0.2    0.6    0.6    4.5   4.46   1.09    0.00    0.00
 1978 214    30    27    1.2    0.0    1.2   0.00   4.39    0.2    0.6    0.6    4.4   4.39   1.14    0.00    0.00
 1978 215    31    28    1.2    0.0    1.2   0.00   4.36    0.3    0.6    0.6    4.4   4.36   1.22    0.00    0.01
 1978 216    32    29    1.2    0.0    1.2   0.00   3.59    0.3    0.7    0.5    3.6   3.59   1.14    0.00    0.01
 1978 217    33    30    1.5    0.0    1.5   0.00   3.34    0.5    1.0    0.5    3.3   3.34   1.13    0.00    0.01
 1978 218    34    31    1.9    0.0    1.9   0.00   3.98    0.9    1.3    0.6    4.0   3.98   1.11    0.00    0.01
 1978 219    35    32    2.0    0.0    2.0   0.00   4.02    1.1    1.4    0.6    4.0   4.02   1.12    0.00    0.01
 1978 220    36    33    2.1    0.0    2.1   0.00   4.09    1.2    1.6    0.6    4.1   4.09   1.16    0.00    0.01
 1978 221    37    34    2.2    0.0    2.2   0.00   3.82    1.4    1.7    0.5    3.8   3.82   1.23    0.00    0.01
 1978 222    38    35    2.4    0.0    2.4   0.00   3.56    1.6    1.9    0.5    3.6   3.56   1.22    0.00    0.01
 1978 223    39    36    2.9    0.0    2.9   0.00   4.06    2.3    2.3    0.6    4.1   4.06   1.53    0.00    0.02
 1978 224    40    37    3.0    0.0    3.0   0.00   4.16    2.5    2.4    0.6    4.2   4.16   1.48    0.00    0.02
 1978 225    41    38    3.0    0.0    3.0   0.00   4.16    2.5    2.4    0.6    4.2   4.16   1.45    0.00    0.02
 1978 226    42    39    3.0    0.0    3.0   0.00   4.07    2.6    2.4    0.6    4.1   4.07   1.38    0.00    0.02
 1978 227    43    40    3.1    0.0    3.1   0.00   4.00    2.7    2.5    0.6    4.0   4.00   1.26    0.00    0.03
 1978 228    44    41    3.2    0.0    3.2   0.00   3.94    3.0    2.7    0.6    3.9   3.94   1.25    0.00    0.03
 1978 229    45    42    3.4    0.0    3.4   0.00   3.87    3.2    2.9    0.5    3.9   3.87   1.19    0.00    0.04
 1978 230    46    43    3.7    0.0    3.7   0.00   4.07    3.6    3.1    0.6    4.1   4.07   1.26    0.00    0.04
 1978 231    47    44    3.8    0.0    3.8   0.00   4.14    3.7    3.2    0.6    4.1   4.14   1.27    0.00    0.05
 1978 232    48    45    3.8    0.0    3.8   0.00   4.10    3.7    3.2    0.6    4.1   4.10   1.26    0.00    0.05
 1978 233    49    46    3.8    0.0    3.8   0.00   3.87    3.7    3.2    0.5    3.9   3.87   1.26    0.00    0.05
 1978 234    50    47    4.0    0.0    4.0   0.00   3.87    3.9    3.5    0.5    3.9   3.87   1.11    0.00    0.05
 1978 235    51    48    4.3    0.0    4.3   0.00   4.05    4.3    3.7    0.6    4.1   4.05   1.22    0.00    0.06
 1978 236    52    49    4.4    0.0    4.4   0.00   3.97    4.4    3.8    0.6    4.0   3.97   1.16    0.00    0.07
 1978 237    53    50    4.6    0.0    4.6   0.00   3.95    4.7    4.0    0.6    4.0   3.95   1.17    0.00    0.07
 1978 238    54    51    4.7    0.0    4.7   0.00   3.89    4.8    4.2    0.5    3.9   3.89   1.08    0.00    0.08
 1978 239    55    52    5.0    0.0    5.0   0.00   3.77    5.0    4.5    0.5    3.8   3.77   1.08    0.00    0.08
 1978 240    56    53    5.4    0.0    5.4   0.00   3.74    5.5    4.9    0.5    3.7   3.74   1.09    0.00    0.09
 1978 241    57    54    5.9    0.0    5.9   0.00   3.90    6.1    5.3    0.5    3.9   3.90   1.14    0.00    0.10
 1978 242    58    55    6.1    0.0    6.1   0.00   3.99    6.5    5.6    0.6    4.0   3.99   1.20    0.00    0.10
 1978 243    59    56    6.2    0.0    6.2   0.00   3.97    6.8    5.7    0.6    4.0   3.97   1.26    0.00    0.11
 1978 244    60    57    6.3    0.0    6.3   0.00   3.84    6.8    5.8    0.5    3.8   3.84   1.13    0.00    0.12
 1978 245    61    58    6.7    0.0    6.7   0.00   3.98    7.2    6.1    0.6    4.0   3.98   1.17    0.00    0.13
 1978 246    62    59    6.8    0.0    6.8   0.00   3.92    7.3    6.2    0.5    3.9   3.92   1.13    0.00    0.14
 1978 247    63    60    6.9    0.0    6.9   0.00   3.98    7.4    6.4    0.6    4.0   3.98   1.07    0.00    0.15
 1978 248    64    61    7.0    0.0    7.0   0.00   3.80    7.4    6.4    0.5    3.8   3.80   1.08    0.00    0.16
 1978 249    65    62    7.3    0.0    7.3   0.00   3.56    7.8    6.8    0.5    3.6   3.56   1.09    0.00    0.16
 1978 250    66    63    8.2    0.0    8.2   0.00   3.64    8.7    7.7    0.5    3.6   3.64   1.09    0.00    0.17
 1978 251    67    64    8.9    0.0    8.9   0.00   3.42    9.5    8.4    0.5    3.4   3.42   1.11    0.00    0.18
 1978 252    68    65   10.3    0.0   10.3   0.00   3.73   11.3    9.8    0.5    3.7   3.73   1.21    0.00    0.19
 1978 253    69    66   10.8    0.0   10.8   0.00   3.73   12.2   10.3    0.5    3.7   3.73   1.21    0.00    0.20
 1978 254    70    67   11.4    0.0   11.4   0.00   3.81   13.2   10.9    0.5    3.8   3.81   1.25    0.00    0.21
 1978 255    71    68   11.7    0.0   11.7   0.00   3.76   13.4   11.2    0.5    3.8   3.76   1.16    0.00    0.23
 1978 256    72    69   12.2    0.0   12.2   0.00   3.76   13.7   11.7    0.5    3.8   3.76   1.08    0.00    0.24
 1978 257    73    70   12.7    0.0   12.7   0.00   3.74   14.2   12.1    0.5    3.7   3.74   1.08    0.00    0.26
 1978 258    74    71   13.1    0.0   13.1   0.00   3.68   15.4   12.6    0.5    3.7   3.68   1.22    0.00    0.27
 1978 259    75    72   13.9    0.0   13.9   0.00   3.65   16.6   13.4    0.5    3.7   3.65   1.20    0.00    0.29
 1978 260    76    73   14.6    0.0   14.6   0.00   3.37   17.0   14.1    0.5    3.4   3.37   1.09    0.00    0.31
 1978 261    77    74   17.4    0.0   17.4   0.00   3.78   19.8   16.9    0.5    3.8   3.78   1.08    0.00    0.33
 1978 262    78    75   18.4    0.0   18.4   0.00   3.68   20.8   17.9    0.5    3.7   3.68   1.07    0.00    0.34
 1978 263    79    76   18.9    0.0   18.9   0.00   3.60   21.5   18.4    0.5    3.6   3.60   1.10    0.00    0.36
 1978 264    80    77   20.4    0.0   20.4   0.00   3.56   24.1   19.9    0.5    3.6   3.56   1.23    0.00    0.38
 1978 265    81    78   21.7    0.0   21.7   0.00   3.53   25.7   21.2    0.5    3.5   3.53   1.17    0.00    0.41
 1978 266    82    79   24.0    0.0   24.0   0.00   3.50   27.6   23.4    0.6    3.5   3.50   1.07    0.00    0.43
 1978 267    83    80   25.7    0.0   25.7   0.00   3.46   29.3   25.1    0.7    3.5   3.46   1.07    0.00    0.46
 1978 268    84    81   29.0    0.0   29.0   0.00   3.42   33.6   28.2    0.8    3.4   3.42   1.18    0.00    0.48
 1978 269    85    82   32.6    0.0   32.6   0.00   3.38   37.9   31.5    1.1    3.4   3.38   1.18    0.00    0.51
 1978 270    86    83   35.5    0.0   35.5   0.00   3.34   40.4   34.1    1.4    3.3   3.34   1.09    0.00    0.54
 1978 271    87    84   37.6    0.0   37.6   0.00   3.32   44.5   35.9    1.7    3.3   3.32   1.24    0.00    0.57
 1978 272    88    85   39.3    0.0   39.3   0.00   3.30   47.6   37.3    1.9    3.3   3.30   1.24    0.00    0.61
 1978 273    89    86   41.9    0.0   41.9   0.00   3.27   50.5   39.5    2.3    3.3   3.27   1.17    0.00    0.66
 1978 274    90    87   44.4    0.0   44.4   0.00   3.24   52.3   41.6    2.8    3.2   3.24   1.07    0.00    0.71
 1978 275    91    88   46.8    0.0   46.8   0.00   3.22   54.8   43.5    3.3    3.2   3.22   1.08    0.00    0.75
 1978 276    92    89   49.1    0.0   49.1   0.00   3.19   57.2   45.3    3.8    3.2   3.19   1.08    0.00    0.80
 1978 277    93    90   53.1    0.0   53.1   0.00   3.16   61.9   48.3    4.8    3.2   3.16   1.11    0.00    0.85
 1978 278    94    91   56.0    0.0   56.0   0.00   3.13   64.9   50.4    5.6    3.1   3.13   1.10    0.00    0.90
 1978 279    95    92   59.4    0.0   59.4   0.00   3.10   68.7   52.7    6.7    3.1   3.10   1.11    0.00    0.95
 1978 280    96    93   62.4    0.0   62.4   0.00   3.07   71.5   54.7    7.7    3.1   3.07   1.07    0.00    1.00
 1978 281    97    94   65.1    0.0   65.1   0.00   3.04   74.2   56.4    8.7    3.0   3.04   1.07    0.00    1.05
 1978 282    98    95   67.6    0.0   67.6   0.00   3.01   77.3   57.9    9.7    3.0   3.01   1.11    0.00    1.10
 1978 283    99    96   70.7    0.0   70.7   0.00   2.98   82.7   59.7   11.0    3.0   2.98   1.19    0.00    1.15
 1978 284   100    97   74.3    0.0   74.3   0.00   2.96   86.1   61.8   12.5    3.0   2.96   1.12    0.00    1.22
 1978 285   101    98   77.8    0.0   77.8   0.00   2.94   89.1   63.7   14.1    2.9   2.94   1.07    0.00    1.28
 1978 286   102    99   80.8    0.0   80.8   0.00   2.94   92.1   65.4   15.4    2.9   2.94   1.07    0.00    1.35
[...]
 1995 204    20    17    0.0    0.0    0.0   0.00   0.00    0.0    0.0    0.0    0.0   0.00   0.00    0.00    0.00
 1995 205    21    18    1.2    0.0    1.2   0.00   4.40    0.0    0.6    0.6    4.4   4.40   0.00    0.00    0.00
 1995 206    22    19    1.3    0.0    1.3   0.00   4.54    0.2    0.6    0.6    4.5   4.54   1.07    0.00    0.00
 1995 207    23    20    1.3    0.0    1.3   0.00   4.54    0.2    0.6    0.6    4.5   4.54   1.07    0.00    0.00
 1995 208    24    21    1.3    0.0    1.3   0.00   4.54    0.2    0.6    0.6    4.5   4.54   1.06    0.00    0.00
 1995 209    25    22    1.3    0.0    1.3   0.00   4.50    0.2    0.6    0.6    4.5   4.50   1.13    0.00    0.00
 1995 210    26    23    1.3    0.0    1.3   0.00   4.49    0.2    0.6    0.6    4.5   4.49   1.14    0.00    0.00
 1995 211    27    24    1.3    0.0    1.3   0.00   4.49    0.2    0.6    0.6    4.5   4.49   1.13    0.00    0.00
 1995 212    28    25    1.3    0.0    1.3   0.00   4.48    0.2    0.6    0.6    4.5   4.48   1.13    0.00    0.00
 1995 213    29    26    1.3    0.0    1.3   0.00   4.48    0.2    0.6    0.6    4.5   4.48   1.17    0.00    0.00
 1995 214    30    27    1.3    0.0    1.3   0.00   4.48    0.2    0.6    0.6    4.5   4.48   1.18    0.00    0.00
 1995 215    31    28    1.3    0.0    1.3   0.00   4.48    0.2    0.6    0.6    4.5   4.48   1.17    0.00    0.00
 1995 216    32    29    1.3    0.0    1.3   0.00   4.48    0.2    0.6    0.6    4.5   4.48   1.17    0.00    0.00
 1995 217    33    30    1.3    0.0    1.3   0.00   4.48    0.2    0.6    0.6    4.5   4.48   1.18    0.00    0.00
 1995 218    34    31    1.3    0.0    1.3   0.00   4.48    0.2    0.6    0.6    4.5   4.48   1.18    0.00    0.00
 1995 219    35    32    1.3    0.0    1.3   0.00   4.48    0.2    0.6    0.6    4.5   4.48   1.18    0.00    0.00
 1995 220    36    33    1.3    0.0    1.3   0.00   4.48    0.2    0.6    0.6    4.5   4.48   1.19    0.00    0.00
 1995 221    37    34    1.3    0.0    1.3   0.00   4.48    0.2    0.6    0.6    4.5   4.48   1.19    0.00    0.00
 1995 222    38    35    1.3    0.0    1.3   0.00   4.48    0.2    0.6    0.6    4.5   4.48   1.20    0.00    0.00
 1995 223    39    36    1.3    0.0    1.3   0.00   4.48    0.2    0.6    0.6    4.5   4.48   1.19    0.00    0.00
 1995 224    40    37    1.3    0.0    1.3   0.00   4.48    0.2    0.6    0.6    4.5   4.48   1.18    0.00    0.00
 1995 225    41    38    1.3    0.0    1.3   0.00   4.48    0.2    0.6    0.6    4.5   4.48   1.15    0.00    0.00
 1995 226    42    39    1.3    0.0    1.3   0.00   4.48    0.2    0.6    0.6    4.5   4.48   1.13    0.00    0.00
 1995 227    43    40    1.3    0.0    1.3   0.00   4.48    0.2    0.6    0.6    4.5   4.48   1.11    0.00    0.00
 1995 228    44    41    1.3    0.0    1.3   0.00   4.48    0.2    0.6    0.6    4.5   4.48   1.09    0.00    0.00
 1995 229    45    42    1.3    0.0    1.3   0.00   4.48    0.2    0.6    0.6    4.5   4.48   1.05    0.00    0.00
 1995 230    46    43    1.2    0.0    1.2   0.00   4.37    0.2    0.6    0.6    4.4   4.37   1.19    0.00    0.01
 1995 231    47    44    1.2    0.0    1.2   0.00   4.37    0.2    0.6    0.6    4.4   4.37   1.18    0.00    0.01
 1995 232    48    45    1.2    0.0    1.2   0.00   4.37    0.2    0.6    0.6    4.4   4.37   1.14    0.00    0.01
 1995 233    49    46    1.2    0.0    1.2   0.00   4.04    0.2    0.7    0.6    4.0   4.04   1.11    0.00    0.01
 1995 234    50    47    1.3    0.0    1.3   0.00   3.16    0.3    0.9    0.4    3.2   3.16   1.10    0.00    0.01
 1995 235    51    48    1.7    0.0    1.7   0.00   3.78    0.7    1.2    0.5    3.8   3.78   1.10    0.00    0.01
 1995 236    52    49    2.0    0.0    2.0   0.00   3.71    1.0    1.4    0.5    3.7   3.71   1.11    0.00    0.01
 1995 237    53    50    2.2    0.0    2.2   0.00   3.74    1.2    1.7    0.5    3.7   3.74   1.11    0.00    0.01
 1995 238    54    51    2.5    0.0    2.5   0.00   3.76    1.7    2.0    0.5    3.8   3.76   1.42    0.00    0.01
 1995 239    55    52    2.8    0.0    2.8   0.00   3.82    2.0    2.2    0.5    3.8   3.82   1.16    0.00    0.01
 1995 240    56    53    3.0    0.0    3.0   0.00   3.97    2.5    2.5    0.6    4.0   3.97   1.51    0.00    0.02
 1995 241    57    54    3.2    0.0    3.2   0.00   3.92    2.7    2.6    0.5    3.9   3.92   1.35    0.00    0.02
 1995 242    58    55    3.4    0.0    3.4   0.00   3.89    3.0    2.8    0.5    3.9   3.89   1.27    0.00    0.02
 1995 243    59    56    3.6    0.0    3.6   0.00   4.08    3.5    3.0    0.6    4.1   4.08   1.47    0.00    0.03
 1995 244    60    57    3.7    0.0    3.7   0.00   4.03    3.5    3.1    0.6    4.0   4.03   1.33    0.00    0.03
 1995 245    61    58    3.7    0.0    3.7   0.00   3.64    3.5    3.1    0.5    3.6   3.64   1.28    0.00    0.03
 1995 246    62    59    4.1    0.0    4.1   0.00   3.50    3.9    3.6    0.5    3.5   3.50   1.10    0.00    0.04
 1995 247    63    60    4.8    0.0    4.8   0.00   3.38    4.6    4.3    0.5    3.4   3.38   1.12    0.00    0.04
 1995 248    64    61    5.7    0.0    5.7   0.00   3.35    5.7    5.2    0.5    3.4   3.35   1.15    0.00    0.05
 1995 249    65    62    6.8    0.0    6.8   0.00   3.70    6.7    6.3    0.5    3.7   3.70   1.09    0.00    0.05
 1995 250    66    63    7.4    0.0    7.4   0.00   3.87    7.4    6.9    0.5    3.9   3.87   1.11    0.00    0.06
 1995 251    67    64    7.6    0.0    7.6   0.00   3.72    7.6    7.1    0.5    3.7   3.72   1.10    0.00    0.07
 1995 252    68    65    8.2    0.0    8.2   0.00   3.84    8.4    7.6    0.5    3.8   3.84   1.20    0.00    0.07
 1995 253    69    66    8.5    0.0    8.5   0.00   3.91    9.3    7.9    0.5    3.9   3.91   1.47    0.00    0.08
 1995 254    70    67    8.5    0.0    8.5   0.00   3.82    9.3    7.9    0.5    3.8   3.82   1.44    0.00    0.08
 1995 255    71    68    8.5    0.0    8.5   0.00   3.66    9.3    8.0    0.5    3.7   3.66   1.38    0.00    0.08
 1995 256    72    69    9.2    0.0    9.2   0.00   3.72   10.4    8.6    0.5    3.7   3.72   1.30    0.00    0.09
 1995 257    73    70    9.7    0.0    9.7   0.00   3.63   11.3    9.2    0.5    3.6   3.63   1.25    0.00    0.10
 1995 258    74    71   10.4    0.0   10.4   0.00   3.53   12.5    9.9    0.5    3.5   3.53   1.22    0.00    0.12
 1995 259    75    72   11.5    0.0   11.5   0.00   3.79   14.2   11.0    0.5    3.8   3.79   1.24    0.00    0.13
 1995 260    76    73   11.8    0.0   11.8   0.00   3.80   15.2   11.3    0.5    3.8   3.80   1.34    0.00    0.15
 1995 261    77    74   11.9    0.0   11.9   0.00   3.73   15.5   11.4    0.5    3.7   3.73   1.31    0.00    0.17
 1995 262    78    75   12.7    0.0   12.7   0.00   3.84   16.4   12.2    0.5    3.8   3.84   1.22    0.00    0.20
 1995 263    79    76   13.0    0.0   13.0   0.00   3.68   16.4   12.5    0.5    3.7   3.68   1.11    0.00    0.22
 1995 264    80    77   13.6    0.0   13.6   0.00   3.58   17.1   13.1    0.5    3.6   3.58   1.11    0.00    0.25
 1995 265    81    78   14.3    0.0   14.3   0.00   3.56   18.5   13.8    0.5    3.6   3.56   1.16    0.00    0.27
 1995 266    82    79   15.3    0.0   15.3   0.00   3.54   20.1   14.8    0.5    3.5   3.54   1.17    0.00    0.30
 1995 267    83    80   16.5    0.0   16.5   0.00   3.51   21.3   16.0    0.5    3.5   3.51   1.12    0.00    0.33
 1995 268    84    81   17.2    0.0   17.2   0.00   3.52   22.5   16.6    0.5    3.5   3.52   1.15    0.00    0.36
 1995 269    85    82   17.8    0.0   17.8   0.00   3.52   23.6   17.2    0.5    3.5   3.52   1.17    0.00    0.39
 1995 270    86    83   18.7    0.0   18.7   0.00   3.51   24.0   18.1    0.6    3.5   3.51   1.08    0.00    0.43
 1995 271    87    84   19.8    0.0   19.8   0.00   3.44   25.3   19.2    0.6    3.4   3.44   1.09    0.00    0.46
 1995 272    88    85   21.2    0.0   21.2   0.00   3.41   27.1   20.6    0.7    3.4   3.41   1.10    0.00    0.49
 1995 273    89    86   23.0    0.0   23.0   0.00   3.39   29.1   22.2    0.8    3.4   3.39   1.11    0.00    0.53
 1995 274    90    87   24.7    0.0   24.7   0.00   3.36   30.6   23.8    0.9    3.4   3.36   1.07    0.00    0.56
 1995 275    91    88   28.0    0.0   28.0   0.00   3.32   34.7   26.7    1.3    3.3   3.32   1.13    0.00    0.60
 1995 276    92    89   31.0    0.0   31.0   0.00   3.28   37.5   29.4    1.6    3.3   3.28   1.09    0.00    0.64
 1995 277    93    90   33.7    0.0   33.7   0.00   3.25   40.2   31.7    2.1    3.2   3.25   1.08    0.00    0.68
 1995 278    94    91   35.0    0.0   35.0   0.00   3.21   42.3   32.7    2.3    3.2   3.21   1.13    0.00    0.71
 1995 279    95    92   36.6    0.0   36.6   0.00   3.19   46.1   34.0    2.6    3.2   3.19   1.22    0.00    0.76
 1995 280    96    93   38.2    0.0   38.2   0.00   3.18   48.8   35.3    3.0    3.2   3.18   1.20    0.00    0.81
 1995 281    97    94   39.6    0.0   39.6   0.00   3.18   50.4   36.4    3.2    3.2   3.18   1.15    0.00    0.87
 1995 282    98    95   40.9    0.0   40.9   0.00   3.15   53.1   37.4    3.6    3.1   3.15   1.17    0.00    0.93
 1995 283    99    96   42.9    0.0   42.9   0.00   3.13   55.0   38.9    4.1    3.1   3.13   1.11    0.00    0.99
 1995 284   100    97   44.6    0.0   44.6   0.00   3.12   58.5   40.1    4.5    3.1   3.12   1.17    0.00    1.06
 1995 285   101    98   46.6    0.0   46.6   0.00   3.09   62.2   41.6    5.1    3.1   3.09   1.18    0.00    1.14
 1995 286   102    99   49.6    0.0   49.6   0.00   3.06   66.7   43.7    6.0    3.1   3.06   1.17    0.00    1.22
 1995 287   103   100   51.8    0.0   51.8   0.00   3.04   70.7   45.1    6.6    3.0   3.04   1.17    0.00    1.31
 1995 288   104   101   53.4    0.0   53.4   0.00   3.04   73.5   46.2    7.1    3.0   3.04   1.16    0.00    1.41
 1995 289   105   102   55.1    0.0   55.1   0.00   3.01   76.7   47.4    7.8    3.0   3.01   1.15    0.00    1.52
 1995 290   106   103   57.5    0.0   57.5   0.00   3.00   80.6   48.9    8.6    3.0   3.00   1.15    0.00    1.63
 1995 291   107   104   59.6    0.0   59.6   0.00   2.98   83.2   50.2    9.4    3.0   2.98   1.12    0.00    1.75
 1995 292   108   105   62.3    0.0   62.3   0.00   2.96   87.5   51.9   10.5    3.0   2.96   1.13    0.00    1.87
 1995 293   109   106   65.9    0.0   65.9   0.00   2.93   92.6   54.0   11.9    2.9   2.93   1.13    0.00    2.00
 1995 294   110   107   70.7    0.0   70.7   0.00   2.90   98.3   56.7   14.1    2.9   2.90   1.12    0.00    2.14
 1995 295   111   108   76.1    0.0   76.1   0.00   2.86  104.6   59.5   16.6    2.9   2.86   1.11    0.00    2.29
 1995 296   112   109   78.7    0.0   78.7   0.00   2.83  106.0   60.7   18.0    2.8   2.83   1.07    0.00    2.43
 1995 297   113   110   81.2    0.0   81.2   0.00   2.83  108.8   62.1   19.1    2.8   2.83   1.08    0.00    2.58
 1995 298   114   111   82.5    0.0   82.5   0.00   2.82  110.9   62.7   19.8    2.8   2.82   1.09    0.00    2.72
 1995 299   115   112   84.0    0.0   84.0   0.00   2.80  115.0   63.3   20.7    2.8   2.80   1.13    0.00    2.86
 1995 300   116   113   85.9    0.0   85.9   0.00   2.81  118.9   64.3   21.5    2.8   2.81   1.16    0.00    3.02
 1995 301   117   114   87.3    0.0   87.3   0.00   2.78  121.6   64.8   22.5    2.8   2.78   1.14    0.00    3.19
 1995 302   118   115   90.3    0.0   90.3   0.00   2.75  125.1   66.1   24.2    2.8   2.75   1.11    0.00    3.37
 1995 303   119   116   99.9    0.0   99.9   0.00   2.73  133.5   71.0   28.9    2.7   2.73   1.07    0.00    3.55
 1995 304   120   117  108.9    0.0  108.9   0.00   2.69  143.0   74.5   34.3    2.7   2.69   1.08    0.00    3.72
 1995 305   121   118  116.0    0.0  116.0   0.00   2.62  150.0   76.4   39.6    2.6   2.62   1.07    0.00    3.90
 1995 306   122   119  121.3    0.0  121.3   0.00   2.54  155.3   77.0   44.3    2.5   2.54   1.07    0.00    4.07
 1995 307   123   120  125.6    0.0  125.6   0.00   2.43  159.7   76.8   48.8    2.4   2.43   1.07    0.00    4.24
 1995 308   124   121  129.3    0.0  129.3   0.00   2.40  163.4   77.4   51.9    2.4   2.40   1.07    0.00    4.42
 1995 309   125   122  132.4    0.0  132.4   0.00   2.39  166.4   78.0   54.4    2.4   2.39   1.07    0.00    4.59
 1995 310   126   123  134.9    0.0  134.9   0.00   2.38  168.9   78.4   56.5    2.4   2.38   1.07    0.00    4.77
 1995 311   127   124  136.6    0.0  136.6   0.00   2.35  170.5   78.3   58.2    2.3   2.35   1.07    0.00    4.94
 1995 312   128   125  137.6    0.0  137.6   0.00   2.29  171.9   77.5   60.1    2.3   2.29   1.04    0.00    5.11
 1995 313   129   126  139.7    0.0  139.7   0.00   2.26  174.8   77.4   62.3    2.3   2.26   1.01    0.00    5.29
 1995 314   130   127  141.6    0.0  141.6   0.00   2.23  177.7   77.4   64.2    2.2   2.23   0.99    0.00    5.47
 1995 315   131   128  143.4    0.0  143.4   0.00   2.18  180.2   77.0   66.4    2.2   2.18   0.98    0.00    5.65
 1995 316   132   129  145.2    0.0  145.2   0.00   2.13  182.3   76.4   68.8    2.1   2.13   0.99    0.00    5.84
 1995 317   133   130  146.7    0.0  146.7   0.00   2.08  184.2   75.8   70.9    2.1   2.08   0.99    0.00    6.03
 1995 318   134   131  148.0    0.0  148.0   0.00   2.02  185.9   75.2   72.9    2.0   2.02   0.97    0.00    6.22
 1995 319   135   132  149.2    0.0  149.2   0.00   1.98  187.3   74.6   74.6    2.0   1.98   0.97    0.00    6.41
 1995 320   136   133  150.1    0.0  150.1   0.00   1.94  188.5   74.1   76.0    1.9   1.94   0.95    0.00    6.61
 1995 321   137   134  151.1    0.0  151.1   0.00   2.12  189.8   80.4   70.6    2.1   2.12   0.93    0.00    6.80
 1995 322   138   135  151.7    0.0  151.7   0.00   2.13  191.0   79.6   72.1    2.1   2.13   0.91    0.00    7.00
 1995 323   139   136  152.2    0.0  152.2   0.00   2.12  192.1   78.7   73.6    2.1   2.12   0.92    0.00    7.20
 1995 324   140   137  152.7    0.0  152.7   0.00   2.12  193.2   77.5   75.2    2.1   2.12   0.94    0.00    7.40
 1995 325   141   138  152.9    0.0  152.9   0.00   2.12  194.2   76.5   76.4    2.1   2.12   0.93    0.00    7.60
 1995 326   142   139  152.8    0.0  152.8   0.00   2.12  195.2   75.4   77.5    2.1   2.12   0.91    0.00    7.81
 1995 327   143   140  152.6    0.0  152.6   0.00   2.11  196.1   74.1   78.5    2.1   2.11   0.91    0.00    8.03
 1995 328   144   141  152.4    0.0  152.4   0.00   2.10  197.0   72.6   79.8    2.1   2.10   0.92    0.00    8.24
 1995 329   145   142  151.5    0.0  151.5   0.00   2.09  197.9   71.1   80.4    2.1   2.09   0.92    0.00    8.47
 1995 330   146   143  150.1    0.0  150.1   0.00   2.08  199.2   69.3   80.7    2.1   2.08   0.94    0.00    8.70
 1995 331   147   144  148.5    0.0  148.5   0.00   2.05  200.6   67.3   81.2    2.1   2.05   0.97    0.00    8.95
 1995 332   148   145  145.9    0.0  145.9   0.00   2.01  201.8   64.7   81.2    2.0   2.01   1.02    0.00    9.21
 1995 333   149   146  145.9    0.0  145.9   0.00   2.01  201.8   63.5   82.4    2.0   2.01   1.02    0.00    9.21
 1995 334   150   147  145.9    0.0  145.9   0.00   2.01  201.8   62.0   83.9    2.0   2.01   1.02    0.00    9.21
 1995 335   151   148  145.9    0.0  145.9   0.00   2.01  201.8   60.4   85.5    2.0   2.01   1.00    0.00    9.21
 1995 336   152   149  141.2    4.6  136.7   1.70   1.88  202.1   56.6   80.0    1.9   1.88   1.08    0.00    9.49
 1995 337   153   150  144.1    9.7  134.4   1.70   1.85  205.2   55.7   78.7    1.8   1.85   1.08    0.00    9.80
 1995 338   154   151  145.4   14.8  130.5   1.71   1.80  206.7   54.1   76.5    1.8   1.80   1.07    0.00   10.11
 1995 339   155   152  146.8   20.0  126.8   1.71   1.74  208.2   52.5   74.3    1.7   1.74   1.07    0.00   10.42
 1995 340   156   153  147.6   22.5  125.2   1.71   1.72  209.5   51.9   73.3    1.7   1.72   1.06    0.00   10.72
 1995 341   157   154  148.3   24.2  124.1   1.71   1.71  210.7   51.4   72.7    1.7   1.71   1.05    0.00   11.03
 1995 342   158   155  149.0   27.2  121.8   1.71   1.68  211.8   50.5   71.4    1.7   1.68   1.05    0.00   11.35
 1995 343   159   156  149.6   31.1  118.5   1.70   1.63  212.7   49.1   69.4    1.6   1.63   1.04    0.00   11.66
 1995 344   160   157  150.3   33.7  116.6   1.70   1.60  213.8   48.3   68.3    1.6   1.60   1.04    0.00   11.98
 1995 345   161   158  151.0   38.7  112.3   1.70   1.54  214.7   46.5   65.8    1.5   1.54   1.03    0.00   12.29
 1995 346   162   159  151.7   42.1  109.7   1.70   1.51  215.7   45.4   64.2    1.5   1.51   1.03    0.00   12.61
 1995 347   163   160  152.5   46.7  105.7   1.70   1.45  216.7   43.8   61.9    1.5   1.45   1.02    0.00   12.93
 1995 348   164   161  153.2   51.6  101.6   1.69   1.40  217.7   42.1   59.5    1.4   1.40   1.02    0.00   13.25
 1995 349   165   162  153.9   56.4   97.4   1.68   1.34  218.4   40.4   57.1    1.3   1.34   1.02    0.00   13.57
 1995 350   166   163  154.8   61.4   93.5   1.68   1.29  219.6   38.7   54.7    1.3   1.29   1.02    0.00   13.90
 1995 351   167   164  155.6   65.6   89.9   1.67   1.24  220.5   37.3   52.7    1.2   1.24   1.02    0.00   14.22
 1995 352   168   165  156.5   69.5   86.9   1.66   1.20  221.6   36.0   50.9    1.2   1.20   1.01    0.00   14.54
 1995 353   169   166  157.1   73.9   83.3   1.64   1.15  222.5   34.5   48.8    1.1   1.15   1.02    0.00   14.87
 1995 354   170   167  158.0   78.1   79.8   1.63   1.11  223.4   33.5   46.3    1.1   1.11   1.02    0.00   15.19
 1995 355   171   168  158.6   82.2   76.4   1.61   1.09  224.1   32.7   43.7    1.1   1.09   1.03    0.00   15.52
 1995 356   172   169  159.2   86.3   73.0   1.60   1.06  224.8   31.8   41.2    1.1   1.06   1.04    0.00   15.85
 1995 357   173   170  159.9   90.2   69.6   1.58   1.00  225.6   30.0   39.6    1.0   1.00   1.04    0.00   16.17
 1995 358   174   171  160.9   93.8   67.0   1.57   0.95  226.7   28.5   38.5    0.9   0.95   1.03    0.00   16.50
 1995 359   175   172  161.7   96.9   64.7   1.56   0.90  227.6   27.1   37.7    0.9   0.90   1.03    0.00   16.83
 1995 360   176   173  162.4  100.3   62.1   1.54   0.85  228.4   25.7   36.4    0.9   0.85   1.03    0.00   17.15
 1995 361   177   174  163.1  103.5   59.7   1.52   0.82  229.3   24.7   34.9    0.8   0.82   1.03    0.00   17.48
 1995 362   178   175  163.9  106.6   57.3   1.50   0.79  230.1   23.7   33.5    0.8   0.79   1.03    0.00   17.81
 1995 363   179   176  164.6  109.4   55.3   1.49   0.76  230.9   22.9   32.4    0.8   0.76   1.04    0.00   18.14
 1995 364   180   177  165.3  112.3   53.1   1.47   0.73  231.7   22.0   31.1    0.7   0.73   1.04    0.00   18.47
 1995 365   181   178  166.1  115.1   51.0   1.45   0.70  232.5   21.1   29.9    0.7   0.70   1.04    0.00   18.79
 1996 001   182   179  166.6  117.7   48.9   1.43   0.67  233.1   20.2   28.6    0.7   0.67   1.05    0.00   19.12
 1996 002   183   180  167.5  120.3   47.2   1.41   0.65  234.0   19.5   27.6    0.6   0.65   1.05    0.00   19.45
 1996 003   184   181  168.2  122.8   45.3   1.39   0.63  234.7   18.8   26.5    0.6   0.63   1.05    0.00   19.78
 1996 004   185   182  169.0  125.2   43.8   1.37   0.61  235.6   18.5   25.3    0.6   0.61   1.06    0.00   20.11
 1996 005   186   183  169.8  127.5   42.4   1.35   0.60  236.4   18.0   24.3    0.6   0.60   1.06    0.00   20.44
 1996 006   187   184  170.4  128.8   41.6   1.34   0.58  237.1   17.6   24.0    0.6   0.58   1.07    0.00   20.77
 1996 007   188   185  171.2  130.4   40.8   1.32   0.57  237.9   17.2   23.6    0.6   0.57   1.07    0.00   21.10
 1996 008   189   186  172.1  132.2   39.9   1.31   0.56  238.7   16.9   23.0    0.6   0.56   1.07    0.00   21.43
 1996 009   190   187  172.1  132.2   39.9   1.31   0.56  239.5   16.9   23.0    0.6   0.56   1.07    0.00   21.43
 1996 010   191   188  172.1  132.2   39.9   1.31   0.56  240.3   16.9   23.0    0.6   0.56   1.07    0.00   21.43
 1996 011   192   189  172.1  132.2   39.9   1.31   0.56  241.0   16.9   23.0    0.6   0.56   1.07    0.00   21.43
