*WATER BALANCE OUTPUT FILE

*DSSAT Cropping System Model Ver. 4.0.2.000               Aug 01, 2016; 15:14:21

*RUN   1        : UYMZ                    
 MODEL          : MZCER040 - Maize           
 EXPERIMENT     : UYMZ0102 MZ    late to create DSS                             
 TREATMENT  1   : UYMZ                    


     WATER BALANCE PARAMETERS
     ========================                  --mm--

     Soil H20 (start) on Year/day 1975/184     490.84
     Soil H20 (final) on Year/day 1976/018     494.19
     Effective Irrigation                      244.93
     Precipitation                             585.60
     Drainage                                  140.29
     Runoff                                      1.85
     Soil Evaporation                          220.41
     Transpiration                             464.63
     Potential ET                              754.69

     Final Balance                             0.0001


*DSSAT Cropping System Model Ver. 4.0.2.000               Aug 01, 2016; 15:14:21

*RUN   2        : UYMZ                    
 MODEL          : MZCER040 - Maize           
 EXPERIMENT     : UYMZ0102 MZ    late to create DSS                             
 TREATMENT  1   : UYMZ                    


     WATER BALANCE PARAMETERS
     ========================                  --mm--

     Soil H20 (start) on Year/day 1976/184     490.84
     Soil H20 (final) on Year/day 1977/019     535.15
     Effective Irrigation                      104.13
     Precipitation                             678.80
     Drainage                                   90.90
     Runoff                                      0.89
     Soil Evaporation                          206.68
     Transpiration                             440.14
     Potential ET                              723.68

     Final Balance                             0.0000


*DSSAT Cropping System Model Ver. 4.0.2.000               Aug 01, 2016; 15:14:21

*RUN   3        : UYMZ                    
 MODEL          : MZCER040 - Maize           
 EXPERIMENT     : UYMZ0102 MZ    late to create DSS                             
 TREATMENT  1   : UYMZ                    


     WATER BALANCE PARAMETERS
     ========================                  --mm--

     Soil H20 (start) on Year/day 1977/184     490.84
     Soil H20 (final) on Year/day 1978/006     454.94
     Effective Irrigation                      126.02
     Precipitation                             960.20
     Drainage                                  505.97
     Runoff                                      5.74
     Soil Evaporation                          201.78
     Transpiration                             408.62
     Potential ET                              663.79

     Final Balance                             0.0000


*DSSAT Cropping System Model Ver. 4.0.2.000               Aug 01, 2016; 15:14:21

*RUN   4        : UYMZ                    
 MODEL          : MZCER040 - Maize           
 EXPERIMENT     : UYMZ0102 MZ    late to create DSS                             
 TREATMENT  1   : UYMZ                    


     WATER BALANCE PARAMETERS
     ========================                  --mm--

     Soil H20 (start) on Year/day 1978/184     490.84
     Soil H20 (final) on Year/day 1979/011     449.20
     Effective Irrigation                      102.43
     Precipitation                             586.50
     Drainage                                   93.57
     Runoff                                      1.78
     Soil Evaporation                          180.91
     Transpiration                             454.30
     Potential ET                              670.20

     Final Balance                             0.0001


*DSSAT Cropping System Model Ver. 4.0.2.000               Aug 01, 2016; 15:14:21

*RUN   5        : UYMZ                    
 MODEL          : MZCER040 - Maize           
 EXPERIMENT     : UYMZ0102 MZ    late to create DSS                             
 TREATMENT  1   : UYMZ                    


     WATER BALANCE PARAMETERS
     ========================                  --mm--

     Soil H20 (start) on Year/day 1979/184     490.84
     Soil H20 (final) on Year/day 1980/015     441.05
     Effective Irrigation                      188.66
     Precipitation                             637.80
     Drainage                                  252.31
     Runoff                                      3.60
     Soil Evaporation                          217.21
     Transpiration                             403.13
     Potential ET                              696.50

     Final Balance                             0.0002


*DSSAT Cropping System Model Ver. 4.0.2.000               Aug 01, 2016; 15:14:21

*RUN   6        : UYMZ                    
 MODEL          : MZCER040 - Maize           
 EXPERIMENT     : UYMZ0102 MZ    late to create DSS                             
 TREATMENT  1   : UYMZ                    


     WATER BALANCE PARAMETERS
     ========================                  --mm--

     Soil H20 (start) on Year/day 1980/184     490.84
     Soil H20 (final) on Year/day 1981/015     459.14
     Effective Irrigation                      165.49
     Precipitation                             624.40
     Drainage                                  225.08
     Runoff                                     27.78
     Soil Evaporation                          168.34
     Transpiration                             400.39
     Potential ET                              702.35

     Final Balance                             0.0002


*DSSAT Cropping System Model Ver. 4.0.2.000               Aug 01, 2016; 15:14:21

*RUN   7        : UYMZ                    
 MODEL          : MZCER040 - Maize           
 EXPERIMENT     : UYMZ0102 MZ    late to create DSS                             
 TREATMENT  1   : UYMZ                    


     WATER BALANCE PARAMETERS
     ========================                  --mm--

     Soil H20 (start) on Year/day 1981/184     490.84
     Soil H20 (final) on Year/day 1982/014     434.76
     Effective Irrigation                      227.69
     Precipitation                             693.70
     Drainage                                  319.32
     Runoff                                      9.15
     Soil Evaporation                          243.34
     Transpiration                             405.66
     Potential ET                              709.32

     Final Balance                             0.0000


*DSSAT Cropping System Model Ver. 4.0.2.000               Aug 01, 2016; 15:14:21

*RUN   8        : UYMZ                    
 MODEL          : MZCER040 - Maize           
 EXPERIMENT     : UYMZ0102 MZ    late to create DSS                             
 TREATMENT  1   : UYMZ                    


     WATER BALANCE PARAMETERS
     ========================                  --mm--

     Soil H20 (start) on Year/day 1982/184     490.84
     Soil H20 (final) on Year/day 1983/014     451.24
     Effective Irrigation                      157.68
     Precipitation                             718.40
     Drainage                                  250.14
     Runoff                                     14.00
     Soil Evaporation                          196.12
     Transpiration                             455.42
     Potential ET                              694.17

     Final Balance                            -0.0001


*DSSAT Cropping System Model Ver. 4.0.2.000               Aug 01, 2016; 15:14:21

*RUN   9        : UYMZ                    
 MODEL          : MZCER040 - Maize           
 EXPERIMENT     : UYMZ0102 MZ    late to create DSS                             
 TREATMENT  1   : UYMZ                    


     WATER BALANCE PARAMETERS
     ========================                  --mm--

     Soil H20 (start) on Year/day 1983/184     490.84
     Soil H20 (final) on Year/day 1984/017     550.02
     Effective Irrigation                       32.80
     Precipitation                            1124.80
     Drainage                                  463.19
     Runoff                                     53.69
     Soil Evaporation                          199.53
     Transpiration                             382.01
     Potential ET                              684.18

     Final Balance                            -0.0001


*DSSAT Cropping System Model Ver. 4.0.2.000               Aug 01, 2016; 15:14:21

*RUN  10        : UYMZ                    
 MODEL          : MZCER040 - Maize           
 EXPERIMENT     : UYMZ0102 MZ    late to create DSS                             
 TREATMENT  1   : UYMZ                    


     WATER BALANCE PARAMETERS
     ========================                  --mm--

     Soil H20 (start) on Year/day 1984/184     490.84
     Soil H20 (final) on Year/day 1985/030     431.55
     Effective Irrigation                      249.60
     Precipitation                             596.30
     Drainage                                  191.63
     Runoff                                      4.54
     Soil Evaporation                          203.67
     Transpiration                             505.35
     Potential ET                              783.56

     Final Balance                            -0.0001


*DSSAT Cropping System Model Ver. 4.0.2.000               Aug 01, 2016; 15:14:21

*RUN  11        : UYMZ                    
 MODEL          : MZCER040 - Maize           
 EXPERIMENT     : UYMZ0102 MZ    late to create DSS                             
 TREATMENT  1   : UYMZ                    


     WATER BALANCE PARAMETERS
     ========================                  --mm--

     Soil H20 (start) on Year/day 1985/184     490.84
     Soil H20 (final) on Year/day 1986/008     433.33
     Effective Irrigation                      186.95
     Precipitation                             552.30
     Drainage                                  186.91
     Runoff                                      1.88
     Soil Evaporation                          172.37
     Transpiration                             435.60
     Potential ET                              667.18

     Final Balance                             0.0000


*DSSAT Cropping System Model Ver. 4.0.2.000               Aug 01, 2016; 15:14:21

*RUN  12        : UYMZ                    
 MODEL          : MZCER040 - Maize           
 EXPERIMENT     : UYMZ0102 MZ    late to create DSS                             
 TREATMENT  1   : UYMZ                    


     WATER BALANCE PARAMETERS
     ========================                  --mm--

     Soil H20 (start) on Year/day 1986/184     490.84
     Soil H20 (final) on Year/day 1987/016     463.79
     Effective Irrigation                      104.31
     Precipitation                             863.70
     Drainage                                  341.22
     Runoff                                      6.99
     Soil Evaporation                          194.98
     Transpiration                             451.87
     Potential ET                              698.56

     Final Balance                             0.0001


*DSSAT Cropping System Model Ver. 4.0.2.000               Aug 01, 2016; 15:14:21

*RUN  13        : UYMZ                    
 MODEL          : MZCER040 - Maize           
 EXPERIMENT     : UYMZ0102 MZ    late to create DSS                             
 TREATMENT  1   : UYMZ                    


     WATER BALANCE PARAMETERS
     ========================                  --mm--

     Soil H20 (start) on Year/day 1987/184     490.84
     Soil H20 (final) on Year/day 1988/017     525.25
     Effective Irrigation                       60.57
     Precipitation                             996.80
     Drainage                                  247.12
     Runoff                                    133.74
     Soil Evaporation                          222.94
     Transpiration                             419.16
     Potential ET                              725.27

     Final Balance                             0.0003


*DSSAT Cropping System Model Ver. 4.0.2.000               Aug 01, 2016; 15:14:21

*RUN  14        : UYMZ                    
 MODEL          : MZCER040 - Maize           
 EXPERIMENT     : UYMZ0102 MZ    late to create DSS                             
 TREATMENT  1   : UYMZ                    


     WATER BALANCE PARAMETERS
     ========================                  --mm--

     Soil H20 (start) on Year/day 1988/184     490.84
     Soil H20 (final) on Year/day 1989/018     471.43
     Effective Irrigation                      303.56
     Precipitation                             525.80
     Drainage                                  146.48
     Runoff                                     14.39
     Soil Evaporation                          254.23
     Transpiration                             433.67
     Potential ET                              816.94

     Final Balance                            -0.0002


*DSSAT Cropping System Model Ver. 4.0.2.000               Aug 01, 2016; 15:14:21

*RUN  15        : UYMZ                    
 MODEL          : MZCER040 - Maize           
 EXPERIMENT     : UYMZ0102 MZ    late to create DSS                             
 TREATMENT  1   : UYMZ                    


     WATER BALANCE PARAMETERS
     ========================                  --mm--

     Soil H20 (start) on Year/day 1989/184     490.84
     Soil H20 (final) on Year/day 1990/013     461.94
     Effective Irrigation                      258.30
     Precipitation                             519.20
     Drainage                                   99.71
     Runoff                                     65.63
     Soil Evaporation                          227.49
     Transpiration                             413.57
     Potential ET                              735.29

     Final Balance                             0.0001


*DSSAT Cropping System Model Ver. 4.0.2.000               Aug 01, 2016; 15:14:21

*RUN  16        : UYMZ                    
 MODEL          : MZCER040 - Maize           
 EXPERIMENT     : UYMZ0102 MZ    late to create DSS                             
 TREATMENT  1   : UYMZ                    


     WATER BALANCE PARAMETERS
     ========================                  --mm--

     Soil H20 (start) on Year/day 1990/184     490.84
     Soil H20 (final) on Year/day 1990/245     519.64
     Effective Irrigation                       41.63
     Precipitation                              42.00
     Drainage                                    0.00
     Runoff                                      0.00
     Soil Evaporation                           52.87
     Transpiration                               1.96
     Potential ET                              135.56

     Final Balance                             0.0001


*DSSAT Cropping System Model Ver. 4.0.2.000               Aug 01, 2016; 15:14:21

*RUN  17        : UYMZ                    
 MODEL          : MZCER040 - Maize           
 EXPERIMENT     : UYMZ0102 MZ    late to create DSS                             
 TREATMENT  1   : UYMZ                    


     WATER BALANCE PARAMETERS
     ========================                  --mm--

     Soil H20 (start) on Year/day 1991/184     490.84
     Soil H20 (final) on Year/day 1992/014     469.70
     Effective Irrigation                       72.80
     Precipitation                             783.10
     Drainage                                  239.00
     Runoff                                     14.70
     Soil Evaporation                          192.44
     Transpiration                             430.90
     Potential ET                              665.09

     Final Balance                            -0.0001


*DSSAT Cropping System Model Ver. 4.0.2.000               Aug 01, 2016; 15:14:21

*RUN  18        : UYMZ                    
 MODEL          : MZCER040 - Maize           
 EXPERIMENT     : UYMZ0102 MZ    late to create DSS                             
 TREATMENT  1   : UYMZ                    


     WATER BALANCE PARAMETERS
     ========================                  --mm--

     Soil H20 (start) on Year/day 1992/184     490.84
     Soil H20 (final) on Year/day 1993/020     462.22
     Effective Irrigation                      133.50
     Precipitation                             596.60
     Drainage                                   93.22
     Runoff                                      0.83
     Soil Evaporation                          239.28
     Transpiration                             425.39
     Potential ET                              754.24

     Final Balance                             0.0001


*DSSAT Cropping System Model Ver. 4.0.2.000               Aug 01, 2016; 15:14:21

*RUN  19        : UYMZ                    
 MODEL          : MZCER040 - Maize           
 EXPERIMENT     : UYMZ0102 MZ    late to create DSS                             
 TREATMENT  1   : UYMZ                    


     WATER BALANCE PARAMETERS
     ========================                  --mm--

     Soil H20 (start) on Year/day 1993/184     490.84
     Soil H20 (final) on Year/day 1994/019     483.65
     Effective Irrigation                       98.79
     Precipitation                             702.80
     Drainage                                  194.82
     Runoff                                     12.51
     Soil Evaporation                          165.34
     Transpiration                             436.11
     Potential ET                              710.68

     Final Balance                             0.0002


*DSSAT Cropping System Model Ver. 4.0.2.000               Aug 01, 2016; 15:14:21

*RUN  20        : UYMZ                    
 MODEL          : MZCER040 - Maize           
 EXPERIMENT     : UYMZ0102 MZ    late to create DSS                             
 TREATMENT  1   : UYMZ                    


     WATER BALANCE PARAMETERS
     ========================                  --mm--

     Soil H20 (start) on Year/day 1994/184     490.84
     Soil H20 (final) on Year/day 1995/012     465.61
     Effective Irrigation                      228.01
     Precipitation                             742.10
     Drainage                                  298.27
     Runoff                                     36.41
     Soil Evaporation                          205.08
     Transpiration                             455.58
     Potential ET                              715.47

     Final Balance                            -0.0002


*DSSAT Cropping System Model Ver. 4.0.2.000               Aug 01, 2016; 15:14:21

*RUN  21        : UYMZ                    
 MODEL          : MZCER040 - Maize           
 EXPERIMENT     : UYMZ0102 MZ    late to create DSS                             
 TREATMENT  1   : UYMZ                    


     WATER BALANCE PARAMETERS
     ========================                  --mm--

     Soil H20 (start) on Year/day 1995/184     490.84
     Soil H20 (final) on Year/day 1996/011     456.19
     Effective Irrigation                      213.69
     Precipitation                             576.80
     Drainage                                  168.08
     Runoff                                      5.07
     Soil Evaporation                          207.69
     Transpiration                             444.30
     Potential ET                              732.52

     Final Balance                             0.0002

