*SOIL TEMPERATURE OUTPUT FILE (DAILY)

*DSSAT Cropping System Model Ver. 4.0.2.000               Aug 01, 2016; 15:14:21

*RUN   1        : UYMZ                    
 MODEL          : MZCER040 - Maize           
 EXPERIMENT     : UYMZ0102 MZ    late to create DSS                             
 TREATMENT  1   : UYMZ                    

@YEAR DOY   DAS  TS1D  TS2D  TS3D  TS4D  TS5D  TS6D  TS7D  TS8D  TS9D  TS10
 1975 184     0  15.9  16.2  16.6  17.0  17.3  17.4  17.4  17.4   0.0   0.0
 1975 185     1  15.9  16.2  16.6  17.0  17.3  17.4  17.4  17.4   0.0   0.0
 1975 186     2  15.4  15.7  16.2  16.7  17.0  17.3  17.3  17.3   0.0   0.0
 1975 187     3  14.6  15.0  15.7  16.3  16.7  17.1  17.2  17.2   0.0   0.0
 1975 188     4  14.5  15.0  15.6  16.2  16.7  17.1  17.2  17.2   0.0   0.0
 1975 189     5  15.2  15.5  16.1  16.6  16.9  17.2  17.3  17.3   0.0   0.0
 1975 190     6  15.8  16.0  16.4  16.8  17.1  17.4  17.4  17.3   0.0   0.0
 1975 191     7  17.0  17.1  17.2  17.4  17.6  17.7  17.6  17.5   0.0   0.0
 1975 192     8  17.4  17.5  17.6  17.7  17.8  17.8  17.6  17.5   0.0   0.0
 1975 193     9  16.9  17.0  17.2  17.4  17.5  17.6  17.6  17.5   0.0   0.0
 1975 194    10  16.0  16.2  16.6  16.9  17.2  17.4  17.4  17.4   0.0   0.0
 1975 195    11  15.3  15.6  16.1  16.5  16.9  17.2  17.3  17.3   0.0   0.0
 1975 196    12  13.8  14.3  15.0  15.7  16.3  16.8  17.0  17.1   0.0   0.0
 1975 197    13  12.2  12.9  13.9  14.9  15.6  16.4  16.8  16.9   0.0   0.0
 1975 198    14  11.3  12.1  13.3  14.4  15.3  16.1  16.6  16.8   0.0   0.0
 1975 199    15  10.3  11.2  12.6  13.9  14.9  15.9  16.4  16.7   0.0   0.0
 1975 200    16   9.2  10.2  11.8  13.3  14.4  15.6  16.3  16.5   0.0   0.0
 1975 201    17   9.1  10.1  11.7  13.2  14.4  15.5  16.2  16.5   0.0   0.0
 1975 202    18   9.8  10.8  12.2  13.6  14.6  15.7  16.4  16.6   0.0   0.0
 1975 203    19  10.5  11.3  12.6  13.9  14.9  15.9  16.5  16.7   0.0   0.0
 1975 204    20  11.5  12.3  13.3  14.4  15.3  16.1  16.6  16.8   0.0   0.0
 1975 205    21  11.9  12.6  13.6  14.6  15.4  16.2  16.7  16.8   0.0   0.0
 1975 206    22  11.5  12.3  13.3  14.4  15.2  16.1  16.6  16.8   0.0   0.0
 1975 207    23  11.1  11.8  13.0  14.1  15.0  16.0  16.5  16.7   0.0   0.0
 1975 208    24  10.7  11.5  12.8  14.0  14.9  15.9  16.5  16.7   0.0   0.0
 1975 209    25  10.5  11.3  12.6  13.8  14.8  15.8  16.4  16.7   0.0   0.0
 1975 210    26  10.7  11.5  12.7  13.9  14.8  15.8  16.4  16.7   0.0   0.0
 1975 211    27  10.9  11.7  12.9  14.0  14.9  15.9  16.5  16.7   0.0   0.0
 1975 212    28  12.3  12.9  13.8  14.7  15.4  16.2  16.7  16.8   0.0   0.0
 1975 213    29  14.2  14.5  15.0  15.7  16.1  16.7  17.0  17.1   0.0   0.0
 1975 214    30  14.9  15.1  15.5  16.0  16.4  16.8  17.1  17.1   0.0   0.0
 1975 215    31  14.8  15.1  15.5  16.0  16.4  16.8  17.1  17.1   0.0   0.0
 1975 216    32  15.0  15.2  15.6  16.0  16.4  16.8  17.1  17.1   0.0   0.0
 1975 217    33  14.3  14.6  15.1  15.7  16.1  16.7  16.9  17.0   0.0   0.0
 1975 218    34  12.9  13.3  14.1  14.9  15.6  16.3  16.7  16.9   0.0   0.0
 1975 219    35  11.8  12.4  13.4  14.3  15.1  16.0  16.5  16.7   0.0   0.0
 1975 220    36  11.8  12.4  13.4  14.3  15.1  16.0  16.5  16.7   0.0   0.0
 1975 221    37  12.1  12.7  13.5  14.5  15.2  16.0  16.6  16.8   0.0   0.0
 1975 222    38  12.6  13.0  13.8  14.7  15.4  16.1  16.6  16.8   0.0   0.0
 1975 223    39  12.5  13.0  13.8  14.6  15.3  16.1  16.6  16.8   0.0   0.0
 1975 224    40  13.7  14.0  14.6  15.2  15.8  16.4  16.8  16.9   0.0   0.0
 1975 225    41  14.0  14.3  14.8  15.3  15.9  16.4  16.8  16.9   0.0   0.0
 1975 226    42  13.6  13.9  14.5  15.1  15.7  16.3  16.7  16.9   0.0   0.0
 1975 227    43  13.7  14.0  14.5  15.1  15.7  16.3  16.7  16.9   0.0   0.0
 1975 228    44  14.2  14.5  14.9  15.4  15.9  16.5  16.8  16.9   0.0   0.0
 1975 229    45  14.0  14.2  14.7  15.3  15.8  16.4  16.8  16.9   0.0   0.0
 1975 230    46  14.6  14.7  15.1  15.6  16.0  16.5  16.8  17.0   0.0   0.0
 1975 231    47  16.0  15.9  16.0  16.3  16.5  16.8  17.1  17.1   0.0   0.0
 1975 232    48  16.4  16.3  16.3  16.5  16.7  16.9  17.1  17.2   0.0   0.0
 1975 233    49  17.4  17.1  17.0  17.0  17.0  17.2  17.3  17.3   0.0   0.0
 1975 234    50  17.6  17.4  17.1  17.1  17.1  17.2  17.3  17.3   0.0   0.0
 1975 235    51  17.4  17.2  17.0  17.0  17.0  17.2  17.2  17.3   0.0   0.0
 1975 236    52  17.2  17.0  16.8  16.8  16.9  17.1  17.2  17.2   0.0   0.0
 1975 237    53  16.2  16.1  16.1  16.3  16.5  16.8  17.0  17.1   0.0   0.0
 1975 238    54  14.5  14.6  14.9  15.4  15.8  16.4  16.7  16.9   0.0   0.0
 1975 239    55  13.6  13.8  14.3  14.9  15.4  16.1  16.6  16.8   0.0   0.0
 1975 240    56  13.6  13.8  14.3  14.9  15.4  16.1  16.6  16.8   0.0   0.0
 1975 241    57  13.2  13.5  14.0  14.6  15.2  16.0  16.5  16.7   0.0   0.0
 1975 242    58  13.8  14.0  14.4  15.0  15.5  16.1  16.6  16.8   0.0   0.0
 1975 243    59  14.8  14.9  15.1  15.5  15.9  16.4  16.7  16.9   0.0   0.0
 1975 244    60  16.3  16.1  16.1  16.2  16.4  16.7  16.9  17.0   0.0   0.0
 1975 245    61  17.1  16.9  16.7  16.6  16.7  16.9  17.1  17.1   0.0   0.0
 1975 246    62  18.1  17.7  17.3  17.1  17.1  17.1  17.2  17.2   0.0   0.0
 1975 247    63  18.8  18.3  17.8  17.5  17.3  17.3  17.3  17.3   0.0   0.0
 1975 248    64  19.3  18.7  18.1  17.7  17.5  17.4  17.4  17.4   0.0   0.0
 1975 249    65  17.8  17.5  17.1  16.9  16.9  17.0  17.1  17.2   0.0   0.0
 1975 250    66  16.7  16.5  16.3  16.3  16.5  16.7  16.9  17.0   0.0   0.0
 1975 251    67  15.7  15.6  15.6  15.8  16.1  16.5  16.8  16.9   0.0   0.0
 1975 252    68  15.0  15.0  15.1  15.4  15.8  16.3  16.6  16.8   0.0   0.0
 1975 253    69  14.5  14.6  14.8  15.2  15.6  16.1  16.6  16.8   0.0   0.0
 1975 254    70  15.4  15.3  15.4  15.6  15.9  16.3  16.7  16.8   0.0   0.0
 1975 255    71  15.9  15.8  15.7  15.9  16.1  16.5  16.8  16.9   0.0   0.0
 1975 256    72  16.7  16.4  16.2  16.2  16.4  16.6  16.9  17.0   0.0   0.0
 1975 257    73  16.9  16.6  16.4  16.3  16.4  16.7  16.9  17.0   0.0   0.0
 1975 258    74  17.1  16.8  16.5  16.4  16.5  16.7  16.9  17.0   0.0   0.0
 1975 259    75  17.4  17.1  16.7  16.6  16.6  16.8  16.9  17.0   0.0   0.0
 1975 260    76  17.9  17.5  17.1  16.8  16.8  16.9  17.0  17.1   0.0   0.0
 1975 261    77  17.7  17.3  16.9  16.7  16.7  16.8  17.0  17.0   0.0   0.0
 1975 262    78  18.0  17.5  17.1  16.8  16.8  16.9  17.0  17.1   0.0   0.0
 1975 263    79  18.6  18.1  17.5  17.1  17.0  17.0  17.1  17.1   0.0   0.0
 1975 264    80  18.8  18.3  17.6  17.2  17.1  17.0  17.1  17.1   0.0   0.0
 1975 265    81  18.4  17.9  17.4  17.0  16.9  16.9  17.0  17.1   0.0   0.0
 1975 266    82  19.0  18.4  17.8  17.3  17.1  17.1  17.1  17.1   0.0   0.0
 1975 267    83  18.3  17.8  17.3  17.0  16.8  16.9  17.0  17.0   0.0   0.0
 1975 268    84  17.0  16.7  16.4  16.3  16.3  16.5  16.8  16.9   0.0   0.0
 1975 269    85  16.4  16.1  15.9  15.9  16.1  16.4  16.6  16.8   0.0   0.0
 1975 270    86  16.3  16.1  15.9  15.9  16.0  16.3  16.6  16.8   0.0   0.0
 1975 271    87  16.5  16.2  16.0  15.9  16.1  16.4  16.6  16.8   0.0   0.0
 1975 272    88  16.9  16.6  16.3  16.2  16.2  16.5  16.7  16.8   0.0   0.0
 1975 273    89  18.1  17.7  17.1  16.8  16.7  16.7  16.9  17.0   0.0   0.0
 1975 274    90  19.0  18.4  17.7  17.2  17.0  17.0  17.0  17.1   0.0   0.0
 1975 275    91  18.4  17.9  17.3  16.9  16.8  16.8  16.9  17.0   0.0   0.0
 1975 276    92  17.8  17.3  16.9  16.6  16.5  16.6  16.8  16.9   0.0   0.0
 1975 277    93  18.0  17.5  17.0  16.7  16.6  16.6  16.8  16.9   0.0   0.0
 1975 278    94  17.5  17.1  16.7  16.4  16.4  16.5  16.7  16.8   0.0   0.0
 1975 279    95  17.3  16.9  16.5  16.3  16.3  16.4  16.7  16.8   0.0   0.0
 1975 280    96  19.4  18.7  17.9  17.3  17.1  17.0  17.0  17.0   0.0   0.0
 1975 281    97  19.4  18.7  17.9  17.3  17.1  16.9  17.0  17.0   0.0   0.0
 1975 282    98  19.2  18.5  17.8  17.2  17.0  16.9  16.9  17.0   0.0   0.0
 1975 283    99  19.2  18.5  17.8  17.2  17.0  16.9  16.9  17.0   0.0   0.0
 1975 284   100  19.1  18.4  17.7  17.2  16.9  16.8  16.9  17.0   0.0   0.0
 1975 285   101  17.8  17.3  16.8  16.5  16.4  16.5  16.7  16.8   0.0   0.0
 1975 286   102  18.5  17.9  17.3  16.8  16.7  16.7  16.8  16.9   0.0   0.0
 1975 287   103  19.4  18.7  17.9  17.3  17.0  16.9  16.9  17.0   0.0   0.0
 1975 288   104  20.7  19.9  18.8  18.0  17.5  17.2  17.1  17.1   0.0   0.0
 1975 289   105  22.0  21.0  19.6  18.6  18.0  17.5  17.3  17.2   0.0   0.0
 1975 290   106  23.5  22.2  20.7  19.4  18.6  17.9  17.5  17.4   0.0   0.0
 1975 291   107  24.4  23.0  21.3  19.8  18.9  18.1  17.7  17.5   0.0   0.0
 1975 292   108  24.3  22.9  21.2  19.8  18.9  18.1  17.6  17.5   0.0   0.0
 1975 293   109  23.5  22.3  20.7  19.4  18.6  17.9  17.5  17.4   0.0   0.0
 1975 294   110  22.6  21.5  20.1  18.9  18.2  17.6  17.4  17.3   0.0   0.0
 1975 295   111  21.3  20.4  19.2  18.2  17.7  17.3  17.1  17.1   0.0   0.0
 1975 296   112  20.4  19.6  18.5  17.8  17.3  17.0  17.0  17.0   0.0   0.0
 1975 297   113  20.4  19.6  18.6  17.8  17.3  17.0  17.0  17.0   0.0   0.0
 1975 298   114  21.2  20.3  19.1  18.2  17.6  17.2  17.1  17.1   0.0   0.0
 1975 299   115  21.6  20.6  19.3  18.3  17.7  17.3  17.1  17.1   0.0   0.0
 1975 300   116  22.1  21.0  19.7  18.6  17.9  17.4  17.2  17.2   0.0   0.0
 1975 301   117  22.2  21.1  19.8  18.7  18.0  17.4  17.2  17.2   0.0   0.0
 1975 302   118  22.5  21.4  20.0  18.8  18.1  17.5  17.3  17.2   0.0   0.0
 1975 303   119  22.4  21.3  19.9  18.8  18.0  17.5  17.2  17.2   0.0   0.0
 1975 304   120  22.4  21.3  19.9  18.8  18.0  17.5  17.2  17.2   0.0   0.0
 1975 305   121  22.5  21.4  20.0  18.8  18.1  17.5  17.2  17.2   0.0   0.0
 1975 306   122  22.6  21.5  20.0  18.9  18.1  17.5  17.2  17.2   0.0   0.0
 1975 307   123  22.5  21.4  20.0  18.8  18.1  17.5  17.2  17.2   0.0   0.0
 1975 308   124  22.0  21.0  19.6  18.5  17.9  17.3  17.1  17.1   0.0   0.0
 1975 309   125  21.8  20.8  19.5  18.4  17.8  17.3  17.1  17.1   0.0   0.0
 1975 310   126  21.5  20.5  19.3  18.3  17.6  17.2  17.0  17.0   0.0   0.0
 1975 311   127  20.5  19.7  18.6  17.8  17.3  17.0  16.9  16.9   0.0   0.0
 1975 312   128  20.4  19.6  18.5  17.7  17.2  16.9  16.9  16.9   0.0   0.0
 1975 313   129  20.5  19.6  18.6  17.7  17.2  16.9  16.9  16.9   0.0   0.0
 1975 314   130  20.7  19.8  18.7  17.8  17.3  17.0  16.9  16.9   0.0   0.0
 1975 315   131  20.9  20.0  18.9  18.0  17.4  17.0  16.9  16.9   0.0   0.0
 1975 316   132  22.3  21.3  19.9  18.7  18.0  17.4  17.1  17.1   0.0   0.0
 1975 317   133  23.3  22.1  20.5  19.2  18.3  17.6  17.3  17.2   0.0   0.0
 1975 318   134  25.0  23.6  21.7  20.1  19.0  18.0  17.5  17.4   0.0   0.0
 1975 319   135  25.6  24.1  22.1  20.4  19.2  18.2  17.6  17.4   0.0   0.0
 1975 320   136  25.3  23.8  21.9  20.2  19.1  18.1  17.6  17.4   0.0   0.0
 1975 321   137  24.7  23.4  21.5  20.0  18.9  18.0  17.5  17.3   0.0   0.0
 1975 322   138  23.5  22.3  20.7  19.4  18.4  17.7  17.3  17.2   0.0   0.0
 1975 323   139  22.5  21.4  20.0  18.8  18.0  17.4  17.1  17.0   0.0   0.0
 1975 324   140  22.6  21.6  20.1  18.9  18.1  17.4  17.1  17.1   0.0   0.0
 1975 325   141  23.6  22.4  20.8  19.4  18.5  17.7  17.3  17.2   0.0   0.0
 1975 326   142  24.7  23.3  21.5  19.9  18.9  17.9  17.4  17.3   0.0   0.0
 1975 327   143  25.4  23.9  22.0  20.3  19.1  18.1  17.6  17.4   0.0   0.0
 1975 328   144  25.2  23.8  21.8  20.2  19.1  18.0  17.5  17.3   0.0   0.0
 1975 329   145  25.4  23.9  22.0  20.3  19.1  18.1  17.5  17.3   0.0   0.0
 1975 330   146  25.9  24.4  22.3  20.6  19.3  18.2  17.6  17.4   0.0   0.0
 1975 331   147  25.9  24.4  22.4  20.6  19.3  18.2  17.6  17.4   0.0   0.0
 1975 332   148  25.8  24.3  22.3  20.5  19.3  18.2  17.6  17.4   0.0   0.0
 1975 333   149  24.7  23.4  21.6  20.0  18.9  17.9  17.4  17.2   0.0   0.0
 1975 334   150  23.5  22.3  20.7  19.4  18.4  17.6  17.2  17.1   0.0   0.0
 1975 335   151  22.8  21.7  20.2  19.0  18.1  17.4  17.1  17.0   0.0   0.0
 1975 336   152  22.9  21.8  20.4  19.1  18.2  17.5  17.1  17.0   0.0   0.0
 1975 337   153  23.4  22.3  20.7  19.3  18.4  17.6  17.2  17.1   0.0   0.0
 1975 338   154  25.3  23.9  22.0  20.3  19.1  18.1  17.5  17.3   0.0   0.0
 1975 339   155  25.9  24.4  22.4  20.6  19.3  18.2  17.6  17.3   0.0   0.0
 1975 340   156  27.2  25.5  23.3  21.3  19.9  18.5  17.8  17.5   0.0   0.0
 1975 341   157  27.3  25.7  23.4  21.3  19.9  18.6  17.8  17.5   0.0   0.0
 1975 342   158  27.2  25.5  23.3  21.3  19.9  18.5  17.8  17.5   0.0   0.0
 1975 343   159  26.5  25.0  22.8  21.0  19.6  18.4  17.7  17.4   0.0   0.0
 1975 344   160  27.5  25.8  23.5  21.5  20.0  18.6  17.8  17.5   0.0   0.0
 1975 345   161  26.8  25.2  23.0  21.1  19.7  18.4  17.7  17.4   0.0   0.0
 1975 346   162  27.0  25.4  23.2  21.2  19.8  18.5  17.8  17.5   0.0   0.0
 1975 347   163  26.9  25.3  23.1  21.2  19.8  18.5  17.7  17.4   0.0   0.0
 1975 348   164  27.0  25.4  23.2  21.2  19.8  18.5  17.7  17.4   0.0   0.0
 1975 349   165  27.1  25.5  23.3  21.3  19.8  18.5  17.7  17.5   0.0   0.0
 1975 350   166  27.7  26.0  23.7  21.6  20.1  18.7  17.8  17.5   0.0   0.0
 1975 351   167  28.0  26.3  23.9  21.8  20.2  18.7  17.9  17.6   0.0   0.0
 1975 352   168  29.9  28.0  25.2  22.7  20.9  19.2  18.2  17.8   0.0   0.0
 1975 353   169  29.6  27.6  25.0  22.6  20.8  19.1  18.1  17.7   0.0   0.0
 1975 354   170  28.8  27.0  24.5  22.2  20.6  19.0  18.0  17.6   0.0   0.0
 1975 355   171  28.5  26.7  24.3  22.0  20.4  18.9  18.0  17.6   0.0   0.0
 1975 356   172  28.4  26.6  24.2  22.0  20.4  18.9  18.0  17.6   0.0   0.0
 1975 357   173  27.4  25.8  23.5  21.5  20.0  18.6  17.8  17.5   0.0   0.0
 1975 358   174  28.7  26.9  24.5  22.2  20.5  18.9  18.0  17.6   0.0   0.0
 1975 359   175  30.0  28.0  25.3  22.8  21.0  19.3  18.2  17.8   0.0   0.0
 1975 360   176  30.1  28.2  25.4  22.9  21.1  19.3  18.2  17.8   0.0   0.0
 1975 361   177  28.9  27.1  24.6  22.3  20.7  19.0  18.1  17.7   0.0   0.0
 1975 362   178  28.3  26.6  24.2  22.0  20.4  18.9  18.0  17.6   0.0   0.0
 1975 363   179  28.5  26.8  24.4  22.1  20.5  18.9  18.0  17.6   0.0   0.0
 1975 364   180  29.0  27.2  24.7  22.4  20.7  19.1  18.1  17.7   0.0   0.0
 1975 365   181  30.3  28.3  25.6  23.1  21.2  19.4  18.3  17.8   0.0   0.0
 1976 001   182  32.1  29.8  26.7  23.9  21.8  19.8  18.5  18.0   0.0   0.0
 1976 002   183  33.3  30.9  27.6  24.5  22.3  20.1  18.7  18.1   0.0   0.0
 1976 003   184  33.5  31.1  27.8  24.7  22.4  20.2  18.8  18.1   0.0   0.0
 1976 004   185  33.1  30.7  27.5  24.5  22.3  20.1  18.7  18.1   0.0   0.0
 1976 005   186  31.0  28.9  26.1  23.4  21.5  19.6  18.4  17.9   0.0   0.0
 1976 006   187  29.1  27.3  24.8  22.5  20.8  19.1  18.1  17.7   0.0   0.0
 1976 007   188  27.9  26.3  24.0  21.9  20.4  18.8  17.9  17.6   0.0   0.0
 1976 008   189  26.6  25.2  23.2  21.3  19.9  18.5  17.7  17.4   0.0   0.0
 1976 009   190  25.0  23.8  22.1  20.5  19.3  18.1  17.5  17.2   0.0   0.0
 1976 010   191  25.6  24.3  22.5  20.8  19.5  18.3  17.6  17.3   0.0   0.0
 1976 011   192  26.2  24.8  22.9  21.1  19.8  18.5  17.7  17.4   0.0   0.0
 1976 012   193  27.1  25.6  23.5  21.6  20.1  18.7  17.8  17.5   0.0   0.0
 1976 013   194  27.2  25.7  23.6  21.6  20.2  18.7  17.8  17.5   0.0   0.0
 1976 014   195  27.6  26.1  23.9  21.8  20.3  18.8  17.9  17.5   0.0   0.0
 1976 015   196  27.8  26.3  24.1  22.0  20.5  18.9  18.0  17.6   0.0   0.0
 1976 016   197  28.1  26.5  24.3  22.2  20.6  19.0  18.0  17.6   0.0   0.0
 1976 017   198  28.3  26.7  24.5  22.3  20.7  19.1  18.1  17.6   0.0   0.0
 1976 018   199  29.5  27.7  25.3  22.9  21.2  19.4  18.3  17.8   0.0   0.0

*DSSAT Cropping System Model Ver. 4.0.2.000               Aug 01, 2016; 15:14:21

*RUN   2        : UYMZ                    
 MODEL          : MZCER040 - Maize           
 EXPERIMENT     : UYMZ0102 MZ    late to create DSS                             
 TREATMENT  1   : UYMZ                    

@YEAR DOY   DAS  TS1D  TS2D  TS3D  TS4D  TS5D  TS6D  TS7D  TS8D  TS9D  TS10
 1976 184     0  11.8  12.6  13.8  14.9  15.7  16.4  16.8  16.9   0.0   0.0
 1976 185     1  12.7  13.4  14.4  15.4  16.0  16.6  16.9  17.0   0.0   0.0
 1976 186     2  12.7  13.4  14.4  15.3  16.0  16.6  16.9  17.0   0.0   0.0
 1976 187     3  12.5  13.2  14.2  15.2  15.9  16.6  16.9  17.0   0.0   0.0
 1976 188     4  12.4  13.1  14.2  15.2  15.9  16.5  16.9  17.0   0.0   0.0
 1976 189     5  12.0  12.8  13.9  14.9  15.7  16.4  16.8  16.9   0.0   0.0
 1976 190     6  10.6  11.5  12.9  14.2  15.1  16.1  16.6  16.8   0.0   0.0
 1976 191     7  10.1  11.1  12.5  13.9  14.9  15.9  16.5  16.7   0.0   0.0
 1976 192     8  10.0  11.1  12.5  13.9  14.9  15.9  16.5  16.7   0.0   0.0
 1976 193     9   9.9  10.9  12.4  13.8  14.8  15.9  16.4  16.7   0.0   0.0
 1976 194    10   9.8  10.8  12.3  13.7  14.8  15.8  16.4  16.6   0.0   0.0
 1976 195    11   9.8  10.8  12.3  13.7  14.8  15.8  16.4  16.6   0.0   0.0
 1976 196    12  10.3  11.2  12.6  13.9  14.9  15.9  16.5  16.7   0.0   0.0
 1976 197    13  10.6  11.5  12.9  14.1  15.1  16.0  16.5  16.7   0.0   0.0
 1976 198    14  11.4  12.2  13.4  14.5  15.3  16.2  16.7  16.8   0.0   0.0
 1976 199    15  12.5  13.1  14.1  15.0  15.8  16.4  16.8  16.9   0.0   0.0
 1976 200    16  13.9  14.4  15.1  15.8  16.3  16.8  17.0  17.1   0.0   0.0
 1976 201    17  15.5  15.7  16.1  16.6  16.9  17.2  17.3  17.3   0.0   0.0
 1976 202    18  17.2  17.2  17.3  17.4  17.5  17.6  17.5  17.5   0.0   0.0
 1976 203    19  18.6  18.4  18.2  18.1  18.0  17.9  17.8  17.6   0.0   0.0
 1976 204    20  19.9  19.6  19.1  18.8  18.5  18.2  18.0  17.8   0.0   0.0
 1976 205    21  20.5  20.0  19.5  19.0  18.7  18.4  18.0  17.8   0.0   0.0
 1976 206    22  20.3  19.8  19.3  18.9  18.6  18.3  18.0  17.8   0.0   0.0
 1976 207    23  18.9  18.7  18.4  18.2  18.1  18.0  17.8  17.6   0.0   0.0
 1976 208    24  17.6  17.5  17.5  17.5  17.6  17.6  17.6  17.5   0.0   0.0
 1976 209    25  16.1  16.2  16.4  16.7  17.0  17.2  17.3  17.3   0.0   0.0
 1976 210    26  14.8  15.0  15.5  16.0  16.4  16.9  17.1  17.1   0.0   0.0
 1976 211    27  14.7  15.0  15.5  16.0  16.4  16.8  17.1  17.1   0.0   0.0
 1976 212    28  14.6  14.8  15.3  15.9  16.3  16.8  17.0  17.1   0.0   0.0
 1976 213    29  14.5  14.8  15.3  15.8  16.3  16.8  17.0  17.1   0.0   0.0
 1976 214    30  13.7  14.1  14.7  15.4  15.9  16.5  16.9  17.0   0.0   0.0
 1976 215    31  13.5  13.9  14.6  15.3  15.9  16.5  16.8  17.0   0.0   0.0
 1976 216    32  12.6  13.1  13.9  14.8  15.5  16.2  16.7  16.8   0.0   0.0
 1976 217    33  12.6  13.1  13.9  14.8  15.5  16.2  16.7  16.8   0.0   0.0
 1976 218    34  12.8  13.3  14.1  14.9  15.5  16.2  16.7  16.9   0.0   0.0
 1976 219    35  13.9  14.3  14.8  15.4  15.9  16.5  16.9  17.0   0.0   0.0
 1976 220    36  14.6  14.9  15.3  15.8  16.2  16.7  17.0  17.1   0.0   0.0
 1976 221    37  14.7  14.9  15.3  15.8  16.2  16.7  17.0  17.1   0.0   0.0
 1976 222    38  14.3  14.6  15.0  15.6  16.0  16.6  16.9  17.0   0.0   0.0
 1976 223    39  13.9  14.2  14.7  15.3  15.9  16.5  16.8  17.0   0.0   0.0
 1976 224    40  13.2  13.6  14.2  14.9  15.6  16.2  16.7  16.9   0.0   0.0
 1976 225    41  12.7  13.2  13.9  14.7  15.4  16.1  16.6  16.8   0.0   0.0
 1976 226    42  12.5  13.0  13.7  14.6  15.3  16.0  16.6  16.8   0.0   0.0
 1976 227    43  12.5  13.0  13.7  14.6  15.3  16.0  16.5  16.8   0.0   0.0
 1976 228    44  12.5  13.0  13.7  14.6  15.2  16.0  16.5  16.8   0.0   0.0
 1976 229    45  12.5  13.0  13.7  14.5  15.2  16.0  16.5  16.7   0.0   0.0
 1976 230    46  12.7  13.2  13.8  14.6  15.3  16.0  16.5  16.8   0.0   0.0
 1976 231    47  13.4  13.7  14.3  14.9  15.5  16.2  16.6  16.8   0.0   0.0
 1976 232    48  13.8  14.1  14.6  15.1  15.7  16.3  16.7  16.9   0.0   0.0
 1976 233    49  14.1  14.3  14.7  15.3  15.8  16.3  16.7  16.9   0.0   0.0
 1976 234    50  14.5  14.6  15.0  15.5  15.9  16.4  16.8  16.9   0.0   0.0
 1976 235    51  14.9  15.0  15.3  15.7  16.1  16.5  16.8  17.0   0.0   0.0
 1976 236    52  15.6  15.6  15.7  16.0  16.3  16.7  16.9  17.0   0.0   0.0
 1976 237    53  16.0  15.9  16.0  16.2  16.4  16.8  17.0  17.1   0.0   0.0
 1976 238    54  15.9  15.9  15.9  16.1  16.4  16.7  17.0  17.1   0.0   0.0
 1976 239    55  16.0  15.9  16.0  16.1  16.4  16.7  17.0  17.1   0.0   0.0
 1976 240    56  16.6  16.4  16.3  16.4  16.6  16.9  17.0  17.1   0.0   0.0
 1976 241    57  16.2  16.1  16.1  16.2  16.4  16.7  17.0  17.1   0.0   0.0
 1976 242    58  16.2  16.1  16.0  16.2  16.4  16.7  17.0  17.0   0.0   0.0
 1976 243    59  17.3  17.1  16.8  16.8  16.8  17.0  17.1  17.2   0.0   0.0
 1976 244    60  18.7  18.3  17.8  17.5  17.4  17.3  17.3  17.3   0.0   0.0
 1976 245    61  18.8  18.3  17.8  17.5  17.4  17.3  17.3  17.3   0.0   0.0
 1976 246    62  18.9  18.4  17.8  17.5  17.4  17.3  17.3  17.3   0.0   0.0
 1976 247    63  18.9  18.4  17.9  17.6  17.4  17.3  17.3  17.3   0.0   0.0
 1976 248    64  17.5  17.2  16.9  16.8  16.8  17.0  17.1  17.1   0.0   0.0
 1976 249    65  15.3  15.2  15.4  15.6  15.9  16.4  16.7  16.9   0.0   0.0
 1976 250    66  13.6  13.8  14.2  14.7  15.3  15.9  16.4  16.7   0.0   0.0
 1976 251    67  12.2  12.6  13.2  14.0  14.7  15.6  16.2  16.5   0.0   0.0
 1976 252    68  11.1  11.6  12.5  13.4  14.3  15.3  16.0  16.4   0.0   0.0
 1976 253    69  11.1  11.6  12.4  13.4  14.2  15.2  16.0  16.3   0.0   0.0
 1976 254    70  11.6  12.0  12.8  13.6  14.4  15.3  16.0  16.4   0.0   0.0
 1976 255    71  12.0  12.4  13.1  13.8  14.6  15.4  16.1  16.4   0.0   0.0
 1976 256    72  12.8  13.1  13.6  14.2  14.9  15.6  16.2  16.5   0.0   0.0
 1976 257    73  13.2  13.4  13.9  14.4  15.0  15.7  16.3  16.6   0.0   0.0
 1976 258    74  13.8  13.9  14.2  14.7  15.2  15.9  16.4  16.6   0.0   0.0
 1976 259    75  14.8  14.8  14.9  15.2  15.6  16.1  16.5  16.7   0.0   0.0
 1976 260    76  15.9  15.7  15.7  15.8  16.0  16.4  16.7  16.8   0.0   0.0
 1976 261    77  17.5  17.2  16.8  16.6  16.6  16.8  16.9  17.0   0.0   0.0
 1976 262    78  18.1  17.7  17.2  16.9  16.8  16.9  17.0  17.1   0.0   0.0
 1976 263    79  18.4  17.9  17.4  17.1  16.9  17.0  17.1  17.1   0.0   0.0
 1976 264    80  18.7  18.1  17.5  17.2  17.0  17.0  17.1  17.1   0.0   0.0
 1976 265    81  19.3  18.7  18.0  17.5  17.3  17.2  17.2  17.2   0.0   0.0
 1976 266    82  18.8  18.3  17.6  17.2  17.1  17.0  17.1  17.1   0.0   0.0
 1976 267    83  19.7  19.1  18.3  17.7  17.4  17.2  17.2  17.2   0.0   0.0
 1976 268    84  20.2  19.4  18.5  17.9  17.5  17.3  17.3  17.2   0.0   0.0
 1976 269    85  20.3  19.6  18.6  18.0  17.6  17.4  17.3  17.3   0.0   0.0
 1976 270    86  20.1  19.4  18.5  17.8  17.5  17.3  17.2  17.2   0.0   0.0
 1976 271    87  20.5  19.7  18.7  18.0  17.6  17.4  17.3  17.3   0.0   0.0
 1976 272    88  21.9  20.9  19.7  18.7  18.2  17.7  17.5  17.4   0.0   0.0
 1976 273    89  22.0  21.0  19.7  18.8  18.2  17.7  17.5  17.4   0.0   0.0
 1976 274    90  21.7  20.7  19.5  18.6  18.1  17.6  17.4  17.4   0.0   0.0
 1976 275    91  20.9  20.0  19.0  18.2  17.7  17.4  17.3  17.3   0.0   0.0
 1976 276    92  19.8  19.1  18.2  17.6  17.3  17.1  17.1  17.1   0.0   0.0
 1976 277    93  18.2  17.7  17.1  16.8  16.6  16.7  16.8  16.9   0.0   0.0
 1976 278    94  17.7  17.3  16.8  16.5  16.5  16.6  16.8  16.9   0.0   0.0
 1976 279    95  17.6  17.1  16.7  16.4  16.4  16.5  16.7  16.8   0.0   0.0
 1976 280    96  18.2  17.7  17.1  16.8  16.6  16.7  16.8  16.9   0.0   0.0
 1976 281    97  19.3  18.7  17.9  17.3  17.1  16.9  17.0  17.0   0.0   0.0
 1976 282    98  20.1  19.4  18.4  17.7  17.3  17.1  17.1  17.1   0.0   0.0
 1976 283    99  21.0  20.1  19.0  18.1  17.7  17.3  17.2  17.2   0.0   0.0
 1976 284   100  20.9  20.0  18.9  18.1  17.6  17.3  17.2  17.2   0.0   0.0
 1976 285   101  20.1  19.3  18.4  17.7  17.3  17.1  17.0  17.1   0.0   0.0
 1976 286   102  19.8  19.0  18.1  17.5  17.2  17.0  17.0  17.0   0.0   0.0
 1976 287   103  19.2  18.5  17.8  17.2  16.9  16.8  16.9  16.9   0.0   0.0
 1976 288   104  19.1  18.4  17.7  17.1  16.9  16.8  16.9  16.9   0.0   0.0
 1976 289   105  19.9  19.2  18.2  17.6  17.2  17.0  17.0  17.0   0.0   0.0
 1976 290   106  21.6  20.6  19.4  18.4  17.8  17.4  17.2  17.2   0.0   0.0
 1976 291   107  21.4  20.4  19.2  18.3  17.7  17.3  17.2  17.2   0.0   0.0
 1976 292   108  20.7  19.9  18.8  18.0  17.5  17.2  17.1  17.1   0.0   0.0
 1976 293   109  19.9  19.2  18.2  17.5  17.2  16.9  16.9  17.0   0.0   0.0
 1976 294   110  18.9  18.3  17.5  17.0  16.8  16.7  16.8  16.8   0.0   0.0
 1976 295   111  17.4  17.0  16.5  16.2  16.2  16.3  16.5  16.7   0.0   0.0
 1976 296   112  17.7  17.3  16.7  16.4  16.3  16.4  16.6  16.7   0.0   0.0
 1976 297   113  18.0  17.5  16.9  16.5  16.4  16.4  16.6  16.7   0.0   0.0
 1976 298   114  18.9  18.3  17.5  17.0  16.7  16.6  16.7  16.8   0.0   0.0
 1976 299   115  19.6  18.9  18.0  17.3  17.0  16.8  16.8  16.9   0.0   0.0
 1976 300   116  19.6  18.9  18.0  17.4  17.0  16.8  16.8  16.9   0.0   0.0
 1976 301   117  19.7  18.9  18.0  17.4  17.0  16.8  16.8  16.9   0.0   0.0
 1976 302   118  20.2  19.4  18.4  17.6  17.2  16.9  16.9  16.9   0.0   0.0
 1976 303   119  20.2  19.4  18.4  17.6  17.2  16.9  16.9  16.9   0.0   0.0
 1976 304   120  20.6  19.8  18.7  17.8  17.3  17.0  16.9  17.0   0.0   0.0
 1976 305   121  21.7  20.7  19.4  18.4  17.8  17.3  17.1  17.1   0.0   0.0
 1976 306   122  22.2  21.2  19.8  18.7  18.0  17.4  17.2  17.1   0.0   0.0
 1976 307   123  22.8  21.6  20.2  18.9  18.2  17.5  17.3  17.2   0.0   0.0
 1976 308   124  22.4  21.3  19.9  18.7  18.0  17.4  17.2  17.1   0.0   0.0
 1976 309   125  22.4  21.3  19.9  18.7  18.0  17.4  17.2  17.1   0.0   0.0
 1976 310   126  21.2  20.3  19.1  18.2  17.6  17.1  17.0  17.0   0.0   0.0
 1976 311   127  20.3  19.5  18.5  17.7  17.2  16.9  16.8  16.9   0.0   0.0
 1976 312   128  19.9  19.2  18.2  17.5  17.1  16.8  16.8  16.8   0.0   0.0
 1976 313   129  20.3  19.5  18.5  17.7  17.2  16.9  16.8  16.9   0.0   0.0
 1976 314   130  20.1  19.3  18.3  17.6  17.1  16.8  16.8  16.8   0.0   0.0
 1976 315   131  20.6  19.8  18.7  17.8  17.3  17.0  16.9  16.9   0.0   0.0
 1976 316   132  20.6  19.8  18.7  17.8  17.3  16.9  16.9  16.9   0.0   0.0
 1976 317   133  20.3  19.5  18.5  17.7  17.2  16.9  16.8  16.8   0.0   0.0
 1976 318   134  20.7  19.8  18.8  17.9  17.3  17.0  16.9  16.9   0.0   0.0
 1976 319   135  20.9  20.0  18.9  18.0  17.4  17.0  16.9  16.9   0.0   0.0
 1976 320   136  21.7  20.7  19.5  18.4  17.7  17.2  17.0  17.0   0.0   0.0
 1976 321   137  22.8  21.7  20.2  19.0  18.2  17.5  17.2  17.1   0.0   0.0
 1976 322   138  23.6  22.4  20.8  19.4  18.5  17.7  17.3  17.2   0.0   0.0
 1976 323   139  23.9  22.7  21.0  19.5  18.6  17.7  17.3  17.2   0.0   0.0
 1976 324   140  24.4  23.1  21.3  19.8  18.8  17.9  17.4  17.3   0.0   0.0
 1976 325   141  25.2  23.8  21.9  20.2  19.1  18.1  17.5  17.3   0.0   0.0
 1976 326   142  24.7  23.3  21.5  19.9  18.9  17.9  17.4  17.3   0.0   0.0
 1976 327   143  24.2  22.9  21.2  19.7  18.7  17.8  17.4  17.2   0.0   0.0
 1976 328   144  23.2  22.0  20.5  19.2  18.3  17.5  17.2  17.1   0.0   0.0
 1976 329   145  21.7  20.8  19.5  18.4  17.7  17.2  17.0  16.9   0.0   0.0
 1976 330   146  20.4  19.6  18.6  17.8  17.2  16.8  16.8  16.8   0.0   0.0
 1976 331   147  21.0  20.2  19.0  18.1  17.5  17.0  16.8  16.8   0.0   0.0
 1976 332   148  22.7  21.6  20.2  18.9  18.1  17.4  17.1  17.0   0.0   0.0
 1976 333   149  24.2  22.9  21.2  19.7  18.7  17.8  17.3  17.2   0.0   0.0
 1976 334   150  24.6  23.2  21.4  19.9  18.8  17.9  17.4  17.2   0.0   0.0
 1976 335   151  25.1  23.7  21.8  20.2  19.0  18.0  17.5  17.3   0.0   0.0
 1976 336   152  24.4  23.1  21.3  19.8  18.8  17.8  17.4  17.2   0.0   0.0
 1976 337   153  23.5  22.3  20.8  19.4  18.4  17.6  17.2  17.1   0.0   0.0
 1976 338   154  23.6  22.5  20.9  19.5  18.5  17.7  17.2  17.1   0.0   0.0
 1976 339   155  25.9  24.4  22.4  20.6  19.4  18.2  17.6  17.4   0.0   0.0
 1976 340   156  26.9  25.3  23.1  21.1  19.7  18.4  17.7  17.5   0.0   0.0
 1976 341   157  29.0  27.1  24.5  22.2  20.5  19.0  18.0  17.7   0.0   0.0
 1976 342   158  29.2  27.2  24.6  22.3  20.6  19.0  18.1  17.7   0.0   0.0
 1976 343   159  28.1  26.3  23.9  21.7  20.2  18.7  17.9  17.6   0.0   0.0
 1976 344   160  26.0  24.5  22.5  20.7  19.4  18.2  17.6  17.3   0.0   0.0
 1976 345   161  25.4  24.0  22.1  20.4  19.2  18.1  17.5  17.3   0.0   0.0
 1976 346   162  25.2  23.8  21.9  20.3  19.1  18.0  17.4  17.2   0.0   0.0
 1976 347   163  26.4  24.9  22.8  20.9  19.6  18.3  17.6  17.4   0.0   0.0
 1976 348   164  27.6  25.9  23.6  21.5  20.0  18.6  17.8  17.5   0.0   0.0
 1976 349   165  27.7  26.0  23.7  21.6  20.1  18.7  17.9  17.5   0.0   0.0
 1976 350   166  26.9  25.3  23.1  21.2  19.8  18.5  17.7  17.4   0.0   0.0
 1976 351   167  25.0  23.7  21.9  20.3  19.1  18.0  17.4  17.2   0.0   0.0
 1976 352   168  23.3  22.2  20.8  19.4  18.5  17.6  17.2  17.0   0.0   0.0
 1976 353   169  23.2  22.2  20.7  19.4  18.5  17.6  17.2  17.0   0.0   0.0
 1976 354   170  23.9  22.7  21.2  19.7  18.7  17.8  17.3  17.1   0.0   0.0
 1976 355   171  24.5  23.2  21.6  20.0  18.9  17.9  17.4  17.2   0.0   0.0
 1976 356   172  25.4  24.0  22.2  20.5  19.3  18.1  17.5  17.3   0.0   0.0
 1976 357   173  26.3  24.8  22.8  21.0  19.6  18.4  17.6  17.4   0.0   0.0
 1976 358   174  25.7  24.4  22.5  20.7  19.4  18.2  17.6  17.3   0.0   0.0
 1976 359   175  26.3  24.9  22.9  21.0  19.7  18.4  17.7  17.4   0.0   0.0
 1976 360   176  27.0  25.5  23.3  21.4  19.9  18.6  17.8  17.4   0.0   0.0
 1976 361   177  27.2  25.6  23.5  21.5  20.0  18.6  17.8  17.5   0.0   0.0
 1976 362   178  26.7  25.3  23.2  21.3  19.9  18.5  17.7  17.4   0.0   0.0
 1976 363   179  26.5  25.1  23.0  21.2  19.8  18.5  17.7  17.4   0.0   0.0
 1976 364   180  26.1  24.7  22.8  21.0  19.7  18.4  17.6  17.4   0.0   0.0
 1976 365   181  26.0  24.7  22.7  20.9  19.6  18.4  17.6  17.3   0.0   0.0
 1976 366   182  25.0  23.8  22.0  20.4  19.3  18.1  17.5  17.2   0.0   0.0
 1977 001   183  25.0  23.7  22.0  20.4  19.2  18.1  17.5  17.2   0.0   0.0
 1977 002   184  25.0  23.8  22.0  20.4  19.3  18.1  17.5  17.2   0.0   0.0
 1977 003   185  25.1  23.8  22.1  20.5  19.3  18.1  17.5  17.2   0.0   0.0
 1977 004   186  24.4  23.3  21.7  20.2  19.1  18.0  17.4  17.2   0.0   0.0
 1977 005   187  25.6  24.3  22.5  20.8  19.5  18.3  17.6  17.3   0.0   0.0
 1977 006   188  26.0  24.7  22.8  21.0  19.7  18.4  17.7  17.4   0.0   0.0
 1977 007   189  27.0  25.5  23.5  21.5  20.1  18.7  17.8  17.5   0.0   0.0
 1977 008   190  28.4  26.7  24.4  22.2  20.6  19.0  18.0  17.6   0.0   0.0
 1977 009   191  29.5  27.7  25.2  22.8  21.0  19.3  18.2  17.7   0.0   0.0
 1977 010   192  29.9  28.0  25.4  23.0  21.2  19.4  18.3  17.8   0.0   0.0
 1977 011   193  29.8  28.0  25.4  23.0  21.2  19.4  18.3  17.8   0.0   0.0
 1977 012   194  29.8  27.9  25.4  23.0  21.2  19.4  18.3  17.8   0.0   0.0
 1977 013   195  28.7  27.0  24.7  22.5  20.8  19.1  18.1  17.7   0.0   0.0
 1977 014   196  27.6  26.1  23.9  21.9  20.4  18.9  17.9  17.6   0.0   0.0
 1977 015   197  27.3  25.8  23.7  21.8  20.3  18.8  17.9  17.5   0.0   0.0
 1977 016   198  27.3  25.8  23.8  21.8  20.3  18.8  17.9  17.5   0.0   0.0
 1977 017   199  27.4  25.9  23.8  21.8  20.4  18.8  17.9  17.5   0.0   0.0
 1977 018   200  27.4  25.9  23.9  21.9  20.4  18.9  18.0  17.6   0.0   0.0
 1977 019   201  27.9  26.4  24.2  22.2  20.6  19.0  18.0  17.6   0.0   0.0

*DSSAT Cropping System Model Ver. 4.0.2.000               Aug 01, 2016; 15:14:21

*RUN   3        : UYMZ                    
 MODEL          : MZCER040 - Maize           
 EXPERIMENT     : UYMZ0102 MZ    late to create DSS                             
 TREATMENT  1   : UYMZ                    

@YEAR DOY   DAS  TS1D  TS2D  TS3D  TS4D  TS5D  TS6D  TS7D  TS8D  TS9D  TS10
 1977 184     0  21.5  21.0  20.4  19.9  19.4  18.8  18.3  18.0   0.0   0.0
 1977 185     1  19.2  19.0  18.8  18.7  18.5  18.3  17.9  17.7   0.0   0.0
 1977 186     2  17.1  17.2  17.4  17.6  17.7  17.7  17.6  17.5   0.0   0.0
 1977 187     3  15.4  15.8  16.2  16.7  17.0  17.3  17.4  17.3   0.0   0.0
 1977 188     4  13.2  13.8  14.7  15.5  16.1  16.7  17.0  17.0   0.0   0.0
 1977 189     5  12.5  13.2  14.2  15.1  15.8  16.5  16.9  17.0   0.0   0.0
 1977 190     6  14.1  14.5  15.2  15.9  16.4  16.9  17.1  17.1   0.0   0.0
 1977 191     7  14.8  15.1  15.7  16.3  16.7  17.1  17.2  17.2   0.0   0.0
 1977 192     8  16.2  16.4  16.7  17.0  17.3  17.5  17.5  17.4   0.0   0.0
 1977 193     9  17.3  17.3  17.4  17.6  17.7  17.7  17.6  17.5   0.0   0.0
 1977 194    10  17.0  17.0  17.2  17.4  17.5  17.6  17.6  17.5   0.0   0.0
 1977 195    11  16.1  16.3  16.6  16.9  17.2  17.4  17.4  17.4   0.0   0.0
 1977 196    12  15.4  15.6  16.1  16.5  16.9  17.2  17.3  17.3   0.0   0.0
 1977 197    13  12.9  13.5  14.4  15.2  15.9  16.5  16.9  17.0   0.0   0.0
 1977 198    14  12.2  12.9  13.9  14.9  15.6  16.4  16.8  16.9   0.0   0.0
 1977 199    15  11.9  12.6  13.7  14.7  15.5  16.3  16.7  16.9   0.0   0.0
 1977 200    16  11.2  12.0  13.2  14.3  15.2  16.1  16.6  16.8   0.0   0.0
 1977 201    17  11.1  11.9  13.1  14.2  15.1  16.0  16.6  16.8   0.0   0.0
 1977 202    18  12.1  12.7  13.7  14.7  15.5  16.3  16.7  16.9   0.0   0.0
 1977 203    19  12.7  13.3  14.1  15.0  15.7  16.4  16.8  16.9   0.0   0.0
 1977 204    20  13.1  13.6  14.4  15.2  15.8  16.5  16.9  17.0   0.0   0.0
 1977 205    21  13.5  13.9  14.7  15.4  16.0  16.6  16.9  17.0   0.0   0.0
 1977 206    22  14.2  14.6  15.2  15.8  16.3  16.8  17.0  17.1   0.0   0.0
 1977 207    23  14.3  14.6  15.2  15.8  16.3  16.8  17.0  17.1   0.0   0.0
 1977 208    24  14.0  14.4  15.0  15.6  16.2  16.7  17.0  17.1   0.0   0.0
 1977 209    25  14.4  14.7  15.2  15.8  16.3  16.8  17.0  17.1   0.0   0.0
 1977 210    26  15.1  15.3  15.7  16.1  16.5  16.9  17.1  17.2   0.0   0.0
 1977 211    27  14.9  15.2  15.6  16.1  16.5  16.9  17.1  17.2   0.0   0.0
 1977 212    28  14.6  14.8  15.3  15.9  16.3  16.8  17.0  17.1   0.0   0.0
 1977 213    29  13.6  14.0  14.7  15.4  15.9  16.5  16.9  17.0   0.0   0.0
 1977 214    30  12.8  13.3  14.1  14.9  15.6  16.3  16.7  16.9   0.0   0.0
 1977 215    31  11.9  12.5  13.5  14.5  15.2  16.1  16.6  16.8   0.0   0.0
 1977 216    32  12.0  12.6  13.5  14.5  15.3  16.1  16.6  16.8   0.0   0.0
 1977 217    33  12.0  12.6  13.5  14.5  15.2  16.1  16.6  16.8   0.0   0.0
 1977 218    34  12.6  13.1  13.9  14.8  15.5  16.2  16.7  16.8   0.0   0.0
 1977 219    35  13.4  13.8  14.4  15.1  15.7  16.4  16.8  16.9   0.0   0.0
 1977 220    36  14.0  14.3  14.8  15.4  15.9  16.5  16.9  17.0   0.0   0.0
 1977 221    37  13.8  14.1  14.7  15.3  15.8  16.4  16.8  16.9   0.0   0.0
 1977 222    38  13.9  14.2  14.7  15.3  15.9  16.5  16.8  17.0   0.0   0.0
 1977 223    39  14.3  14.5  15.0  15.5  16.0  16.5  16.9  17.0   0.0   0.0
 1977 224    40  14.2  14.5  14.9  15.5  16.0  16.5  16.9  17.0   0.0   0.0
 1977 225    41  13.8  14.1  14.7  15.3  15.8  16.4  16.8  16.9   0.0   0.0
 1977 226    42  13.7  14.0  14.6  15.2  15.7  16.3  16.7  16.9   0.0   0.0
 1977 227    43  13.7  14.0  14.6  15.2  15.7  16.3  16.7  16.9   0.0   0.0
 1977 228    44  13.4  13.7  14.3  15.0  15.6  16.2  16.7  16.9   0.0   0.0
 1977 229    45  13.6  13.9  14.4  15.1  15.6  16.3  16.7  16.9   0.0   0.0
 1977 230    46  13.4  13.8  14.3  15.0  15.6  16.2  16.7  16.8   0.0   0.0
 1977 231    47  13.8  14.1  14.6  15.2  15.7  16.3  16.7  16.9   0.0   0.0
 1977 232    48  14.6  14.8  15.1  15.6  16.0  16.5  16.8  17.0   0.0   0.0
 1977 233    49  15.7  15.7  15.8  16.1  16.4  16.8  17.0  17.1   0.0   0.0
 1977 234    50  16.0  16.0  16.0  16.3  16.5  16.8  17.0  17.1   0.0   0.0
 1977 235    51  16.6  16.5  16.4  16.5  16.7  16.9  17.1  17.2   0.0   0.0
 1977 236    52  16.9  16.7  16.6  16.7  16.8  17.0  17.1  17.2   0.0   0.0
 1977 237    53  17.2  17.0  16.8  16.8  16.9  17.1  17.2  17.2   0.0   0.0
 1977 238    54  17.4  17.1  16.9  16.9  17.0  17.1  17.2  17.2   0.0   0.0
 1977 239    55  16.9  16.7  16.6  16.6  16.8  17.0  17.1  17.2   0.0   0.0
 1977 240    56  17.4  17.1  16.9  16.8  16.9  17.1  17.2  17.2   0.0   0.0
 1977 241    57  17.6  17.3  17.0  16.9  17.0  17.1  17.2  17.2   0.0   0.0
 1977 242    58  17.9  17.5  17.2  17.1  17.1  17.2  17.2  17.2   0.0   0.0
 1977 243    59  16.9  16.7  16.5  16.5  16.7  16.9  17.1  17.1   0.0   0.0
 1977 244    60  16.6  16.4  16.3  16.4  16.5  16.8  17.0  17.1   0.0   0.0
 1977 245    61  16.1  16.0  16.0  16.1  16.3  16.7  16.9  17.0   0.0   0.0
 1977 246    62  16.2  16.0  16.0  16.1  16.3  16.7  16.9  17.0   0.0   0.0
 1977 247    63  15.3  15.3  15.4  15.7  16.0  16.4  16.8  16.9   0.0   0.0
 1977 248    64  15.5  15.5  15.5  15.8  16.0  16.5  16.8  16.9   0.0   0.0
 1977 249    65  16.0  15.9  15.9  16.0  16.2  16.6  16.9  17.0   0.0   0.0
 1977 250    66  16.9  16.7  16.5  16.5  16.6  16.8  17.0  17.1   0.0   0.0
 1977 251    67  17.9  17.5  17.2  17.0  16.9  17.0  17.1  17.2   0.0   0.0
 1977 252    68  20.1  19.4  18.6  18.1  17.8  17.6  17.5  17.4   0.0   0.0
 1977 253    69  20.5  19.7  18.9  18.2  17.9  17.6  17.5  17.4   0.0   0.0
 1977 254    70  20.7  19.9  19.0  18.4  18.0  17.7  17.5  17.5   0.0   0.0
 1977 255    71  20.8  20.1  19.1  18.4  18.0  17.7  17.5  17.5   0.0   0.0
 1977 256    72  19.8  19.1  18.4  17.9  17.6  17.4  17.4  17.3   0.0   0.0
 1977 257    73  17.9  17.5  17.0  16.8  16.8  16.9  17.0  17.1   0.0   0.0
 1977 258    74  17.6  17.2  16.9  16.7  16.7  16.8  17.0  17.1   0.0   0.0
 1977 259    75  17.9  17.5  17.1  16.8  16.8  16.9  17.0  17.1   0.0   0.0
 1977 260    76  17.4  17.0  16.7  16.5  16.6  16.7  16.9  17.0   0.0   0.0
 1977 261    77  17.5  17.2  16.8  16.6  16.6  16.8  16.9  17.0   0.0   0.0
 1977 262    78  17.9  17.5  17.0  16.8  16.7  16.8  17.0  17.0   0.0   0.0
 1977 263    79  18.8  18.3  17.7  17.3  17.1  17.1  17.1  17.1   0.0   0.0
 1977 264    80  19.7  19.0  18.2  17.7  17.4  17.3  17.2  17.2   0.0   0.0
 1977 265    81  21.4  20.5  19.4  18.6  18.1  17.7  17.5  17.4   0.0   0.0
 1977 266    82  21.5  20.6  19.5  18.6  18.1  17.7  17.5  17.4   0.0   0.0
 1977 267    83  21.2  20.3  19.3  18.5  18.0  17.6  17.5  17.4   0.0   0.0
 1977 268    84  21.1  20.2  19.2  18.4  17.9  17.6  17.4  17.4   0.0   0.0
 1977 269    85  21.4  20.5  19.4  18.5  18.0  17.6  17.5  17.4   0.0   0.0
 1977 270    86  21.5  20.6  19.4  18.5  18.0  17.6  17.5  17.4   0.0   0.0
 1977 271    87  20.9  20.1  19.0  18.3  17.8  17.5  17.4  17.3   0.0   0.0
 1977 272    88  20.8  20.0  19.0  18.2  17.7  17.4  17.3  17.3   0.0   0.0
 1977 273    89  20.2  19.4  18.5  17.8  17.5  17.3  17.2  17.2   0.0   0.0
 1977 274    90  19.1  18.5  17.7  17.3  17.0  17.0  17.0  17.1   0.0   0.0
 1977 275    91  17.7  17.3  16.8  16.6  16.5  16.6  16.8  16.9   0.0   0.0
 1977 276    92  18.6  18.0  17.4  17.0  16.8  16.8  16.9  17.0   0.0   0.0
 1977 277    93  19.4  18.8  18.0  17.4  17.1  17.0  17.0  17.1   0.0   0.0
 1977 278    94  20.4  19.6  18.6  17.9  17.5  17.2  17.2  17.2   0.0   0.0
 1977 279    95  22.0  21.0  19.7  18.7  18.1  17.6  17.4  17.4   0.0   0.0
 1977 280    96  24.0  22.8  21.1  19.7  18.9  18.1  17.7  17.6   0.0   0.0
 1977 281    97  24.4  23.1  21.3  19.9  19.0  18.2  17.8  17.6   0.0   0.0
 1977 282    98  23.9  22.6  21.0  19.6  18.8  18.1  17.7  17.5   0.0   0.0
 1977 283    99  22.4  21.3  20.0  18.9  18.2  17.7  17.4  17.4   0.0   0.0
 1977 284   100  19.6  18.9  18.0  17.4  17.1  17.0  17.0  17.0   0.0   0.0
 1977 285   101  16.7  16.4  16.0  15.9  16.0  16.2  16.5  16.7   0.0   0.0
 1977 286   102  16.4  16.1  15.8  15.8  15.8  16.1  16.4  16.6   0.0   0.0
 1977 287   103  16.5  16.2  15.9  15.8  15.9  16.1  16.4  16.6   0.0   0.0
 1977 288   104  17.0  16.7  16.3  16.1  16.1  16.3  16.5  16.7   0.0   0.0
 1977 289   105  18.1  17.6  17.0  16.7  16.5  16.5  16.7  16.8   0.0   0.0
 1977 290   106  19.2  18.6  17.8  17.2  16.9  16.8  16.9  16.9   0.0   0.0
 1977 291   107  19.7  19.0  18.1  17.5  17.1  16.9  16.9  17.0   0.0   0.0
 1977 292   108  21.0  20.1  19.0  18.1  17.6  17.2  17.1  17.1   0.0   0.0
 1977 293   109  22.9  21.7  20.3  19.1  18.3  17.7  17.4  17.3   0.0   0.0
 1977 294   110  25.1  23.6  21.8  20.2  19.1  18.2  17.8  17.6   0.0   0.0
 1977 295   111  26.7  25.0  22.8  21.0  19.8  18.6  18.0  17.7   0.0   0.0
 1977 296   112  27.0  25.3  23.1  21.2  19.9  18.7  18.0  17.8   0.0   0.0
 1977 297   113  26.6  24.9  22.8  20.9  19.7  18.6  18.0  17.7   0.0   0.0
 1977 298   114  25.8  24.3  22.2  20.5  19.4  18.4  17.8  17.6   0.0   0.0
 1977 299   115  23.8  22.5  20.9  19.5  18.6  17.9  17.5  17.4   0.0   0.0
 1977 300   116  22.5  21.4  20.0  18.8  18.1  17.5  17.3  17.2   0.0   0.0
 1977 301   117  22.0  21.0  19.6  18.6  17.9  17.4  17.2  17.1   0.0   0.0
 1977 302   118  22.4  21.3  19.9  18.7  18.0  17.5  17.2  17.2   0.0   0.0
 1977 303   119  23.8  22.5  20.8  19.5  18.6  17.8  17.5  17.3   0.0   0.0
 1977 304   120  24.8  23.4  21.5  20.0  19.0  18.1  17.6  17.4   0.0   0.0
 1977 305   121  24.5  23.1  21.3  19.8  18.8  18.0  17.6  17.4   0.0   0.0
 1977 306   122  24.9  23.4  21.6  20.0  19.0  18.1  17.6  17.4   0.0   0.0
 1977 307   123  23.9  22.6  20.9  19.5  18.6  17.8  17.4  17.3   0.0   0.0
 1977 308   124  22.3  21.3  19.9  18.7  18.0  17.4  17.2  17.1   0.0   0.0
 1977 309   125  21.8  20.8  19.5  18.4  17.8  17.3  17.1  17.1   0.0   0.0
 1977 310   126  22.1  21.0  19.7  18.6  17.9  17.3  17.1  17.1   0.0   0.0
 1977 311   127  22.1  21.1  19.7  18.6  17.9  17.3  17.1  17.1   0.0   0.0
 1977 312   128  23.1  21.9  20.4  19.1  18.3  17.6  17.3  17.2   0.0   0.0
 1977 313   129  23.0  21.8  20.3  19.0  18.2  17.5  17.2  17.2   0.0   0.0
 1977 314   130  22.2  21.1  19.8  18.6  17.9  17.3  17.1  17.1   0.0   0.0
 1977 315   131  22.5  21.4  20.0  18.8  18.0  17.4  17.2  17.1   0.0   0.0
 1977 316   132  21.6  20.6  19.3  18.3  17.7  17.2  17.0  17.0   0.0   0.0
 1977 317   133  20.8  20.0  18.8  17.9  17.4  17.0  16.9  16.9   0.0   0.0
 1977 318   134  21.5  20.5  19.3  18.3  17.6  17.1  17.0  17.0   0.0   0.0
 1977 319   135  23.4  22.2  20.6  19.2  18.4  17.6  17.3  17.2   0.0   0.0
 1977 320   136  24.7  23.3  21.5  19.9  18.8  17.9  17.5  17.3   0.0   0.0
 1977 321   137  26.9  25.2  23.0  21.0  19.7  18.5  17.8  17.5   0.0   0.0
 1977 322   138  29.1  27.2  24.5  22.2  20.5  19.0  18.2  17.8   0.0   0.0
 1977 323   139  29.0  27.1  24.4  22.1  20.5  19.0  18.1  17.8   0.0   0.0
 1977 324   140  28.5  26.6  24.1  21.9  20.3  18.9  18.0  17.7   0.0   0.0
 1977 325   141  26.2  24.6  22.5  20.7  19.4  18.3  17.7  17.4   0.0   0.0
 1977 326   142  24.8  23.4  21.5  19.9  18.9  17.9  17.4  17.3   0.0   0.0
 1977 327   143  22.9  21.8  20.3  19.0  18.2  17.5  17.2  17.1   0.0   0.0
 1977 328   144  22.9  21.8  20.3  19.0  18.2  17.5  17.1  17.1   0.0   0.0
 1977 329   145  22.9  21.8  20.3  19.0  18.1  17.4  17.1  17.1   0.0   0.0
 1977 330   146  25.4  24.0  22.0  20.3  19.1  18.1  17.5  17.3   0.0   0.0
 1977 331   147  25.6  24.1  22.1  20.4  19.2  18.1  17.5  17.3   0.0   0.0
 1977 332   148  26.2  24.6  22.5  20.7  19.4  18.3  17.6  17.4   0.0   0.0
 1977 333   149  26.8  25.2  23.0  21.0  19.7  18.4  17.7  17.5   0.0   0.0
 1977 334   150  27.8  26.0  23.7  21.5  20.1  18.7  17.9  17.6   0.0   0.0
 1977 335   151  27.3  25.6  23.3  21.3  19.9  18.5  17.8  17.5   0.0   0.0
 1977 336   152  27.5  25.7  23.4  21.4  19.9  18.6  17.8  17.5   0.0   0.0
 1977 337   153  27.9  26.1  23.7  21.6  20.1  18.7  17.9  17.6   0.0   0.0
 1977 338   154  28.2  26.4  23.9  21.8  20.2  18.8  17.9  17.6   0.0   0.0
 1977 339   155  27.5  25.8  23.5  21.4  19.9  18.6  17.8  17.5   0.0   0.0
 1977 340   156  26.5  24.9  22.8  20.9  19.6  18.3  17.7  17.4   0.0   0.0
 1977 341   157  26.6  25.0  22.8  20.9  19.6  18.4  17.7  17.4   0.0   0.0
 1977 342   158  26.1  24.6  22.5  20.7  19.4  18.2  17.6  17.3   0.0   0.0
 1977 343   159  25.9  24.4  22.4  20.6  19.3  18.2  17.6  17.3   0.0   0.0
 1977 344   160  26.7  25.1  22.9  21.0  19.7  18.4  17.7  17.4   0.0   0.0
 1977 345   161  27.9  26.2  23.8  21.7  20.1  18.7  17.9  17.6   0.0   0.0
 1977 346   162  28.9  27.0  24.5  22.2  20.5  18.9  18.0  17.7   0.0   0.0
 1977 347   163  29.3  27.4  24.7  22.4  20.7  19.0  18.1  17.7   0.0   0.0
 1977 348   164  29.0  27.1  24.6  22.2  20.5  19.0  18.0  17.7   0.0   0.0
 1977 349   165  28.5  26.7  24.2  22.0  20.4  18.8  17.9  17.6   0.0   0.0
 1977 350   166  28.0  26.2  23.9  21.7  20.2  18.7  17.9  17.5   0.0   0.0
 1977 351   167  28.0  26.3  23.9  21.8  20.2  18.7  17.9  17.6   0.0   0.0
 1977 352   168  28.9  27.1  24.5  22.2  20.6  19.0  18.0  17.6   0.0   0.0
 1977 353   169  29.2  27.3  24.7  22.4  20.7  19.0  18.1  17.7   0.0   0.0
 1977 354   170  27.7  26.0  23.7  21.6  20.1  18.7  17.8  17.5   0.0   0.0
 1977 355   171  27.1  25.5  23.3  21.3  19.9  18.5  17.8  17.4   0.0   0.0
 1977 356   172  25.8  24.4  22.5  20.7  19.4  18.2  17.6  17.3   0.0   0.0
 1977 357   173  24.1  23.0  21.3  19.8  18.8  17.8  17.3  17.1   0.0   0.0
 1977 358   174  23.4  22.4  20.9  19.5  18.5  17.6  17.2  17.0   0.0   0.0
 1977 359   175  25.0  23.7  22.0  20.3  19.1  18.0  17.4  17.2   0.0   0.0
 1977 360   176  26.1  24.7  22.7  20.9  19.6  18.3  17.6  17.3   0.0   0.0
 1977 361   177  27.9  26.2  23.9  21.8  20.2  18.7  17.9  17.5   0.0   0.0
 1977 362   178  28.4  26.7  24.3  22.1  20.5  18.9  18.0  17.6   0.0   0.0
 1977 363   179  28.8  27.1  24.6  22.3  20.7  19.0  18.1  17.6   0.0   0.0
 1977 364   180  27.7  26.1  23.9  21.8  20.3  18.8  17.9  17.5   0.0   0.0
 1977 365   181  26.8  25.3  23.2  21.3  19.9  18.5  17.7  17.4   0.0   0.0
 1978 001   182  25.3  24.0  22.2  20.5  19.3  18.2  17.5  17.3   0.0   0.0
 1978 002   183  24.9  23.7  22.0  20.4  19.2  18.1  17.4  17.2   0.0   0.0
 1978 003   184  24.9  23.7  22.0  20.4  19.2  18.1  17.4  17.2   0.0   0.0
 1978 004   185  26.5  25.0  23.0  21.1  19.8  18.5  17.7  17.4   0.0   0.0
 1978 005   186  27.6  26.0  23.8  21.7  20.2  18.7  17.9  17.5   0.0   0.0
 1978 006   187  28.5  26.8  24.4  22.2  20.6  19.0  18.0  17.6   0.0   0.0

*DSSAT Cropping System Model Ver. 4.0.2.000               Aug 01, 2016; 15:14:21

*RUN   4        : UYMZ                    
 MODEL          : MZCER040 - Maize           
 EXPERIMENT     : UYMZ0102 MZ    late to create DSS                             
 TREATMENT  1   : UYMZ                    

@YEAR DOY   DAS  TS1D  TS2D  TS3D  TS4D  TS5D  TS6D  TS7D  TS8D  TS9D  TS10
 1978 184     0  12.4  13.1  14.2  15.2  15.9  16.6  16.9  17.0   0.0   0.0
 1978 185     1  13.0  13.6  14.6  15.5  16.1  16.7  17.0  17.0   0.0   0.0
 1978 186     2  13.9  14.4  15.2  16.0  16.5  16.9  17.1  17.1   0.0   0.0
 1978 187     3  14.2  14.7  15.4  16.1  16.6  17.0  17.2  17.2   0.0   0.0
 1978 188     4  14.6  15.1  15.7  16.3  16.7  17.1  17.2  17.2   0.0   0.0
 1978 189     5  15.9  16.1  16.5  16.9  17.2  17.4  17.4  17.4   0.0   0.0
 1978 190     6  16.4  16.6  16.9  17.2  17.4  17.5  17.5  17.4   0.0   0.0
 1978 191     7  16.0  16.2  16.6  16.9  17.2  17.4  17.4  17.4   0.0   0.0
 1978 192     8  16.7  16.9  17.1  17.3  17.5  17.6  17.5  17.4   0.0   0.0
 1978 193     9  17.5  17.5  17.6  17.7  17.7  17.8  17.6  17.5   0.0   0.0
 1978 194    10  17.1  17.1  17.3  17.5  17.6  17.6  17.6  17.5   0.0   0.0
 1978 195    11  17.0  17.1  17.2  17.4  17.6  17.6  17.6  17.5   0.0   0.0
 1978 196    12  17.6  17.6  17.6  17.7  17.8  17.8  17.7  17.5   0.0   0.0
 1978 197    13  17.5  17.5  17.5  17.6  17.7  17.7  17.6  17.5   0.0   0.0
 1978 198    14  16.6  16.7  16.9  17.2  17.3  17.5  17.5  17.4   0.0   0.0
 1978 199    15  15.6  15.9  16.2  16.6  17.0  17.2  17.3  17.3   0.0   0.0
 1978 200    16  14.3  14.7  15.3  15.9  16.4  16.9  17.1  17.1   0.0   0.0
 1978 201    17  12.9  13.4  14.3  15.2  15.8  16.5  16.9  17.0   0.0   0.0
 1978 202    18  11.9  12.6  13.7  14.7  15.5  16.3  16.7  16.9   0.0   0.0
 1978 203    19  11.9  12.6  13.6  14.7  15.4  16.2  16.7  16.9   0.0   0.0
 1978 204    20  11.6  12.3  13.4  14.5  15.3  16.2  16.6  16.8   0.0   0.0
 1978 205    21  11.9  12.6  13.6  14.6  15.4  16.2  16.7  16.8   0.0   0.0
 1978 206    22  12.9  13.4  14.3  15.1  15.8  16.5  16.8  16.9   0.0   0.0
 1978 207    23  12.6  13.2  14.1  15.0  15.7  16.4  16.8  16.9   0.0   0.0
 1978 208    24  12.5  13.1  14.0  14.9  15.6  16.3  16.7  16.9   0.0   0.0
 1978 209    25  12.8  13.4  14.2  15.0  15.7  16.4  16.8  16.9   0.0   0.0
 1978 210    26  12.9  13.4  14.2  15.0  15.7  16.4  16.8  16.9   0.0   0.0
 1978 211    27  12.2  12.8  13.7  14.7  15.4  16.2  16.7  16.8   0.0   0.0
 1978 212    28  13.0  13.5  14.2  15.0  15.7  16.4  16.8  16.9   0.0   0.0
 1978 213    29  14.4  14.7  15.2  15.8  16.2  16.7  17.0  17.1   0.0   0.0
 1978 214    30  15.9  16.0  16.2  16.5  16.8  17.1  17.2  17.2   0.0   0.0
 1978 215    31  18.0  17.8  17.7  17.6  17.6  17.6  17.6  17.5   0.0   0.0
 1978 216    32  20.6  20.1  19.4  18.9  18.6  18.3  18.0  17.8   0.0   0.0
 1978 217    33  22.7  21.9  20.8  20.0  19.4  18.8  18.3  18.0   0.0   0.0
 1978 218    34  21.7  21.0  20.1  19.4  19.0  18.5  18.1  17.9   0.0   0.0
 1978 219    35  19.9  19.4  18.9  18.5  18.3  18.0  17.8  17.7   0.0   0.0
 1978 220    36  17.6  17.4  17.3  17.3  17.4  17.4  17.4  17.4   0.0   0.0
 1978 221    37  15.9  15.9  16.1  16.4  16.7  17.0  17.2  17.2   0.0   0.0
 1978 222    38  15.5  15.6  15.8  16.2  16.5  16.9  17.1  17.1   0.0   0.0
 1978 223    39  15.4  15.5  15.7  16.1  16.4  16.8  17.1  17.1   0.0   0.0
 1978 224    40  15.0  15.1  15.5  15.9  16.3  16.7  17.0  17.1   0.0   0.0
 1978 225    41  14.4  14.7  15.1  15.6  16.0  16.6  16.9  17.0   0.0   0.0
 1978 226    42  13.8  14.1  14.6  15.2  15.8  16.4  16.8  16.9   0.0   0.0
 1978 227    43  12.3  12.8  13.6  14.4  15.2  16.0  16.5  16.7   0.0   0.0
 1978 228    44  12.8  13.2  13.9  14.7  15.3  16.1  16.6  16.8   0.0   0.0
 1978 229    45  14.1  14.3  14.8  15.3  15.8  16.4  16.8  16.9   0.0   0.0
 1978 230    46  14.9  15.0  15.3  15.7  16.1  16.6  16.9  17.0   0.0   0.0
 1978 231    47  14.3  14.5  14.9  15.4  15.9  16.4  16.8  16.9   0.0   0.0
 1978 232    48  13.3  13.7  14.2  14.9  15.5  16.2  16.6  16.8   0.0   0.0
 1978 233    49  12.7  13.1  13.8  14.6  15.2  16.0  16.5  16.7   0.0   0.0
 1978 234    50  12.5  12.9  13.6  14.4  15.1  15.9  16.5  16.7   0.0   0.0
 1978 235    51  12.4  12.9  13.6  14.4  15.1  15.9  16.4  16.7   0.0   0.0
 1978 236    52  13.3  13.6  14.2  14.8  15.4  16.1  16.6  16.8   0.0   0.0
 1978 237    53  14.4  14.6  14.9  15.4  15.8  16.4  16.7  16.9   0.0   0.0
 1978 238    54  14.4  14.5  14.9  15.3  15.8  16.3  16.7  16.9   0.0   0.0
 1978 239    55  14.3  14.5  14.8  15.3  15.7  16.3  16.7  16.9   0.0   0.0
 1978 240    56  15.3  15.3  15.5  15.8  16.1  16.5  16.8  17.0   0.0   0.0
 1978 241    57  15.8  15.7  15.8  16.0  16.3  16.6  16.9  17.0   0.0   0.0
 1978 242    58  15.0  15.1  15.2  15.6  15.9  16.4  16.8  16.9   0.0   0.0
 1978 243    59  15.0  15.1  15.3  15.6  15.9  16.4  16.8  16.9   0.0   0.0
 1978 244    60  15.3  15.3  15.4  15.7  16.0  16.5  16.8  16.9   0.0   0.0
 1978 245    61  14.2  14.3  14.7  15.1  15.6  16.2  16.6  16.8   0.0   0.0
 1978 246    62  13.6  13.8  14.2  14.8  15.3  16.0  16.5  16.7   0.0   0.0
 1978 247    63  13.8  14.0  14.4  14.9  15.4  16.0  16.5  16.7   0.0   0.0
 1978 248    64  14.4  14.5  14.8  15.2  15.6  16.2  16.6  16.8   0.0   0.0
 1978 249    65  14.7  14.7  15.0  15.3  15.7  16.2  16.6  16.8   0.0   0.0
 1978 250    66  15.8  15.7  15.7  15.9  16.1  16.5  16.8  16.9   0.0   0.0
 1978 251    67  16.7  16.5  16.3  16.3  16.4  16.7  16.9  17.0   0.0   0.0
 1978 252    68  17.6  17.2  16.9  16.8  16.8  16.9  17.1  17.1   0.0   0.0
 1978 253    69  17.8  17.5  17.1  16.9  16.9  17.0  17.1  17.1   0.0   0.0
 1978 254    70  17.2  16.9  16.6  16.6  16.6  16.8  17.0  17.1   0.0   0.0
 1978 255    71  16.8  16.6  16.4  16.3  16.4  16.7  16.9  17.0   0.0   0.0
 1978 256    72  16.1  15.9  15.9  15.9  16.1  16.5  16.8  16.9   0.0   0.0
 1978 257    73  15.3  15.3  15.3  15.5  15.8  16.3  16.6  16.8   0.0   0.0
 1978 258    74  15.2  15.2  15.2  15.5  15.8  16.2  16.6  16.8   0.0   0.0
 1978 259    75  15.9  15.8  15.7  15.8  16.0  16.4  16.7  16.9   0.0   0.0
 1978 260    76  17.6  17.2  16.8  16.7  16.7  16.8  17.0  17.0   0.0   0.0
 1978 261    77  18.5  18.0  17.5  17.1  17.0  17.0  17.1  17.1   0.0   0.0
 1978 262    78  19.7  19.0  18.2  17.7  17.4  17.3  17.3  17.3   0.0   0.0
 1978 263    79  19.4  18.8  18.0  17.5  17.3  17.2  17.2  17.2   0.0   0.0
 1978 264    80  19.8  19.1  18.3  17.7  17.5  17.3  17.3  17.2   0.0   0.0
 1978 265    81  19.0  18.5  17.8  17.3  17.2  17.1  17.1  17.2   0.0   0.0
 1978 266    82  19.5  18.9  18.1  17.6  17.3  17.2  17.2  17.2   0.0   0.0
 1978 267    83  19.8  19.1  18.3  17.7  17.4  17.2  17.2  17.2   0.0   0.0
 1978 268    84  21.2  20.3  19.2  18.4  17.9  17.6  17.4  17.4   0.0   0.0
 1978 269    85  22.0  21.0  19.8  18.8  18.2  17.8  17.6  17.5   0.0   0.0
 1978 270    86  22.2  21.2  19.9  18.9  18.3  17.8  17.6  17.5   0.0   0.0
 1978 271    87  21.7  20.7  19.5  18.6  18.1  17.7  17.5  17.4   0.0   0.0
 1978 272    88  21.4  20.5  19.3  18.5  18.0  17.6  17.4  17.4   0.0   0.0
 1978 273    89  21.2  20.3  19.2  18.4  17.9  17.5  17.4  17.3   0.0   0.0
 1978 274    90  20.3  19.5  18.5  17.9  17.5  17.3  17.2  17.2   0.0   0.0
 1978 275    91  19.3  18.6  17.9  17.3  17.1  17.0  17.0  17.1   0.0   0.0
 1978 276    92  18.8  18.2  17.5  17.1  16.9  16.9  17.0  17.0   0.0   0.0
 1978 277    93  19.6  18.9  18.1  17.5  17.2  17.1  17.1  17.1   0.0   0.0
 1978 278    94  19.3  18.6  17.9  17.3  17.1  17.0  17.0  17.0   0.0   0.0
 1978 279    95  19.4  18.8  18.0  17.4  17.1  17.0  17.0  17.0   0.0   0.0
 1978 280    96  20.0  19.3  18.4  17.7  17.3  17.1  17.1  17.1   0.0   0.0
 1978 281    97  20.5  19.7  18.7  17.9  17.5  17.2  17.2  17.2   0.0   0.0
 1978 282    98  20.1  19.4  18.4  17.7  17.4  17.1  17.1  17.1   0.0   0.0
 1978 283    99  20.4  19.6  18.6  17.9  17.5  17.2  17.1  17.1   0.0   0.0
 1978 284   100  20.4  19.6  18.6  17.9  17.5  17.2  17.1  17.1   0.0   0.0
 1978 285   101  20.3  19.5  18.5  17.8  17.4  17.1  17.1  17.1   0.0   0.0
 1978 286   102  19.5  18.8  17.9  17.4  17.1  16.9  16.9  17.0   0.0   0.0
 1978 287   103  18.9  18.3  17.6  17.1  16.8  16.8  16.8  16.9   0.0   0.0
 1978 288   104  18.6  18.0  17.3  16.9  16.7  16.7  16.8  16.9   0.0   0.0
 1978 289   105  18.5  17.9  17.3  16.8  16.6  16.6  16.8  16.8   0.0   0.0
 1978 290   106  19.2  18.6  17.8  17.2  16.9  16.8  16.9  16.9   0.0   0.0
 1978 291   107  20.4  19.6  18.6  17.8  17.4  17.1  17.0  17.1   0.0   0.0
 1978 292   108  20.9  20.0  18.9  18.1  17.6  17.2  17.1  17.1   0.0   0.0
 1978 293   109  20.9  20.0  18.9  18.0  17.5  17.2  17.1  17.1   0.0   0.0
 1978 294   110  21.5  20.5  19.3  18.4  17.8  17.3  17.2  17.1   0.0   0.0
 1978 295   111  22.0  21.0  19.6  18.6  17.9  17.5  17.3  17.2   0.0   0.0
 1978 296   112  22.7  21.6  20.1  18.9  18.2  17.6  17.4  17.3   0.0   0.0
 1978 297   113  22.8  21.6  20.2  19.0  18.2  17.6  17.4  17.3   0.0   0.0
 1978 298   114  23.5  22.2  20.6  19.3  18.5  17.8  17.5  17.3   0.0   0.0
 1978 299   115  22.7  21.5  20.1  18.9  18.2  17.6  17.3  17.2   0.0   0.0
 1978 300   116  22.5  21.4  20.0  18.8  18.1  17.5  17.3  17.2   0.0   0.0
 1978 301   117  22.8  21.7  20.2  19.0  18.2  17.6  17.3  17.2   0.0   0.0
 1978 302   118  23.0  21.8  20.3  19.1  18.3  17.6  17.3  17.3   0.0   0.0
 1978 303   119  22.3  21.3  19.9  18.7  18.0  17.5  17.2  17.2   0.0   0.0
 1978 304   120  22.7  21.6  20.1  18.9  18.2  17.5  17.3  17.2   0.0   0.0
 1978 305   121  22.4  21.3  19.9  18.7  18.0  17.5  17.2  17.2   0.0   0.0
 1978 306   122  21.8  20.8  19.5  18.5  17.8  17.3  17.1  17.1   0.0   0.0
 1978 307   123  21.4  20.5  19.3  18.3  17.7  17.2  17.1  17.0   0.0   0.0
 1978 308   124  22.0  21.0  19.6  18.5  17.9  17.3  17.1  17.1   0.0   0.0
 1978 309   125  23.1  22.0  20.4  19.1  18.3  17.6  17.3  17.2   0.0   0.0
 1978 310   126  23.1  21.9  20.4  19.1  18.3  17.6  17.3  17.2   0.0   0.0
 1978 311   127  22.5  21.4  20.0  18.8  18.0  17.4  17.2  17.1   0.0   0.0
 1978 312   128  23.4  22.2  20.6  19.3  18.4  17.7  17.3  17.2   0.0   0.0
 1978 313   129  22.5  21.4  20.0  18.8  18.0  17.4  17.2  17.1   0.0   0.0
 1978 314   130  21.7  20.7  19.5  18.4  17.7  17.2  17.0  17.0   0.0   0.0
 1978 315   131  21.7  20.7  19.4  18.4  17.7  17.2  17.0  17.0   0.0   0.0
 1978 316   132  21.2  20.3  19.1  18.2  17.6  17.1  17.0  16.9   0.0   0.0
 1978 317   133  19.9  19.2  18.2  17.5  17.0  16.8  16.7  16.8   0.0   0.0
 1978 318   134  19.9  19.2  18.2  17.5  17.0  16.8  16.7  16.8   0.0   0.0
 1978 319   135  19.7  19.0  18.1  17.3  16.9  16.7  16.7  16.7   0.0   0.0
 1978 320   136  20.6  19.8  18.7  17.8  17.3  16.9  16.8  16.8   0.0   0.0
 1978 321   137  21.6  20.7  19.4  18.4  17.7  17.2  17.0  17.0   0.0   0.0
 1978 322   138  22.4  21.4  20.0  18.8  18.0  17.4  17.1  17.0   0.0   0.0
 1978 323   139  24.0  22.8  21.1  19.6  18.6  17.8  17.4  17.2   0.0   0.0
 1978 324   140  24.3  23.0  21.2  19.7  18.7  17.8  17.4  17.2   0.0   0.0
 1978 325   141  23.7  22.4  20.8  19.4  18.5  17.7  17.3  17.2   0.0   0.0
 1978 326   142  23.4  22.2  20.7  19.3  18.4  17.6  17.2  17.1   0.0   0.0
 1978 327   143  23.7  22.5  20.8  19.4  18.5  17.7  17.3  17.2   0.0   0.0
 1978 328   144  23.2  22.1  20.5  19.2  18.3  17.6  17.2  17.1   0.0   0.0
 1978 329   145  23.7  22.5  20.9  19.5  18.5  17.7  17.3  17.2   0.0   0.0
 1978 330   146  23.4  22.2  20.6  19.3  18.4  17.6  17.2  17.1   0.0   0.0
 1978 331   147  23.9  22.7  21.0  19.6  18.6  17.8  17.3  17.2   0.0   0.0
 1978 332   148  24.2  23.0  21.3  19.8  18.8  17.8  17.4  17.2   0.0   0.0
 1978 333   149  24.8  23.5  21.7  20.1  19.0  18.0  17.5  17.3   0.0   0.0
 1978 334   150  26.1  24.6  22.5  20.7  19.5  18.3  17.7  17.4   0.0   0.0
 1978 335   151  28.3  26.5  24.0  21.9  20.3  18.9  18.0  17.7   0.0   0.0
 1978 336   152  28.8  26.9  24.4  22.1  20.5  19.0  18.1  17.7   0.0   0.0
 1978 337   153  27.9  26.2  23.8  21.7  20.2  18.7  17.9  17.6   0.0   0.0
 1978 338   154  26.1  24.6  22.6  20.8  19.5  18.3  17.6  17.4   0.0   0.0
 1978 339   155  23.9  22.7  21.1  19.6  18.6  17.7  17.3  17.1   0.0   0.0
 1978 340   156  22.9  21.8  20.4  19.1  18.3  17.5  17.1  17.0   0.0   0.0
 1978 341   157  23.2  22.1  20.6  19.3  18.4  17.6  17.2  17.1   0.0   0.0
 1978 342   158  25.0  23.7  21.9  20.3  19.1  18.0  17.5  17.3   0.0   0.0
 1978 343   159  26.3  24.8  22.8  20.9  19.6  18.4  17.7  17.4   0.0   0.0
 1978 344   160  27.0  25.4  23.2  21.3  19.9  18.5  17.8  17.5   0.0   0.0
 1978 345   161  26.7  25.1  23.0  21.1  19.7  18.5  17.7  17.4   0.0   0.0
 1978 346   162  26.5  25.0  22.9  21.0  19.7  18.4  17.7  17.4   0.0   0.0
 1978 347   163  25.8  24.4  22.4  20.7  19.4  18.2  17.6  17.3   0.0   0.0
 1978 348   164  25.9  24.5  22.5  20.7  19.5  18.3  17.6  17.4   0.0   0.0
 1978 349   165  26.3  24.8  22.8  21.0  19.6  18.4  17.7  17.4   0.0   0.0
 1978 350   166  26.2  24.7  22.7  20.9  19.6  18.3  17.6  17.4   0.0   0.0
 1978 351   167  25.8  24.4  22.4  20.7  19.4  18.2  17.6  17.3   0.0   0.0
 1978 352   168  25.9  24.5  22.6  20.8  19.5  18.3  17.6  17.3   0.0   0.0
 1978 353   169  26.3  24.8  22.8  20.9  19.6  18.4  17.7  17.4   0.0   0.0
 1978 354   170  26.5  25.0  23.0  21.1  19.7  18.4  17.7  17.4   0.0   0.0
 1978 355   171  27.6  26.0  23.7  21.7  20.2  18.7  17.9  17.5   0.0   0.0
 1978 356   172  27.8  26.1  23.8  21.7  20.2  18.7  17.9  17.5   0.0   0.0
 1978 357   173  27.9  26.2  23.9  21.8  20.3  18.8  17.9  17.5   0.0   0.0
 1978 358   174  27.9  26.3  24.0  21.8  20.3  18.8  17.9  17.5   0.0   0.0
 1978 359   175  27.8  26.2  23.9  21.8  20.3  18.8  17.9  17.5   0.0   0.0
 1978 360   176  27.0  25.5  23.3  21.4  19.9  18.6  17.8  17.4   0.0   0.0
 1978 361   177  27.4  25.8  23.6  21.6  20.1  18.6  17.8  17.5   0.0   0.0
 1978 362   178  28.1  26.4  24.1  21.9  20.4  18.8  17.9  17.6   0.0   0.0
 1978 363   179  29.2  27.4  24.8  22.5  20.8  19.1  18.1  17.7   0.0   0.0
 1978 364   180  28.5  26.8  24.4  22.2  20.6  19.0  18.0  17.6   0.0   0.0
 1978 365   181  28.5  26.8  24.4  22.2  20.6  19.0  18.0  17.6   0.0   0.0
 1979 001   182  27.9  26.3  24.0  21.9  20.3  18.8  17.9  17.5   0.0   0.0
 1979 002   183  27.5  25.9  23.7  21.6  20.2  18.7  17.8  17.5   0.0   0.0
 1979 003   184  26.1  24.7  22.8  21.0  19.6  18.4  17.6  17.3   0.0   0.0
 1979 004   185  26.5  25.0  23.0  21.1  19.8  18.5  17.7  17.4   0.0   0.0
 1979 005   186  26.3  24.9  22.9  21.0  19.7  18.4  17.7  17.4   0.0   0.0
 1979 006   187  26.0  24.6  22.7  20.9  19.6  18.3  17.6  17.3   0.0   0.0
 1979 007   188  25.4  24.1  22.3  20.6  19.4  18.2  17.5  17.3   0.0   0.0
 1979 008   189  25.7  24.4  22.5  20.8  19.5  18.3  17.6  17.3   0.0   0.0
 1979 009   190  26.4  25.0  23.0  21.2  19.8  18.5  17.7  17.4   0.0   0.0
 1979 010   191  27.7  26.1  23.9  21.8  20.3  18.8  17.9  17.5   0.0   0.0
 1979 011   192  29.1  27.3  24.9  22.5  20.8  19.1  18.1  17.7   0.0   0.0

*DSSAT Cropping System Model Ver. 4.0.2.000               Aug 01, 2016; 15:14:21

*RUN   5        : UYMZ                    
 MODEL          : MZCER040 - Maize           
 EXPERIMENT     : UYMZ0102 MZ    late to create DSS                             
 TREATMENT  1   : UYMZ                    

@YEAR DOY   DAS  TS1D  TS2D  TS3D  TS4D  TS5D  TS6D  TS7D  TS8D  TS9D  TS10
 1979 184     0  14.8  15.2  15.9  16.4  16.9  17.2  17.3  17.2   0.0   0.0
 1979 185     1  13.9  14.5  15.3  16.0  16.5  17.0  17.1  17.1   0.0   0.0
 1979 186     2  13.1  13.7  14.7  15.5  16.2  16.7  17.0  17.0   0.0   0.0
 1979 187     3  12.0  12.8  13.9  15.0  15.8  16.5  16.8  16.9   0.0   0.0
 1979 188     4  11.2  12.1  13.4  14.5  15.4  16.2  16.7  16.8   0.0   0.0
 1979 189     5  11.0  11.9  13.2  14.4  15.3  16.2  16.6  16.8   0.0   0.0
 1979 190     6  11.4  12.3  13.5  14.6  15.5  16.3  16.7  16.8   0.0   0.0
 1979 191     7  11.9  12.6  13.8  14.8  15.6  16.4  16.8  16.9   0.0   0.0
 1979 192     8  12.5  13.2  14.2  15.1  15.9  16.5  16.9  17.0   0.0   0.0
 1979 193     9  13.6  14.2  14.9  15.7  16.3  16.8  17.0  17.1   0.0   0.0
 1979 194    10  13.9  14.4  15.1  15.8  16.4  16.9  17.1  17.1   0.0   0.0
 1979 195    11  13.9  14.4  15.1  15.8  16.3  16.8  17.1  17.1   0.0   0.0
 1979 196    12  13.6  14.1  14.9  15.7  16.2  16.8  17.0  17.1   0.0   0.0
 1979 197    13  13.4  13.9  14.7  15.5  16.1  16.7  17.0  17.0   0.0   0.0
 1979 198    14  12.5  13.2  14.1  15.1  15.8  16.4  16.8  16.9   0.0   0.0
 1979 199    15  12.4  13.1  14.0  15.0  15.7  16.4  16.8  16.9   0.0   0.0
 1979 200    16  11.9  12.6  13.6  14.7  15.5  16.3  16.7  16.9   0.0   0.0
 1979 201    17  11.9  12.6  13.7  14.7  15.5  16.3  16.7  16.9   0.0   0.0
 1979 202    18  12.4  13.0  14.0  14.9  15.6  16.4  16.8  16.9   0.0   0.0
 1979 203    19  12.6  13.2  14.1  15.0  15.7  16.4  16.8  16.9   0.0   0.0
 1979 204    20  13.0  13.6  14.4  15.2  15.9  16.5  16.9  17.0   0.0   0.0
 1979 205    21  14.8  15.1  15.6  16.1  16.5  16.9  17.1  17.2   0.0   0.0
 1979 206    22  15.5  15.7  16.0  16.5  16.8  17.1  17.2  17.2   0.0   0.0
 1979 207    23  15.9  16.0  16.3  16.6  16.9  17.2  17.3  17.3   0.0   0.0
 1979 208    24  17.7  17.6  17.6  17.6  17.6  17.6  17.6  17.5   0.0   0.0
 1979 209    25  20.1  19.7  19.2  18.8  18.5  18.2  18.0  17.8   0.0   0.0
 1979 210    26  21.7  21.0  20.2  19.6  19.1  18.6  18.2  17.9   0.0   0.0
 1979 211    27  23.8  22.9  21.7  20.7  19.9  19.2  18.5  18.2   0.0   0.0
 1979 212    28  25.9  24.6  23.1  21.7  20.7  19.6  18.9  18.4   0.0   0.0
 1979 213    29  26.7  25.4  23.7  22.1  21.0  19.9  19.0  18.5   0.0   0.0
 1979 214    30  24.8  23.7  22.3  21.1  20.3  19.4  18.7  18.3   0.0   0.0
 1979 215    31  22.2  21.5  20.5  19.8  19.2  18.7  18.2  18.0   0.0   0.0
 1979 216    32  19.9  19.5  18.9  18.6  18.3  18.1  17.9  17.7   0.0   0.0
 1979 217    33  17.4  17.2  17.2  17.2  17.3  17.4  17.4  17.4   0.0   0.0
 1979 218    34  14.8  15.0  15.4  15.9  16.3  16.7  17.0  17.1   0.0   0.0
 1979 219    35  14.2  14.5  15.0  15.6  16.0  16.6  16.9  17.0   0.0   0.0
 1979 220    36  14.8  15.0  15.4  15.8  16.2  16.7  17.0  17.1   0.0   0.0
 1979 221    37  15.5  15.6  15.8  16.2  16.5  16.9  17.1  17.1   0.0   0.0
 1979 222    38  15.0  15.2  15.5  15.9  16.3  16.7  17.0  17.1   0.0   0.0
 1979 223    39  14.3  14.5  15.0  15.5  16.0  16.5  16.9  17.0   0.0   0.0
 1979 224    40  13.4  13.8  14.4  15.1  15.7  16.3  16.7  16.9   0.0   0.0
 1979 225    41  12.9  13.3  14.0  14.8  15.4  16.2  16.6  16.8   0.0   0.0
 1979 226    42  12.4  12.9  13.7  14.5  15.2  16.0  16.5  16.8   0.0   0.0
 1979 227    43  13.5  13.9  14.4  15.1  15.7  16.3  16.7  16.9   0.0   0.0
 1979 228    44  14.5  14.7  15.1  15.6  16.0  16.5  16.9  17.0   0.0   0.0
 1979 229    45  15.3  15.4  15.6  16.0  16.3  16.7  17.0  17.1   0.0   0.0
 1979 230    46  16.0  16.0  16.1  16.3  16.5  16.9  17.1  17.1   0.0   0.0
 1979 231    47  16.3  16.2  16.3  16.4  16.6  16.9  17.1  17.2   0.0   0.0
 1979 232    48  16.8  16.7  16.6  16.7  16.8  17.1  17.2  17.2   0.0   0.0
 1979 233    49  18.0  17.7  17.4  17.3  17.3  17.3  17.4  17.3   0.0   0.0
 1979 234    50  19.2  18.8  18.2  17.9  17.7  17.6  17.5  17.5   0.0   0.0
 1979 235    51  18.7  18.3  17.8  17.6  17.5  17.5  17.4  17.4   0.0   0.0
 1979 236    52  19.3  18.8  18.2  17.9  17.7  17.6  17.5  17.5   0.0   0.0
 1979 237    53  18.8  18.4  17.9  17.6  17.5  17.5  17.4  17.4   0.0   0.0
 1979 238    54  18.0  17.7  17.3  17.2  17.2  17.3  17.3  17.3   0.0   0.0
 1979 239    55  17.0  16.8  16.7  16.7  16.8  17.0  17.1  17.2   0.0   0.0
 1979 240    56  17.4  17.2  16.9  16.9  16.9  17.1  17.2  17.2   0.0   0.0
 1979 241    57  16.1  16.0  16.0  16.2  16.4  16.7  17.0  17.0   0.0   0.0
 1979 242    58  14.7  14.8  15.0  15.4  15.8  16.4  16.7  16.9   0.0   0.0
 1979 243    59  13.7  13.9  14.3  14.9  15.4  16.1  16.5  16.8   0.0   0.0
 1979 244    60  13.6  13.8  14.2  14.8  15.4  16.0  16.5  16.7   0.0   0.0
 1979 245    61  13.5  13.7  14.2  14.8  15.3  16.0  16.5  16.7   0.0   0.0
 1979 246    62  14.3  14.4  14.7  15.2  15.6  16.2  16.6  16.8   0.0   0.0
 1979 247    63  14.8  14.8  15.1  15.4  15.8  16.3  16.7  16.8   0.0   0.0
 1979 248    64  15.1  15.1  15.3  15.6  15.9  16.4  16.7  16.9   0.0   0.0
 1979 249    65  15.6  15.5  15.6  15.8  16.1  16.5  16.8  16.9   0.0   0.0
 1979 250    66  15.9  15.8  15.7  15.9  16.2  16.5  16.8  16.9   0.0   0.0
 1979 251    67  16.0  15.9  15.9  16.0  16.2  16.5  16.8  16.9   0.0   0.0
 1979 252    68  17.1  16.9  16.6  16.5  16.6  16.8  17.0  17.1   0.0   0.0
 1979 253    69  18.3  17.8  17.4  17.1  17.0  17.1  17.2  17.2   0.0   0.0
 1979 254    70  18.8  18.3  17.7  17.4  17.2  17.2  17.2  17.2   0.0   0.0
 1979 255    71  19.2  18.6  18.0  17.5  17.4  17.3  17.3  17.3   0.0   0.0
 1979 256    72  18.2  17.8  17.3  17.1  17.0  17.0  17.1  17.2   0.0   0.0
 1979 257    73  17.8  17.4  17.0  16.8  16.8  16.9  17.0  17.1   0.0   0.0
 1979 258    74  17.4  17.1  16.8  16.6  16.6  16.8  17.0  17.0   0.0   0.0
 1979 259    75  16.5  16.3  16.1  16.1  16.3  16.5  16.8  16.9   0.0   0.0
 1979 260    76  15.3  15.2  15.3  15.5  15.8  16.2  16.6  16.8   0.0   0.0
 1979 261    77  15.0  14.9  15.0  15.3  15.6  16.1  16.5  16.7   0.0   0.0
 1979 262    78  14.6  14.6  14.7  15.1  15.5  16.0  16.4  16.7   0.0   0.0
 1979 263    79  14.4  14.4  14.6  15.0  15.4  15.9  16.4  16.6   0.0   0.0
 1979 264    80  15.5  15.4  15.4  15.5  15.8  16.2  16.6  16.8   0.0   0.0
 1979 265    81  17.3  17.0  16.6  16.5  16.5  16.7  16.9  17.0   0.0   0.0
 1979 266    82  20.1  19.3  18.5  17.9  17.5  17.3  17.3  17.3   0.0   0.0
 1979 267    83  20.6  19.8  18.9  18.1  17.7  17.5  17.4  17.3   0.0   0.0
 1979 268    84  20.6  19.8  18.8  18.1  17.7  17.4  17.3  17.3   0.0   0.0
 1979 269    85  20.8  19.9  18.9  18.2  17.8  17.5  17.4  17.3   0.0   0.0
 1979 270    86  19.5  18.9  18.1  17.5  17.3  17.1  17.1  17.2   0.0   0.0
 1979 271    87  16.9  16.6  16.3  16.2  16.2  16.4  16.7  16.8   0.0   0.0
 1979 272    88  16.2  16.0  15.8  15.8  15.9  16.3  16.6  16.7   0.0   0.0
 1979 273    89  16.0  15.8  15.6  15.7  15.8  16.2  16.5  16.7   0.0   0.0
 1979 274    90  15.0  14.9  15.0  15.2  15.4  15.9  16.3  16.6   0.0   0.0
 1979 275    91  15.3  15.2  15.1  15.3  15.5  16.0  16.4  16.6   0.0   0.0
 1979 276    92  16.2  16.0  15.8  15.7  15.9  16.2  16.5  16.7   0.0   0.0
 1979 277    93  18.0  17.5  17.0  16.7  16.6  16.6  16.8  16.9   0.0   0.0
 1979 278    94  19.0  18.4  17.7  17.2  17.0  16.9  17.0  17.0   0.0   0.0
 1979 279    95  18.9  18.3  17.6  17.1  16.9  16.8  16.9  17.0   0.0   0.0
 1979 280    96  19.0  18.4  17.7  17.2  17.0  16.9  16.9  17.0   0.0   0.0
 1979 281    97  20.1  19.4  18.4  17.7  17.4  17.1  17.1  17.1   0.0   0.0
 1979 282    98  19.3  18.6  17.8  17.3  17.0  16.9  17.0  17.0   0.0   0.0
 1979 283    99  19.1  18.5  17.7  17.2  16.9  16.9  16.9  17.0   0.0   0.0
 1979 284   100  19.9  19.2  18.3  17.6  17.3  17.1  17.0  17.1   0.0   0.0
 1979 285   101  20.2  19.4  18.5  17.7  17.4  17.1  17.1  17.1   0.0   0.0
 1979 286   102  20.1  19.3  18.4  17.7  17.3  17.1  17.0  17.1   0.0   0.0
 1979 287   103  20.6  19.8  18.7  17.9  17.5  17.2  17.1  17.1   0.0   0.0
 1979 288   104  20.3  19.5  18.5  17.7  17.3  17.1  17.0  17.1   0.0   0.0
 1979 289   105  20.5  19.6  18.6  17.8  17.4  17.1  17.1  17.1   0.0   0.0
 1979 290   106  21.5  20.5  19.3  18.4  17.8  17.4  17.2  17.2   0.0   0.0
 1979 291   107  20.6  19.8  18.7  17.9  17.4  17.1  17.1  17.1   0.0   0.0
 1979 292   108  20.1  19.3  18.4  17.6  17.2  17.0  17.0  17.0   0.0   0.0
 1979 293   109  20.6  19.7  18.7  17.9  17.4  17.1  17.0  17.0   0.0   0.0
 1979 294   110  19.8  19.0  18.1  17.4  17.1  16.9  16.9  17.0   0.0   0.0
 1979 295   111  18.4  17.9  17.2  16.8  16.6  16.6  16.7  16.8   0.0   0.0
 1979 296   112  19.3  18.7  17.8  17.2  16.9  16.8  16.8  16.9   0.0   0.0
 1979 297   113  20.1  19.4  18.4  17.6  17.2  17.0  16.9  17.0   0.0   0.0
 1979 298   114  21.1  20.2  19.0  18.1  17.6  17.2  17.1  17.1   0.0   0.0
 1979 299   115  22.4  21.3  19.9  18.8  18.1  17.5  17.3  17.2   0.0   0.0
 1979 300   116  24.3  23.0  21.2  19.8  18.8  18.0  17.6  17.4   0.0   0.0
 1979 301   117  23.4  22.2  20.6  19.3  18.5  17.8  17.4  17.3   0.0   0.0
 1979 302   118  23.0  21.9  20.4  19.1  18.3  17.7  17.4  17.3   0.0   0.0
 1979 303   119  22.4  21.3  19.9  18.8  18.1  17.5  17.2  17.2   0.0   0.0
 1979 304   120  22.6  21.5  20.1  18.9  18.2  17.5  17.3  17.2   0.0   0.0
 1979 305   121  22.3  21.2  19.8  18.7  18.0  17.4  17.2  17.1   0.0   0.0
 1979 306   122  24.1  22.8  21.1  19.7  18.7  17.9  17.5  17.4   0.0   0.0
 1979 307   123  24.5  23.1  21.3  19.8  18.8  18.0  17.5  17.4   0.0   0.0
 1979 308   124  24.9  23.5  21.7  20.1  19.0  18.1  17.6  17.4   0.0   0.0
 1979 309   125  24.9  23.4  21.6  20.0  19.0  18.1  17.6  17.4   0.0   0.0
 1979 310   126  24.1  22.8  21.1  19.6  18.7  17.8  17.4  17.3   0.0   0.0
 1979 311   127  23.0  21.8  20.3  19.1  18.3  17.6  17.3  17.2   0.0   0.0
 1979 312   128  22.2  21.1  19.8  18.7  17.9  17.4  17.1  17.1   0.0   0.0
 1979 313   129  20.6  19.8  18.7  17.9  17.3  17.0  16.9  16.9   0.0   0.0
 1979 314   130  19.6  18.9  18.0  17.3  16.9  16.7  16.7  16.8   0.0   0.0
 1979 315   131  19.7  19.0  18.1  17.4  17.0  16.7  16.7  16.8   0.0   0.0
 1979 316   132  20.3  19.5  18.5  17.7  17.2  16.9  16.8  16.8   0.0   0.0
 1979 317   133  21.6  20.6  19.4  18.3  17.7  17.2  17.0  17.0   0.0   0.0
 1979 318   134  22.1  21.1  19.8  18.6  17.9  17.3  17.1  17.0   0.0   0.0
 1979 319   135  21.4  20.5  19.3  18.2  17.6  17.1  17.0  16.9   0.0   0.0
 1979 320   136  20.4  19.6  18.6  17.7  17.2  16.9  16.8  16.8   0.0   0.0
 1979 321   137  19.4  18.7  17.9  17.2  16.8  16.6  16.6  16.7   0.0   0.0
 1979 322   138  18.5  17.9  17.3  16.7  16.5  16.4  16.5  16.6   0.0   0.0
 1979 323   139  18.7  18.2  17.4  16.9  16.6  16.4  16.5  16.6   0.0   0.0
 1979 324   140  19.6  18.9  18.0  17.3  16.9  16.7  16.6  16.7   0.0   0.0
 1979 325   141  20.4  19.6  18.6  17.7  17.2  16.9  16.8  16.8   0.0   0.0
 1979 326   142  21.7  20.8  19.5  18.4  17.7  17.2  17.0  16.9   0.0   0.0
 1979 327   143  23.0  21.9  20.4  19.1  18.2  17.5  17.2  17.1   0.0   0.0
 1979 328   144  23.4  22.3  20.7  19.3  18.4  17.6  17.2  17.1   0.0   0.0
 1979 329   145  23.0  21.9  20.4  19.1  18.2  17.5  17.2  17.1   0.0   0.0
 1979 330   146  22.8  21.7  20.3  19.0  18.2  17.5  17.1  17.0   0.0   0.0
 1979 331   147  22.5  21.4  20.0  18.8  18.0  17.4  17.1  17.0   0.0   0.0
 1979 332   148  22.6  21.6  20.1  18.9  18.1  17.4  17.1  17.0   0.0   0.0
 1979 333   149  23.9  22.7  21.0  19.6  18.6  17.7  17.3  17.2   0.0   0.0
 1979 334   150  25.7  24.3  22.3  20.5  19.3  18.2  17.6  17.4   0.0   0.0
 1979 335   151  26.4  24.8  22.7  20.8  19.5  18.3  17.7  17.4   0.0   0.0
 1979 336   152  25.7  24.2  22.2  20.5  19.3  18.1  17.6  17.3   0.0   0.0
 1979 337   153  24.4  23.1  21.4  19.8  18.8  17.8  17.4  17.2   0.0   0.0
 1979 338   154  22.4  21.4  20.0  18.8  18.0  17.3  17.0  17.0   0.0   0.0
 1979 339   155  21.5  20.6  19.4  18.4  17.7  17.1  16.9  16.9   0.0   0.0
 1979 340   156  21.8  20.9  19.6  18.5  17.8  17.2  16.9  16.9   0.0   0.0
 1979 341   157  23.2  22.1  20.6  19.2  18.3  17.5  17.2  17.0   0.0   0.0
 1979 342   158  24.1  22.9  21.2  19.7  18.7  17.8  17.3  17.1   0.0   0.0
 1979 343   159  25.5  24.1  22.2  20.5  19.3  18.1  17.5  17.3   0.0   0.0
 1979 344   160  26.6  25.0  22.9  21.0  19.7  18.4  17.7  17.4   0.0   0.0
 1979 345   161  28.0  26.3  23.9  21.8  20.2  18.8  17.9  17.6   0.0   0.0
 1979 346   162  28.3  26.5  24.1  21.9  20.3  18.8  18.0  17.6   0.0   0.0
 1979 347   163  28.0  26.3  23.9  21.8  20.2  18.8  17.9  17.6   0.0   0.0
 1979 348   164  27.1  25.5  23.3  21.3  19.9  18.5  17.8  17.5   0.0   0.0
 1979 349   165  25.9  24.4  22.5  20.7  19.4  18.2  17.6  17.3   0.0   0.0
 1979 350   166  23.8  22.6  21.1  19.6  18.6  17.7  17.3  17.1   0.0   0.0
 1979 351   167  23.3  22.2  20.7  19.4  18.5  17.6  17.2  17.0   0.0   0.0
 1979 352   168  24.1  22.9  21.3  19.8  18.8  17.8  17.3  17.1   0.0   0.0
 1979 353   169  25.5  24.2  22.3  20.5  19.3  18.2  17.5  17.3   0.0   0.0
 1979 354   170  27.0  25.4  23.2  21.3  19.9  18.5  17.7  17.4   0.0   0.0
 1979 355   171  28.2  26.5  24.1  21.9  20.3  18.8  17.9  17.6   0.0   0.0
 1979 356   172  27.9  26.2  23.9  21.8  20.2  18.8  17.9  17.5   0.0   0.0
 1979 357   173  27.6  25.9  23.7  21.6  20.1  18.7  17.8  17.5   0.0   0.0
 1979 358   174  27.0  25.4  23.3  21.3  19.9  18.5  17.7  17.4   0.0   0.0
 1979 359   175  26.7  25.2  23.1  21.2  19.8  18.4  17.7  17.4   0.0   0.0
 1979 360   176  26.3  24.9  22.8  21.0  19.6  18.4  17.6  17.4   0.0   0.0
 1979 361   177  26.8  25.3  23.2  21.3  19.9  18.5  17.7  17.4   0.0   0.0
 1979 362   178  27.3  25.8  23.6  21.5  20.1  18.6  17.8  17.5   0.0   0.0
 1979 363   179  28.2  26.5  24.1  22.0  20.4  18.9  17.9  17.6   0.0   0.0
 1979 364   180  27.3  25.7  23.5  21.5  20.1  18.6  17.8  17.5   0.0   0.0
 1979 365   181  26.4  24.9  22.9  21.1  19.7  18.4  17.7  17.4   0.0   0.0
 1980 001   182  25.8  24.4  22.5  20.7  19.5  18.2  17.6  17.3   0.0   0.0
 1980 002   183  25.4  24.1  22.2  20.5  19.3  18.1  17.5  17.3   0.0   0.0
 1980 003   184  25.3  24.1  22.2  20.6  19.3  18.2  17.5  17.3   0.0   0.0
 1980 004   185  26.5  25.1  23.0  21.2  19.8  18.5  17.7  17.4   0.0   0.0
 1980 005   186  27.7  26.1  23.8  21.8  20.2  18.7  17.9  17.5   0.0   0.0
 1980 006   187  28.3  26.6  24.3  22.1  20.5  18.9  18.0  17.6   0.0   0.0
 1980 007   188  29.1  27.4  24.8  22.5  20.8  19.1  18.1  17.7   0.0   0.0
 1980 008   189  29.6  27.8  25.2  22.8  21.0  19.2  18.2  17.7   0.0   0.0
 1980 009   190  30.2  28.3  25.6  23.1  21.2  19.4  18.3  17.8   0.0   0.0
 1980 010   191  30.8  28.8  26.0  23.4  21.5  19.5  18.4  17.9   0.0   0.0
 1980 011   192  31.1  29.1  26.2  23.6  21.6  19.6  18.4  17.9   0.0   0.0
 1980 012   193  30.6  28.7  25.9  23.3  21.4  19.5  18.3  17.8   0.0   0.0
 1980 013   194  30.0  28.1  25.5  23.0  21.2  19.4  18.3  17.8   0.0   0.0
 1980 014   195  29.6  27.8  25.2  22.8  21.1  19.3  18.2  17.7   0.0   0.0
 1980 015   196  29.1  27.4  24.9  22.6  20.9  19.2  18.1  17.7   0.0   0.0

*DSSAT Cropping System Model Ver. 4.0.2.000               Aug 01, 2016; 15:14:21

*RUN   6        : UYMZ                    
 MODEL          : MZCER040 - Maize           
 EXPERIMENT     : UYMZ0102 MZ    late to create DSS                             
 TREATMENT  1   : UYMZ                    

@YEAR DOY   DAS  TS1D  TS2D  TS3D  TS4D  TS5D  TS6D  TS7D  TS8D  TS9D  TS10
 1980 184     0   9.0  10.2  11.9  13.5  14.6  15.7  16.4  16.6   0.0   0.0
 1980 185     1   9.0  10.2  11.9  13.5  14.6  15.7  16.4  16.6   0.0   0.0
 1980 186     2   9.5  10.6  12.2  13.7  14.8  15.8  16.4  16.6   0.0   0.0
 1980 187     3  10.6  11.5  12.9  14.2  15.2  16.1  16.6  16.8   0.0   0.0
 1980 188     4  11.8  12.6  13.7  14.8  15.6  16.4  16.8  16.9   0.0   0.0
 1980 189     5  13.2  13.8  14.7  15.5  16.1  16.7  17.0  17.0   0.0   0.0
 1980 190     6  14.0  14.5  15.2  15.9  16.4  16.9  17.1  17.1   0.0   0.0
 1980 191     7  13.9  14.4  15.1  15.8  16.4  16.9  17.1  17.1   0.0   0.0
 1980 192     8  13.4  13.9  14.7  15.5  16.1  16.7  17.0  17.1   0.0   0.0
 1980 193     9  12.8  13.4  14.3  15.2  15.9  16.6  16.9  17.0   0.0   0.0
 1980 194    10  12.6  13.2  14.2  15.1  15.8  16.5  16.9  17.0   0.0   0.0
 1980 195    11  12.7  13.3  14.2  15.2  15.8  16.5  16.9  17.0   0.0   0.0
 1980 196    12  12.6  13.3  14.2  15.1  15.8  16.5  16.9  17.0   0.0   0.0
 1980 197    13  12.4  13.1  14.0  15.0  15.7  16.4  16.8  16.9   0.0   0.0
 1980 198    14  12.1  12.8  13.8  14.8  15.6  16.3  16.7  16.9   0.0   0.0
 1980 199    15  11.8  12.5  13.6  14.6  15.5  16.2  16.7  16.9   0.0   0.0
 1980 200    16  11.8  12.5  13.6  14.6  15.4  16.2  16.7  16.9   0.0   0.0
 1980 201    17  13.7  14.1  14.9  15.6  16.2  16.7  17.0  17.1   0.0   0.0
 1980 202    18  14.1  14.5  15.1  15.8  16.3  16.8  17.0  17.1   0.0   0.0
 1980 203    19  15.0  15.3  15.7  16.2  16.6  17.0  17.2  17.2   0.0   0.0
 1980 204    20  15.6  15.8  16.2  16.5  16.9  17.2  17.3  17.3   0.0   0.0
 1980 205    21  16.0  16.1  16.4  16.7  17.0  17.2  17.3  17.3   0.0   0.0
 1980 206    22  15.8  15.9  16.2  16.6  16.9  17.2  17.3  17.3   0.0   0.0
 1980 207    23  16.6  16.7  16.8  17.0  17.2  17.4  17.4  17.4   0.0   0.0
 1980 208    24  17.0  17.0  17.0  17.2  17.3  17.5  17.5  17.4   0.0   0.0
 1980 209    25  16.5  16.5  16.7  16.9  17.1  17.3  17.4  17.3   0.0   0.0
 1980 210    26  16.1  16.2  16.4  16.7  17.0  17.2  17.3  17.3   0.0   0.0
 1980 211    27  14.2  14.6  15.1  15.7  16.2  16.7  17.0  17.1   0.0   0.0
 1980 212    28  12.6  13.1  14.0  14.8  15.5  16.3  16.7  16.9   0.0   0.0
 1980 213    29  11.2  11.9  13.0  14.1  15.0  15.9  16.5  16.7   0.0   0.0
 1980 214    30  11.3  12.0  13.0  14.1  15.0  15.9  16.5  16.7   0.0   0.0
 1980 215    31  10.5  11.3  12.5  13.7  14.7  15.7  16.3  16.6   0.0   0.0
 1980 216    32  11.4  12.1  13.1  14.2  15.0  15.9  16.5  16.7   0.0   0.0
 1980 217    33  12.8  13.3  14.0  14.9  15.5  16.3  16.7  16.9   0.0   0.0
 1980 218    34  13.4  13.8  14.4  15.1  15.7  16.4  16.8  16.9   0.0   0.0
 1980 219    35  13.4  13.8  14.5  15.1  15.7  16.4  16.8  16.9   0.0   0.0
 1980 220    36  14.3  14.6  15.0  15.6  16.1  16.6  16.9  17.0   0.0   0.0
 1980 221    37  14.4  14.7  15.1  15.6  16.1  16.6  16.9  17.0   0.0   0.0
 1980 222    38  14.5  14.7  15.2  15.7  16.1  16.6  16.9  17.0   0.0   0.0
 1980 223    39  15.5  15.6  15.8  16.1  16.5  16.8  17.1  17.1   0.0   0.0
 1980 224    40  15.4  15.5  15.8  16.1  16.4  16.8  17.1  17.1   0.0   0.0
 1980 225    41  14.9  15.1  15.4  15.8  16.2  16.7  17.0  17.1   0.0   0.0
[...]
 1994 313   129  22.5  21.4  20.0  18.8  18.0  17.4  17.2  17.1   0.0   0.0
 1994 314   130  22.7  21.6  20.1  18.9  18.1  17.5  17.2  17.1   0.0   0.0
 1994 315   131  22.7  21.6  20.1  18.9  18.1  17.5  17.2  17.1   0.0   0.0
 1994 316   132  22.5  21.4  20.0  18.8  18.0  17.4  17.2  17.1   0.0   0.0
 1994 317   133  23.3  22.1  20.6  19.2  18.4  17.6  17.3  17.2   0.0   0.0
 1994 318   134  24.6  23.3  21.4  19.9  18.8  17.9  17.5  17.3   0.0   0.0
 1994 319   135  25.6  24.1  22.1  20.4  19.2  18.2  17.6  17.4   0.0   0.0
 1994 320   136  25.3  23.9  21.9  20.2  19.1  18.1  17.6  17.4   0.0   0.0
 1994 321   137  24.7  23.3  21.5  19.9  18.9  17.9  17.5  17.3   0.0   0.0
 1994 322   138  23.9  22.6  20.9  19.5  18.5  17.7  17.3  17.2   0.0   0.0
 1994 323   139  22.8  21.7  20.2  18.9  18.1  17.5  17.2  17.1   0.0   0.0
 1994 324   140  22.6  21.5  20.0  18.8  18.0  17.4  17.1  17.0   0.0   0.0
 1994 325   141  23.4  22.2  20.6  19.3  18.4  17.6  17.2  17.1   0.0   0.0
 1994 326   142  24.3  23.0  21.2  19.7  18.7  17.8  17.4  17.2   0.0   0.0
 1994 327   143  25.8  24.3  22.2  20.5  19.3  18.2  17.6  17.4   0.0   0.0
 1994 328   144  27.5  25.7  23.4  21.3  19.9  18.6  17.9  17.6   0.0   0.0
 1994 329   145  26.5  24.9  22.7  20.8  19.5  18.3  17.7  17.5   0.0   0.0
 1994 330   146  26.0  24.5  22.4  20.6  19.4  18.2  17.6  17.4   0.0   0.0
 1994 331   147  24.8  23.4  21.6  20.0  18.9  17.9  17.4  17.3   0.0   0.0
 1994 332   148  22.6  21.6  20.1  18.9  18.1  17.4  17.1  17.0   0.0   0.0
 1994 333   149  22.2  21.2  19.9  18.7  17.9  17.3  17.0  17.0   0.0   0.0
 1994 334   150  23.9  22.7  21.0  19.6  18.6  17.7  17.3  17.2   0.0   0.0
 1994 335   151  25.2  23.8  21.9  20.2  19.0  18.0  17.5  17.3   0.0   0.0
 1994 336   152  25.6  24.1  22.2  20.4  19.2  18.1  17.5  17.3   0.0   0.0
 1994 337   153  26.0  24.5  22.5  20.7  19.4  18.2  17.6  17.4   0.0   0.0
 1994 338   154  24.9  23.5  21.7  20.1  19.0  18.0  17.4  17.2   0.0   0.0
 1994 339   155  24.4  23.1  21.4  19.9  18.8  17.8  17.4  17.2   0.0   0.0
 1994 340   156  23.9  22.7  21.0  19.6  18.6  17.7  17.3  17.1   0.0   0.0
 1994 341   157  25.4  24.0  22.1  20.4  19.2  18.1  17.5  17.3   0.0   0.0
 1994 342   158  27.4  25.7  23.4  21.4  19.9  18.6  17.8  17.5   0.0   0.0
 1994 343   159  29.8  27.8  25.1  22.6  20.9  19.2  18.2  17.8   0.0   0.0
 1994 344   160  31.2  29.0  26.0  23.3  21.4  19.5  18.4  17.9   0.0   0.0
 1994 345   161  32.8  30.4  27.1  24.2  22.0  19.9  18.6  18.1   0.0   0.0
 1994 346   162  32.0  29.7  26.6  23.7  21.7  19.7  18.5  18.0   0.0   0.0
 1994 347   163  31.2  29.0  26.0  23.3  21.4  19.5  18.4  17.9   0.0   0.0
 1994 348   164  29.7  27.8  25.0  22.6  20.8  19.1  18.1  17.7   0.0   0.0
 1994 349   165  28.0  26.3  23.9  21.7  20.2  18.7  17.9  17.5   0.0   0.0
 1994 350   166  26.7  25.1  23.0  21.1  19.7  18.4  17.7  17.4   0.0   0.0
 1994 351   167  26.9  25.3  23.2  21.2  19.8  18.5  17.7  17.4   0.0   0.0
 1994 352   168  26.9  25.4  23.2  21.2  19.8  18.5  17.7  17.4   0.0   0.0
 1994 353   169  27.1  25.5  23.3  21.3  19.9  18.5  17.7  17.4   0.0   0.0
 1994 354   170  27.0  25.4  23.2  21.2  19.8  18.5  17.7  17.4   0.0   0.0
 1994 355   171  26.9  25.3  23.2  21.2  19.8  18.5  17.7  17.4   0.0   0.0
 1994 356   172  28.1  26.4  24.0  21.8  20.3  18.8  17.9  17.5   0.0   0.0
 1994 357   173  29.2  27.4  24.8  22.4  20.7  19.0  18.1  17.7   0.0   0.0
 1994 358   174  29.8  27.9  25.2  22.8  21.0  19.2  18.2  17.7   0.0   0.0
 1994 359   175  30.4  28.4  25.6  23.1  21.2  19.4  18.3  17.8   0.0   0.0
 1994 360   176  31.1  29.0  26.1  23.4  21.5  19.5  18.4  17.9   0.0   0.0
 1994 361   177  30.7  28.6  25.8  23.2  21.3  19.4  18.3  17.8   0.0   0.0
 1994 362   178  30.2  28.3  25.5  23.0  21.1  19.3  18.2  17.8   0.0   0.0
 1994 363   179  29.7  27.8  25.1  22.7  20.9  19.2  18.1  17.7   0.0   0.0
 1994 364   180  29.9  28.0  25.3  22.9  21.1  19.3  18.2  17.8   0.0   0.0
 1994 365   181  30.4  28.5  25.7  23.2  21.3  19.4  18.3  17.8   0.0   0.0
 1995 001   182  30.5  28.5  25.7  23.1  21.3  19.4  18.3  17.8   0.0   0.0
 1995 002   183  30.5  28.5  25.7  23.2  21.3  19.4  18.3  17.8   0.0   0.0
 1995 003   184  31.0  28.9  26.0  23.4  21.5  19.5  18.4  17.9   0.0   0.0
 1995 004   185  31.0  28.9  26.0  23.4  21.5  19.5  18.4  17.9   0.0   0.0
 1995 005   186  29.8  27.9  25.2  22.8  21.0  19.2  18.2  17.7   0.0   0.0
 1995 006   187  29.8  27.9  25.3  22.8  21.0  19.3  18.2  17.7   0.0   0.0
 1995 007   188  30.4  28.5  25.7  23.2  21.3  19.4  18.3  17.8   0.0   0.0
 1995 008   189  29.6  27.8  25.2  22.8  21.0  19.2  18.2  17.7   0.0   0.0
 1995 009   190  28.6  26.9  24.5  22.3  20.6  19.0  18.0  17.6   0.0   0.0
 1995 010   191  28.0  26.4  24.1  22.0  20.4  18.9  17.9  17.5   0.0   0.0
 1995 011   192  27.1  25.6  23.5  21.5  20.1  18.6  17.8  17.5   0.0   0.0
 1995 012   193  24.9  23.7  22.0  20.4  19.2  18.1  17.5  17.2   0.0   0.0

*DSSAT Cropping System Model Ver. 4.0.2.000               Aug 01, 2016; 15:14:21

*RUN  21        : UYMZ                    
 MODEL          : MZCER040 - Maize           
 EXPERIMENT     : UYMZ0102 MZ    late to create DSS                             
 TREATMENT  1   : UYMZ                    

@YEAR DOY   DAS  TS1D  TS2D  TS3D  TS4D  TS5D  TS6D  TS7D  TS8D  TS9D  TS10
 1995 184     0  13.7  14.3  15.1  15.9  16.4  16.9  17.1  17.1   0.0   0.0
 1995 185     1  14.4  14.9  15.6  16.2  16.7  17.1  17.2  17.2   0.0   0.0
 1995 186     2  14.2  14.7  15.4  16.1  16.6  17.0  17.2  17.2   0.0   0.0
 1995 187     3  14.0  14.5  15.3  16.0  16.5  17.0  17.1  17.1   0.0   0.0
 1995 188     4  14.0  14.5  15.3  16.0  16.5  16.9  17.1  17.1   0.0   0.0
 1995 189     5  14.8  15.2  15.8  16.3  16.8  17.1  17.2  17.2   0.0   0.0
 1995 190     6  14.6  15.0  15.6  16.2  16.7  17.1  17.2  17.2   0.0   0.0
 1995 191     7  15.5  15.8  16.2  16.7  17.0  17.3  17.3  17.3   0.0   0.0
 1995 192     8  15.6  15.8  16.3  16.7  17.0  17.3  17.3  17.3   0.0   0.0
 1995 193     9  15.6  15.9  16.3  16.7  17.0  17.3  17.4  17.3   0.0   0.0
 1995 194    10  15.3  15.6  16.0  16.5  16.9  17.2  17.3  17.3   0.0   0.0
 1995 195    11  14.7  15.0  15.6  16.2  16.6  17.0  17.2  17.2   0.0   0.0
 1995 196    12  13.4  13.9  14.7  15.5  16.1  16.7  17.0  17.0   0.0   0.0
 1995 197    13  12.3  12.9  13.9  14.9  15.6  16.4  16.8  16.9   0.0   0.0
 1995 198    14  11.1  11.9  13.1  14.3  15.2  16.1  16.6  16.8   0.0   0.0
 1995 199    15  10.6  11.4  12.7  14.0  15.0  15.9  16.5  16.7   0.0   0.0
 1995 200    16  10.0  11.0  12.3  13.7  14.7  15.8  16.4  16.6   0.0   0.0
 1995 201    17   9.9  10.9  12.3  13.6  14.7  15.7  16.4  16.6   0.0   0.0
 1995 202    18  10.6  11.5  12.8  14.0  14.9  15.9  16.5  16.7   0.0   0.0
 1995 203    19  12.0  12.7  13.7  14.7  15.5  16.2  16.7  16.9   0.0   0.0
 1995 204    20  14.1  14.5  15.1  15.8  16.3  16.8  17.0  17.1   0.0   0.0
 1995 205    21  15.5  15.7  16.1  16.5  16.8  17.1  17.2  17.3   0.0   0.0
 1995 206    22  16.4  16.5  16.6  16.9  17.1  17.3  17.4  17.3   0.0   0.0
 1995 207    23  17.1  17.1  17.2  17.3  17.4  17.5  17.5  17.4   0.0   0.0
 1995 208    24  17.0  17.0  17.0  17.2  17.3  17.4  17.5  17.4   0.0   0.0
 1995 209    25  15.5  15.7  16.0  16.4  16.7  17.1  17.2  17.2   0.0   0.0
 1995 210    26  14.2  14.6  15.1  15.7  16.2  16.7  17.0  17.1   0.0   0.0
 1995 211    27  13.6  14.0  14.7  15.4  16.0  16.5  16.9  17.0   0.0   0.0
 1995 212    28  13.0  13.5  14.3  15.1  15.7  16.4  16.8  16.9   0.0   0.0
 1995 213    29  12.4  13.0  13.9  14.8  15.5  16.2  16.7  16.9   0.0   0.0
 1995 214    30  11.1  11.9  12.9  14.1  14.9  15.9  16.5  16.7   0.0   0.0
 1995 215    31  11.1  11.8  12.9  14.0  14.9  15.9  16.4  16.7   0.0   0.0
 1995 216    32  11.2  11.9  13.0  14.1  15.0  15.9  16.5  16.7   0.0   0.0
 1995 217    33  11.2  11.9  13.0  14.1  14.9  15.9  16.4  16.7   0.0   0.0
 1995 218    34  11.5  12.1  13.1  14.2  15.0  15.9  16.5  16.7   0.0   0.0
 1995 219    35  12.9  13.3  14.1  14.9  15.5  16.2  16.7  16.9   0.0   0.0
 1995 220    36  12.7  13.2  14.0  14.8  15.5  16.2  16.7  16.8   0.0   0.0
 1995 221    37  12.0  12.5  13.4  14.4  15.1  16.0  16.5  16.7   0.0   0.0
 1995 222    38  12.3  12.8  13.6  14.5  15.3  16.1  16.6  16.8   0.0   0.0
 1995 223    39  13.6  14.0  14.6  15.2  15.8  16.4  16.8  16.9   0.0   0.0
 1995 224    40  14.0  14.3  14.8  15.4  15.9  16.5  16.8  17.0   0.0   0.0
 1995 225    41  14.5  14.7  15.1  15.6  16.1  16.6  16.9  17.0   0.0   0.0
 1995 226    42  14.9  15.1  15.4  15.8  16.2  16.7  17.0  17.0   0.0   0.0
 1995 227    43  14.3  14.5  14.9  15.5  15.9  16.5  16.8  17.0   0.0   0.0
 1995 228    44  12.5  13.0  13.7  14.5  15.2  16.0  16.5  16.8   0.0   0.0
 1995 229    45  11.5  12.1  13.0  14.0  14.8  15.8  16.4  16.6   0.0   0.0
 1995 230    46  11.4  12.0  12.9  13.9  14.8  15.7  16.3  16.6   0.0   0.0
 1995 231    47  12.0  12.5  13.3  14.2  15.0  15.8  16.4  16.7   0.0   0.0
 1995 232    48  13.4  13.8  14.3  15.0  15.5  16.2  16.6  16.8   0.0   0.0
 1995 233    49  15.7  15.7  15.9  16.1  16.4  16.8  17.0  17.1   0.0   0.0
 1995 234    50  18.6  18.2  17.8  17.6  17.5  17.5  17.5  17.4   0.0   0.0
 1995 235    51  19.6  19.1  18.5  18.1  17.9  17.7  17.6  17.5   0.0   0.0
 1995 236    52  20.3  19.6  18.9  18.4  18.1  17.9  17.7  17.6   0.0   0.0
 1995 237    53  19.9  19.3  18.6  18.2  17.9  17.7  17.6  17.5   0.0   0.0
 1995 238    54  19.1  18.6  18.1  17.8  17.6  17.5  17.5  17.4   0.0   0.0
 1995 239    55  17.1  16.8  16.7  16.7  16.8  17.0  17.1  17.2   0.0   0.0
 1995 240    56  16.5  16.4  16.3  16.4  16.6  16.8  17.0  17.1   0.0   0.0
 1995 241    57  16.3  16.2  16.1  16.3  16.5  16.8  17.0  17.1   0.0   0.0
 1995 242    58  16.4  16.3  16.2  16.3  16.5  16.8  17.0  17.1   0.0   0.0
 1995 243    59  15.1  15.1  15.3  15.6  16.0  16.4  16.8  16.9   0.0   0.0
 1995 244    60  14.6  14.6  14.9  15.3  15.7  16.3  16.7  16.8   0.0   0.0
 1995 245    61  15.4  15.4  15.5  15.8  16.1  16.5  16.8  16.9   0.0   0.0
 1995 246    62  17.1  16.8  16.6  16.6  16.7  16.9  17.1  17.1   0.0   0.0
 1995 247    63  19.0  18.5  17.9  17.6  17.4  17.4  17.3  17.3   0.0   0.0
 1995 248    64  22.1  21.2  20.0  19.2  18.6  18.1  17.8  17.7   0.0   0.0
 1995 249    65  22.9  21.9  20.6  19.5  18.9  18.3  18.0  17.8   0.0   0.0
 1995 250    66  21.7  20.8  19.7  18.9  18.4  18.0  17.7  17.6   0.0   0.0
 1995 251    67  19.8  19.2  18.4  17.9  17.7  17.5  17.4  17.4   0.0   0.0
 1995 252    68  17.6  17.3  17.0  16.8  16.8  16.9  17.1  17.1   0.0   0.0
 1995 253    69  14.7  14.8  14.9  15.3  15.7  16.2  16.6  16.8   0.0   0.0
 1995 254    70  13.6  13.8  14.1  14.7  15.2  15.9  16.4  16.6   0.0   0.0
 1995 255    71  13.8  14.0  14.3  14.8  15.3  15.9  16.4  16.6   0.0   0.0
 1995 256    72  14.3  14.4  14.6  15.0  15.5  16.0  16.5  16.7   0.0   0.0
 1995 257    73  15.2  15.2  15.2  15.5  15.8  16.2  16.6  16.8   0.0   0.0
 1995 258    74  17.0  16.7  16.5  16.4  16.5  16.7  16.9  17.0   0.0   0.0
 1995 259    75  19.0  18.4  17.8  17.4  17.2  17.2  17.2  17.2   0.0   0.0
 1995 260    76  19.1  18.5  17.8  17.4  17.2  17.2  17.2  17.2   0.0   0.0
 1995 261    77  18.2  17.8  17.3  17.0  16.9  16.9  17.0  17.1   0.0   0.0
 1995 262    78  17.3  16.9  16.6  16.5  16.5  16.7  16.9  17.0   0.0   0.0
 1995 263    79  16.1  15.9  15.8  15.9  16.0  16.4  16.7  16.8   0.0   0.0
 1995 264    80  15.1  15.0  15.1  15.3  15.6  16.1  16.5  16.7   0.0   0.0
 1995 265    81  15.9  15.7  15.6  15.7  15.9  16.3  16.6  16.8   0.0   0.0
 1995 266    82  17.3  16.9  16.6  16.4  16.5  16.6  16.8  16.9   0.0   0.0
 1995 267    83  18.1  17.7  17.1  16.8  16.8  16.8  17.0  17.0   0.0   0.0
 1995 268    84  17.9  17.5  17.0  16.7  16.7  16.8  16.9  17.0   0.0   0.0
 1995 269    85  17.7  17.3  16.8  16.6  16.6  16.7  16.9  17.0   0.0   0.0
 1995 270    86  16.9  16.5  16.3  16.2  16.2  16.5  16.7  16.8   0.0   0.0
 1995 271    87  16.4  16.2  16.0  15.9  16.1  16.3  16.6  16.8   0.0   0.0
 1995 272    88  16.3  16.1  15.9  15.9  16.0  16.3  16.6  16.8   0.0   0.0
 1995 273    89  17.0  16.7  16.3  16.2  16.3  16.5  16.7  16.8   0.0   0.0
 1995 274    90  17.5  17.1  16.7  16.5  16.4  16.6  16.8  16.9   0.0   0.0
 1995 275    91  19.3  18.7  17.9  17.4  17.1  17.0  17.0  17.1   0.0   0.0
 1995 276    92  19.9  19.2  18.3  17.7  17.3  17.2  17.1  17.1   0.0   0.0
 1995 277    93  20.2  19.5  18.5  17.8  17.5  17.2  17.2  17.2   0.0   0.0
 1995 278    94  20.5  19.7  18.7  18.0  17.6  17.3  17.2  17.2   0.0   0.0
 1995 279    95  21.1  20.2  19.1  18.3  17.8  17.4  17.3  17.2   0.0   0.0
 1995 280    96  20.0  19.2  18.3  17.7  17.3  17.1  17.1  17.1   0.0   0.0
 1995 281    97  18.9  18.3  17.6  17.1  16.9  16.8  16.9  17.0   0.0   0.0
 1995 282    98  18.4  17.9  17.2  16.8  16.7  16.7  16.8  16.9   0.0   0.0
 1995 283    99  17.8  17.3  16.8  16.5  16.4  16.5  16.7  16.8   0.0   0.0
 1995 284   100  17.0  16.7  16.3  16.1  16.1  16.3  16.6  16.7   0.0   0.0
 1995 285   101  17.5  17.1  16.6  16.4  16.3  16.4  16.6  16.8   0.0   0.0
 1995 286   102  19.3  18.7  17.9  17.3  17.0  16.9  16.9  17.0   0.0   0.0
 1995 287   103  20.1  19.3  18.4  17.7  17.3  17.1  17.0  17.1   0.0   0.0
 1995 288   104  20.2  19.4  18.5  17.7  17.3  17.1  17.0  17.1   0.0   0.0
 1995 289   105  20.8  20.0  18.9  18.0  17.6  17.2  17.1  17.1   0.0   0.0
 1995 290   106  21.1  20.2  19.0  18.1  17.6  17.3  17.2  17.1   0.0   0.0
 1995 291   107  20.1  19.3  18.4  17.6  17.3  17.0  17.0  17.0   0.0   0.0
 1995 292   108  20.0  19.2  18.3  17.6  17.2  17.0  17.0  17.0   0.0   0.0
 1995 293   109  21.1  20.2  19.1  18.2  17.6  17.3  17.1  17.1   0.0   0.0
 1995 294   110  22.7  21.6  20.1  19.0  18.2  17.6  17.4  17.3   0.0   0.0
 1995 295   111  24.4  23.0  21.3  19.8  18.9  18.0  17.6  17.5   0.0   0.0
 1995 296   112  24.6  23.2  21.4  19.9  18.9  18.1  17.6  17.5   0.0   0.0
 1995 297   113  23.3  22.1  20.6  19.3  18.5  17.8  17.4  17.3   0.0   0.0
 1995 298   114  21.5  20.5  19.3  18.3  17.7  17.3  17.1  17.1   0.0   0.0
 1995 299   115  19.4  18.7  17.9  17.2  16.9  16.8  16.8  16.9   0.0   0.0
 1995 300   116  16.6  16.3  16.0  15.8  15.8  16.0  16.3  16.5   0.0   0.0
 1995 301   117  16.2  16.0  15.7  15.6  15.7  15.9  16.3  16.5   0.0   0.0
 1995 302   118  17.4  17.0  16.5  16.2  16.1  16.2  16.5  16.6   0.0   0.0
 1995 303   119  19.6  18.8  18.0  17.3  16.9  16.8  16.8  16.8   0.0   0.0
 1995 304   120  21.5  20.6  19.3  18.3  17.7  17.3  17.1  17.1   0.0   0.0
 1995 305   121  24.2  22.9  21.1  19.7  18.7  17.9  17.5  17.4   0.0   0.0
 1995 306   122  26.3  24.7  22.6  20.8  19.6  18.4  17.8  17.6   0.0   0.0
 1995 307   123  28.3  26.4  23.9  21.8  20.3  18.9  18.1  17.8   0.0   0.0
 1995 308   124  28.6  26.6  24.1  21.9  20.4  19.0  18.2  17.8   0.0   0.0
 1995 309   125  27.3  25.6  23.3  21.3  19.9  18.7  18.0  17.7   0.0   0.0
 1995 310   126  25.7  24.2  22.2  20.4  19.3  18.2  17.7  17.5   0.0   0.0
 1995 311   127  23.7  22.4  20.8  19.4  18.5  17.7  17.4  17.3   0.0   0.0
 1995 312   128  21.7  20.7  19.5  18.4  17.8  17.3  17.1  17.0   0.0   0.0
 1995 313   129  21.2  20.3  19.1  18.1  17.6  17.1  17.0  17.0   0.0   0.0
 1995 314   130  21.1  20.2  19.0  18.1  17.5  17.1  16.9  16.9   0.0   0.0
 1995 315   131  21.4  20.5  19.3  18.3  17.6  17.2  17.0  17.0   0.0   0.0
 1995 316   132  21.8  20.9  19.6  18.5  17.8  17.3  17.1  17.0   0.0   0.0
 1995 317   133  22.1  21.1  19.8  18.6  17.9  17.3  17.1  17.0   0.0   0.0
 1995 318   134  22.1  21.1  19.7  18.6  17.9  17.3  17.1  17.0   0.0   0.0
 1995 319   135  22.3  21.3  19.9  18.7  18.0  17.4  17.1  17.1   0.0   0.0
 1995 320   136  22.3  21.3  19.9  18.7  18.0  17.4  17.1  17.0   0.0   0.0
 1995 321   137  22.6  21.5  20.1  18.9  18.1  17.4  17.1  17.1   0.0   0.0
 1995 322   138  22.9  21.8  20.3  19.0  18.2  17.5  17.2  17.1   0.0   0.0
 1995 323   139  22.9  21.8  20.3  19.0  18.2  17.5  17.2  17.1   0.0   0.0
 1995 324   140  23.7  22.5  20.8  19.4  18.5  17.7  17.3  17.2   0.0   0.0
 1995 325   141  24.0  22.7  21.0  19.6  18.6  17.8  17.3  17.2   0.0   0.0
 1995 326   142  24.3  23.0  21.2  19.7  18.7  17.8  17.4  17.2   0.0   0.0
 1995 327   143  24.2  22.9  21.2  19.7  18.7  17.8  17.4  17.2   0.0   0.0
 1995 328   144  24.8  23.4  21.6  20.0  18.9  17.9  17.4  17.3   0.0   0.0
 1995 329   145  23.8  22.5  20.9  19.5  18.5  17.7  17.3  17.2   0.0   0.0
 1995 330   146  23.8  22.6  20.9  19.5  18.5  17.7  17.3  17.2   0.0   0.0
 1995 331   147  24.3  23.0  21.3  19.8  18.7  17.8  17.4  17.2   0.0   0.0
 1995 332   148  25.4  23.9  22.0  20.3  19.1  18.1  17.5  17.3   0.0   0.0
 1995 333   149  24.9  23.6  21.7  20.1  19.0  18.0  17.4  17.3   0.0   0.0
 1995 334   150  26.0  24.5  22.4  20.6  19.4  18.2  17.6  17.4   0.0   0.0
 1995 335   151  26.8  25.2  23.0  21.0  19.7  18.4  17.7  17.5   0.0   0.0
 1995 336   152  27.2  25.6  23.3  21.3  19.9  18.5  17.8  17.5   0.0   0.0
 1995 337   153  27.8  26.0  23.7  21.6  20.1  18.7  17.9  17.6   0.0   0.0
 1995 338   154  29.5  27.6  24.9  22.4  20.7  19.1  18.1  17.8   0.0   0.0
 1995 339   155  30.4  28.3  25.4  22.9  21.0  19.3  18.3  17.8   0.0   0.0
 1995 340   156  29.4  27.5  24.8  22.4  20.7  19.1  18.1  17.7   0.0   0.0
 1995 341   157  28.3  26.5  24.0  21.8  20.3  18.8  17.9  17.6   0.0   0.0
 1995 342   158  27.3  25.6  23.3  21.3  19.9  18.5  17.8  17.5   0.0   0.0
 1995 343   159  26.0  24.6  22.5  20.7  19.4  18.2  17.6  17.4   0.0   0.0
 1995 344   160  25.3  23.9  22.0  20.3  19.1  18.1  17.5  17.3   0.0   0.0
 1995 345   161  26.9  25.3  23.1  21.2  19.8  18.5  17.7  17.4   0.0   0.0
 1995 346   162  27.7  26.0  23.6  21.5  20.0  18.6  17.8  17.5   0.0   0.0
 1995 347   163  28.5  26.7  24.2  21.9  20.3  18.8  18.0  17.6   0.0   0.0
 1995 348   164  28.7  26.9  24.3  22.1  20.4  18.9  18.0  17.6   0.0   0.0
 1995 349   165  29.4  27.5  24.9  22.5  20.8  19.1  18.1  17.7   0.0   0.0
 1995 350   166  30.8  28.7  25.8  23.2  21.3  19.4  18.3  17.9   0.0   0.0
 1995 351   167  31.0  28.9  25.9  23.3  21.3  19.5  18.3  17.9   0.0   0.0
 1995 352   168  30.8  28.7  25.8  23.2  21.3  19.4  18.3  17.8   0.0   0.0
 1995 353   169  31.2  29.0  26.1  23.4  21.4  19.5  18.4  17.9   0.0   0.0
 1995 354   170  30.5  28.5  25.6  23.0  21.2  19.3  18.3  17.8   0.0   0.0
 1995 355   171  27.8  26.2  23.8  21.7  20.2  18.7  17.9  17.5   0.0   0.0
 1995 356   172  27.3  25.7  23.5  21.5  20.0  18.6  17.8  17.5   0.0   0.0
 1995 357   173  26.6  25.1  23.0  21.1  19.8  18.4  17.7  17.4   0.0   0.0
 1995 358   174  25.8  24.4  22.5  20.8  19.5  18.3  17.6  17.3   0.0   0.0
 1995 359   175  25.5  24.2  22.3  20.6  19.4  18.2  17.5  17.3   0.0   0.0
 1995 360   176  26.1  24.7  22.7  20.9  19.6  18.3  17.6  17.3   0.0   0.0
 1995 361   177  26.6  25.1  23.0  21.1  19.8  18.4  17.7  17.4   0.0   0.0
 1995 362   178  26.8  25.3  23.2  21.3  19.9  18.5  17.7  17.4   0.0   0.0
 1995 363   179  26.8  25.3  23.2  21.3  19.9  18.5  17.7  17.4   0.0   0.0
 1995 364   180  27.2  25.6  23.5  21.5  20.0  18.6  17.8  17.5   0.0   0.0
 1995 365   181  27.6  26.0  23.7  21.7  20.2  18.7  17.8  17.5   0.0   0.0
 1996 001   182  27.6  26.0  23.7  21.7  20.2  18.7  17.8  17.5   0.0   0.0
 1996 002   183  28.1  26.5  24.1  22.0  20.4  18.8  17.9  17.6   0.0   0.0
 1996 003   184  29.2  27.4  24.8  22.5  20.8  19.1  18.1  17.7   0.0   0.0
 1996 004   185  29.9  28.0  25.3  22.8  21.0  19.3  18.2  17.7   0.0   0.0
 1996 005   186  29.7  27.8  25.2  22.7  21.0  19.2  18.2  17.7   0.0   0.0
 1996 006   187  29.3  27.5  24.9  22.6  20.9  19.1  18.1  17.7   0.0   0.0
 1996 007   188  28.7  26.9  24.5  22.3  20.6  19.0  18.0  17.6   0.0   0.0
 1996 008   189  27.8  26.2  23.9  21.8  20.3  18.8  17.9  17.5   0.0   0.0
 1996 009   190  28.0  26.4  24.1  21.9  20.4  18.8  17.9  17.5   0.0   0.0
 1996 010   191  28.6  26.9  24.5  22.3  20.6  19.0  18.0  17.6   0.0   0.0
 1996 011   192  29.3  27.5  25.0  22.7  20.9  19.2  18.1  17.7   0.0   0.0
