*SOIL WATER DAILY OUTPUT FILE

*DSSAT Cropping System Model Ver. 4.0.2.000               Aug 01, 2016; 15:14:21

*RUN   1        : UYMZ                    
 MODEL          : MZCER040 - Maize           
 EXPERIMENT     : UYMZ0102 MZ    late to create DSS                             
 TREATMENT  1   : UYMZ                    

@YEAR DOY   DAS  SWXD   ROFC   DRNC   PREC  IR#C  IRRC  DTWT   SW1D   SW2D   SW3D   SW4D   SW5D   SW6D   SW7D   SW8D   SW9D   SW10
 1975 184     0   121      0      0      5     0     0   125  0.456  0.394  0.394  0.335  0.375  0.419  0.408  0.395  0.000  0.000
 1975 185     1   119      0      0      5     0     0   125  0.414  0.397  0.394  0.335  0.376  0.418  0.408  0.395  0.000  0.000
 1975 186     2   130      0      0     17     0     0   125  0.525  0.445  0.394  0.336  0.376  0.418  0.408  0.395  0.000  0.000
 1975 187     3   157      0      0     17     1    30   125  0.497  0.577  0.501  0.336  0.377  0.417  0.408  0.395  0.000  0.000
 1975 188     4   155      0      0     17     1    30   125  0.479  0.538  0.513  0.339  0.377  0.417  0.408  0.395  0.000  0.000
 1975 189     5   153      0      0     17     1    30   125  0.477  0.518  0.511  0.343  0.378  0.416  0.408  0.395  0.000  0.000
 1975 190     6   151      0      0     17     1    30   125  0.455  0.508  0.507  0.346  0.378  0.416  0.408  0.395  0.000  0.000
 1975 191     7   151      0      0     19     1    30   125  0.481  0.499  0.504  0.349  0.378  0.415  0.408  0.395  0.000  0.000
 1975 192     8   162      0      0     31     1    30   125  0.560  0.556  0.508  0.351  0.379  0.415  0.408  0.395  0.000  0.000
 1975 193     9   176      0      0     48     1    30   125  0.525  0.561  0.570  0.398  0.379  0.415  0.408  0.395  0.000  0.000
 1975 194    10   175      0      0     48     1    30   125  0.521  0.546  0.555  0.417  0.380  0.414  0.408  0.395  0.000  0.000
 1975 195    11   175      0      0     48     1    30   125  0.539  0.537  0.548  0.424  0.382  0.414  0.407  0.395  0.000  0.000
 1975 196    12   213      0      1     90     1    30   125  0.519  0.570  0.566  0.470  0.462  0.446  0.426  0.402  0.000  0.000
 1975 197    13   200      0     12     90     1    30   125  0.506  0.549  0.556  0.457  0.450  0.435  0.419  0.399  0.000  0.000
 1975 198    14   198      0     13     90     1    30   125  0.504  0.534  0.550  0.453  0.448  0.432  0.423  0.404  0.000  0.000
 1975 199    15   191      0     19     90     1    30   125  0.497  0.528  0.544  0.447  0.441  0.427  0.417  0.400  0.000  0.000
 1975 200    16   185      0     22     90     1    30   125  0.473  0.524  0.540  0.443  0.437  0.424  0.413  0.398  0.000  0.000
 1975 201    17   182      0     24     90     1    30   125  0.469  0.517  0.536  0.441  0.435  0.422  0.411  0.397  0.000  0.000
 1975 202    18   181      0     24     90     1    30   125  0.469  0.512  0.532  0.440  0.433  0.421  0.411  0.398  0.000  0.000
 1975 203    19   179      0     24     90     1    30   125  0.469  0.508  0.529  0.439  0.433  0.421  0.410  0.398  0.000  0.000
 1975 204    20   179      0     24     90     1    30   125  0.469  0.506  0.527  0.438  0.433  0.421  0.410  0.398  0.000  0.000
 1975 205    21   178      0     24     91     1    30   125  0.469  0.503  0.524  0.437  0.433  0.421  0.410  0.398  0.000  0.000
 1975 206    22   178      0     24     92     1    30   125  0.488  0.501  0.522  0.436  0.433  0.421  0.410  0.398  0.000  0.000
 1975 207    23   177      0     24     92     1    30   125  0.479  0.502  0.521  0.435  0.433  0.421  0.410  0.398  0.000  0.000
 1975 208    24   177      0     24     92     1    30   125  0.476  0.502  0.519  0.434  0.433  0.421  0.410  0.398  0.000  0.000
 1975 209    25   180      0     24     96     1    30   125  0.541  0.504  0.518  0.433  0.432  0.421  0.410  0.398  0.000  0.000
 1975 210    26   179      0     24     96     1    30   125  0.503  0.517  0.519  0.432  0.432  0.421  0.410  0.398  0.000  0.000
 1975 211    27   178      0     24     96     1    30   125  0.497  0.514  0.519  0.431  0.432  0.421  0.410  0.398  0.000  0.000
 1975 212    28   178      0     24     96     1    30   125  0.491  0.511  0.519  0.431  0.431  0.421  0.410  0.398  0.000  0.000
 1975 213    29   177      0     24     97     1    30   125  0.488  0.508  0.518  0.430  0.431  0.421  0.410  0.398  0.000  0.000
 1975 214    30   176      0     24     97     1    30   125  0.485  0.506  0.517  0.430  0.431  0.421  0.410  0.398  0.000  0.000
 1975 215    31   176      0     24     97     1    30   125  0.482  0.504  0.516  0.429  0.430  0.421  0.410  0.398  0.000  0.000
 1975 216    32   175      0     24     97     1    30   125  0.480  0.502  0.515  0.429  0.430  0.421  0.410  0.398  0.000  0.000
 1975 217    33   175      0     24     97     1    30   125  0.478  0.500  0.514  0.428  0.430  0.421  0.410  0.398  0.000  0.000
 1975 218    34   174      0     24     97     1    30   125  0.477  0.498  0.513  0.428  0.429  0.421  0.410  0.398  0.000  0.000
 1975 219    35   174      0     24     97     1    30   125  0.476  0.497  0.512  0.427  0.429  0.421  0.410  0.398  0.000  0.000
 1975 220    36   173      0     24     97     1    30   125  0.474  0.496  0.511  0.427  0.429  0.421  0.410  0.398  0.000  0.000
 1975 221    37   182      0     24    107     1    30   125  0.558  0.547  0.513  0.426  0.428  0.421  0.410  0.398  0.000  0.000
 1975 222    38   202      0     25    128     1    30   125  0.549  0.561  0.573  0.470  0.444  0.423  0.412  0.398  0.000  0.000
 1975 223    39   215      0     26    143     1    30   125  0.545  0.568  0.568  0.470  0.460  0.445  0.428  0.405  0.000  0.000
 1975 224    40   215      0     28    149     1    30   125  0.509  0.568  0.568  0.470  0.460  0.443  0.436  0.413  0.000  0.000
 1975 225    41   200      0     40    149     1    30   125  0.478  0.544  0.557  0.457  0.449  0.433  0.425  0.406  0.000  0.000
 1975 226    42   193      0     47    149     1    30   125  0.505  0.528  0.548  0.449  0.442  0.427  0.418  0.401  0.000  0.000
 1975 227    43   195      0     48    153     1    30   125  0.562  0.535  0.542  0.446  0.441  0.426  0.419  0.403  0.000  0.000
 1975 228    44   192      0     49    153     1    30   125  0.519  0.544  0.541  0.443  0.439  0.425  0.418  0.404  0.000  0.000
 1975 229    45   187      0     52    153     1    30   125  0.493  0.536  0.540  0.441  0.436  0.422  0.414  0.401  0.000  0.000
 1975 230    46   184      0     52    153     1    30   125  0.471  0.526  0.537  0.440  0.434  0.422  0.413  0.401  0.000  0.000
 1975 231    47   182      0     53    153     1    30   125  0.472  0.517  0.534  0.440  0.434  0.422  0.411  0.398  0.000  0.000
 1975 232    48   180      0     54    153     1    30   125  0.472  0.512  0.531  0.439  0.434  0.422  0.410  0.398  0.000  0.000
 1975 233    49   182      0     54    158     1    30   125  0.518  0.511  0.528  0.438  0.434  0.422  0.410  0.398  0.000  0.000
 1975 234    50   198      0     54    175     1    30   125  0.543  0.573  0.567  0.450  0.438  0.422  0.411  0.398  0.000  0.000
 1975 235    51   222      1     62    209     1    30   125  0.543  0.568  0.568  0.470  0.460  0.447  0.439  0.432  0.000  0.000
 1975 236    52   206      1     76    209     1    30   125  0.502  0.557  0.557  0.457  0.449  0.436  0.427  0.417  0.000  0.000
 1975 237    53   210      1     79    217     1    30   125  0.566  0.559  0.564  0.458  0.450  0.433  0.428  0.417  0.000  0.000
 1975 238    54   218      1     82    231     1    30   125  0.507  0.567  0.568  0.470  0.460  0.446  0.438  0.421  0.000  0.000
 1975 239    55   203      1     95    231     1    30   125  0.495  0.543  0.557  0.457  0.449  0.435  0.426  0.411  0.000  0.000
 1975 240    56   199      1     97    232     1    30   125  0.498  0.529  0.548  0.453  0.448  0.432  0.427  0.413  0.000  0.000
 1975 241    57   189      1    103    232     1    30   125  0.457  0.524  0.541  0.447  0.441  0.427  0.420  0.406  0.000  0.000
 1975 242    58   186      1    105    232     1    30   125  0.460  0.515  0.536  0.443  0.439  0.425  0.419  0.406  0.000  0.000
 1975 243    59   184      1    106    232     1    30   125  0.461  0.509  0.532  0.440  0.437  0.424  0.418  0.406  0.000  0.000
 1975 244    60   182      1    107    232     1    30   125  0.462  0.505  0.528  0.439  0.435  0.423  0.417  0.405  0.000  0.000
 1975 245    61   179      1    109    232     1    30   125  0.461  0.501  0.525  0.438  0.433  0.421  0.413  0.401  0.000  0.000
 1975 246    62   177      1    110    232     1    30   125  0.460  0.498  0.522  0.437  0.433  0.421  0.411  0.399  0.000  0.000
 1975 247    63   176      1    110    232     1    30   125  0.459  0.495  0.519  0.435  0.433  0.421  0.410  0.398  0.000  0.000
 1975 248    64   175      1    110    232     1    30   125  0.458  0.493  0.517  0.434  0.433  0.421  0.410  0.398  0.000  0.000
 1975 249    65   194      1    111    254     1    30   125  0.551  0.566  0.559  0.442  0.434  0.421  0.410  0.398  0.000  0.000
 1975 250    66   188      1    113    254     1    30   125  0.483  0.555  0.551  0.441  0.433  0.421  0.410  0.398  0.000  0.000
 1975 251    67   186      1    114    254     1    30   125  0.501  0.531  0.546  0.441  0.433  0.421  0.410  0.398  0.000  0.000
 1975 252    68   185      1    114    254     1    30   125  0.501  0.525  0.540  0.440  0.433  0.422  0.410  0.398  0.000  0.000
 1975 253    69   182      1    114    254     1    30   125  0.472  0.522  0.536  0.440  0.433  0.422  0.410  0.398  0.000  0.000
 1975 254    70   180      1    114    254     1    30   125  0.462  0.513  0.532  0.439  0.433  0.422  0.410  0.398  0.000  0.000
 1975 255    71   180      1    114    255     1    30   125  0.476  0.507  0.528  0.438  0.433  0.422  0.410  0.398  0.000  0.000
 1975 256    72   180      1    114    257     1    30   125  0.497  0.504  0.524  0.437  0.433  0.422  0.410  0.398  0.000  0.000
 1975 257    73   179      1    114    258     1    30   125  0.488  0.505  0.522  0.436  0.433  0.422  0.410  0.398  0.000  0.000
 1975 258    74   177      1    114    258     1    30   125  0.472  0.503  0.519  0.435  0.433  0.422  0.410  0.398  0.000  0.000
 1975 259    75   175      1    114    258     1    30   125  0.464  0.498  0.516  0.434  0.433  0.422  0.410  0.398  0.000  0.000
 1975 260    76   174      1    114    258     1    30   125  0.457  0.493  0.512  0.432  0.432  0.422  0.410  0.398  0.000  0.000
 1975 261    77   173      1    114    258     1    30   125  0.453  0.489  0.510  0.431  0.432  0.422  0.410  0.398  0.000  0.000
 1975 262    78   172      1    114    259     1    30   125  0.450  0.486  0.508  0.430  0.432  0.422  0.410  0.398  0.000  0.000
 1975 263    79   183      1    114    275     1    30   125  0.512  0.562  0.517  0.429  0.431  0.422  0.410  0.398  0.000  0.000
 1975 264    80   180      1    114    275     1    30   125  0.486  0.533  0.523  0.428  0.431  0.422  0.410  0.398  0.000  0.000
 1975 265    81   177      1    114    275     1    30   125  0.474  0.515  0.519  0.428  0.430  0.422  0.410  0.398  0.000  0.000
 1975 266    82   173      1    114    275     1    30   125  0.443  0.503  0.514  0.427  0.430  0.422  0.410  0.398  0.000  0.000
 1975 267    83   171      1    114    275     1    30   125  0.434  0.493  0.510  0.426  0.430  0.422  0.410  0.398  0.000  0.000
 1975 268    84   168      1    114    275     1    30   125  0.427  0.484  0.504  0.425  0.429  0.422  0.410  0.398  0.000  0.000
 1975 269    85   166      1    114    275     1    30   125  0.421  0.476  0.499  0.423  0.429  0.422  0.410  0.398  0.000  0.000
 1975 270    86   165      1    114    275     1    30   125  0.416  0.471  0.496  0.422  0.428  0.422  0.410  0.398  0.000  0.000
 1975 271    87   163      1    114    275     1    30   125  0.412  0.466  0.492  0.421  0.428  0.422  0.410  0.398  0.000  0.000
 1975 272    88   183      1    114    296     1    30   125  0.558  0.564  0.509  0.420  0.427  0.421  0.410  0.398  0.000  0.000
 1975 273    89   214      2    116    334     1    30   125  0.501  0.556  0.568  0.469  0.460  0.447  0.436  0.409  0.000  0.000
 1975 274    90   198      2    128    334     1    30   125  0.471  0.530  0.552  0.455  0.448  0.436  0.425  0.403  0.000  0.000
 1975 275    91   190      2    134    334     1    30   125  0.489  0.518  0.541  0.448  0.441  0.429  0.418  0.400  0.000  0.000
 1975 276    92   182      2    138    334     1    30   125  0.448  0.512  0.532  0.442  0.437  0.425  0.414  0.398  0.000  0.000
 1975 277    93   177      2    139    334     1    30   125  0.439  0.501  0.524  0.438  0.434  0.423  0.412  0.398  0.000  0.000
 1975 278    94   173      2    140    334     1    30   125  0.433  0.492  0.517  0.434  0.433  0.421  0.410  0.398  0.000  0.000
 1975 279    95   171      2    140    334     1    30   125  0.428  0.485  0.512  0.432  0.432  0.421  0.410  0.398  0.000  0.000
 1975 280    96   169      2    140    335     1    30   125  0.424  0.478  0.506  0.429  0.431  0.421  0.410  0.398  0.000  0.000
 1975 281    97   166      2    140    335     1    30   125  0.419  0.470  0.499  0.425  0.430  0.421  0.410  0.398  0.000  0.000
 1975 282    98   163      2    140    335     1    30   125  0.413  0.463  0.492  0.421  0.429  0.421  0.410  0.398  0.000  0.000
 1975 283    99   161      2    140    335     1    30   125  0.408  0.456  0.486  0.418  0.427  0.421  0.410  0.398  0.000  0.000
 1975 284   100   158      2    140    335     1    30   125  0.402  0.451  0.481  0.415  0.426  0.421  0.410  0.398  0.000  0.000
 1975 285   101   156      2    140    335     1    30   125  0.397  0.446  0.476  0.412  0.424  0.421  0.410  0.398  0.000  0.000
 1975 286   102   154      2    140    335     1    30   125  0.393  0.442  0.472  0.409  0.422  0.421  0.410  0.398  0.000  0.000
 1975 287   103   152      2    140    336     1    30   125  0.404  0.436  0.466  0.405  0.420  0.421  0.410  0.398  0.000  0.000
 1975 288   104   149      2    140    336     1    30   125  0.396  0.430  0.460  0.400  0.417  0.421  0.410  0.398  0.000  0.000
 1975 289   105   146      2    140    336     1    30   125  0.388  0.426  0.453  0.395  0.414  0.420  0.410  0.398  0.000  0.000
 1975 290   106   171      2    140    336     2    60   125  0.519  0.563  0.491  0.388  0.411  0.420  0.410  0.398  0.000  0.000
 1975 291   107   165      2    140    336     2    60   125  0.486  0.530  0.496  0.385  0.407  0.420  0.410  0.398  0.000  0.000
 1975 292   108   170      2    140    345     2    60   125  0.547  0.549  0.503  0.384  0.404  0.420  0.410  0.398  0.000  0.000
 1975 293   109   168      2    140    348     2    60   125  0.532  0.540  0.506  0.383  0.401  0.419  0.410  0.398  0.000  0.000
 1975 294   110   164      2    140    348     2    60   125  0.499  0.524  0.502  0.381  0.398  0.419  0.410  0.398  0.000  0.000
 1975 295   111   162      2    140    351     2    60   125  0.531  0.512  0.495  0.379  0.394  0.418  0.410  0.398  0.000  0.000
 1975 296   112   157      2    140    351     2    60   125  0.478  0.508  0.489  0.377  0.389  0.417  0.410  0.398  0.000  0.000
 1975 297   113   153      2    140    351     2    60   125  0.460  0.494  0.484  0.375  0.386  0.417  0.410  0.398  0.000  0.000
 1975 298   114   148      2    140    351     2    60   125  0.439  0.481  0.477  0.374  0.383  0.416  0.410  0.398  0.000  0.000
 1975 299   115   146      2    140    351     2    60   125  0.434  0.473  0.473  0.373  0.382  0.415  0.410  0.398  0.000  0.000
 1975 300   116   146      2    140    355     2    60   125  0.496  0.463  0.466  0.372  0.380  0.414  0.410  0.398  0.000  0.000
 1975 301   117   142      2    140    355     2    60   125  0.458  0.461  0.459  0.370  0.377  0.413  0.410  0.398  0.000  0.000
 1975 302   118   138      2    140    356     2    60   125  0.440  0.451  0.450  0.367  0.374  0.411  0.410  0.398  0.000  0.000
 1975 303   119   132      2    140    356     2    60   125  0.411  0.441  0.440  0.365  0.371  0.409  0.410  0.398  0.000  0.000
 1975 304   120   156      2    140    356     3    90   125  0.546  0.556  0.490  0.362  0.369  0.406  0.409  0.398  0.000  0.000
 1975 305   121   151      2    140    356     3    90   125  0.513  0.533  0.490  0.362  0.367  0.403  0.409  0.398  0.000  0.000
 1975 306   122   145      2    140    356     3    90   125  0.497  0.511  0.483  0.361  0.365  0.399  0.409  0.398  0.000  0.000
 1975 307   123   140      2    140    356     3    90   125  0.476  0.496  0.475  0.361  0.363  0.395  0.409  0.398  0.000  0.000
 1975 308   124   136      2    140    356     3    90   125  0.463  0.484  0.469  0.360  0.362  0.392  0.408  0.398  0.000  0.000
 1975 309   125   134      2    140    356     3    90   125  0.458  0.475  0.465  0.360  0.362  0.390  0.408  0.398  0.000  0.000
 1975 310   126   131      2    140    356     3    90   125  0.452  0.468  0.460  0.360  0.361  0.389  0.408  0.398  0.000  0.000
 1975 311   127   130      2    140    356     3    90   125  0.449  0.463  0.457  0.360  0.361  0.388  0.407  0.398  0.000  0.000
 1975 312   128   129      2    140    358     3    90   125  0.488  0.455  0.450  0.359  0.360  0.386  0.407  0.398  0.000  0.000
 1975 313   129   123      2    140    358     3    90   125  0.454  0.448  0.439  0.357  0.358  0.382  0.406  0.398  0.000  0.000
 1975 314   130   118      2    140    358     3    90   125  0.429  0.437  0.429  0.355  0.357  0.378  0.406  0.398  0.000  0.000
 1975 315   131   143      2    140    358     4   120   125  0.549  0.556  0.491  0.353  0.355  0.374  0.406  0.398  0.000  0.000
 1975 316   132   137      2    140    358     4   120   125  0.521  0.530  0.488  0.353  0.353  0.370  0.405  0.398  0.000  0.000
 1975 317   133   131      2    140    358     4   120   125  0.503  0.509  0.478  0.353  0.352  0.367  0.405  0.398  0.000  0.000
 1975 318   134   125      2    140    358     4   120   125  0.478  0.490  0.465  0.352  0.350  0.364  0.404  0.397  0.000  0.000
 1975 319   135   123      2    140    358     4   120   125  0.475  0.482  0.461  0.353  0.350  0.363  0.404  0.397  0.000  0.000
 1975 320   136   180      2    140    418     4   120   125  0.558  0.559  0.562  0.470  0.435  0.363  0.403  0.397  0.000  0.000
 1975 321   137   174      2    140    418     4   120   125  0.534  0.545  0.547  0.450  0.425  0.377  0.401  0.397  0.000  0.000
 1975 322   138   169      2    140    418     4   120   125  0.525  0.535  0.538  0.439  0.425  0.375  0.399  0.397  0.000  0.000
 1975 323   139   163      2    140    418     4   120   125  0.516  0.526  0.531  0.431  0.418  0.373  0.394  0.397  0.000  0.000
 1975 324   140   158      2    140    418     4   120   125  0.510  0.520  0.525  0.426  0.413  0.372  0.389  0.396  0.000  0.000
 1975 325   141   154      2    140    420     4   120   125  0.524  0.512  0.518  0.420  0.406  0.371  0.384  0.396  0.000  0.000
 1975 326   142   148      2    140    420     4   120   125  0.501  0.510  0.512  0.413  0.400  0.369  0.378  0.396  0.000  0.000
 1975 327   143   145      2    140    421     4   120   125  0.522  0.503  0.505  0.408  0.395  0.368  0.375  0.395  0.000  0.000
 1975 328   144   139      2    140    421     4   120   125  0.495  0.501  0.498  0.401  0.388  0.366  0.371  0.394  0.000  0.000
 1975 329   145   133      2    140    421     4   120   125  0.480  0.492  0.490  0.393  0.382  0.364  0.368  0.394  0.000  0.000
 1975 330   146   127      2    140    421     4   120   125  0.467  0.481  0.482  0.385  0.378  0.363  0.365  0.393  0.000  0.000
 1975 331   147   121      2    140    421     4   120   125  0.453  0.470  0.472  0.379  0.374  0.361  0.362  0.392  0.000  0.000
 1975 332   148   118      2    140    421     4   120   125  0.448  0.464  0.467  0.377  0.372  0.360  0.361  0.392  0.000  0.000
 1975 333   149   116      2    140    423     4   120   125  0.480  0.456  0.460  0.374  0.370  0.359  0.360  0.391  0.000  0.000
 1975 334   150   112      2    140    424     4   120   125  0.471  0.449  0.450  0.370  0.367  0.358  0.358  0.390  0.000  0.000
 1975 335   151   106      2    140    424     4   120   125  0.445  0.440  0.439  0.366  0.364  0.356  0.356  0.390  0.000  0.000
 1975 336   152    99      2    140    424     4   120   125  0.420  0.428  0.426  0.362  0.361  0.354  0.353  0.389  0.000  0.000
 1975 337   153   126      2    140    424     5   152   125  0.552  0.558  0.488  0.358  0.358  0.352  0.351  0.388  0.000  0.000
 1975 338   154   119      2    140    424     5   152   125  0.524  0.530  0.485  0.358  0.356  0.350  0.349  0.386  0.000  0.000
 1975 339   155   117      2    140    424     5   152   125  0.518  0.516  0.481  0.358  0.355  0.350  0.348  0.384  0.000  0.000
 1975 340   156   110      2    140    424     5   152   125  0.493  0.499  0.470  0.357  0.353  0.348  0.347  0.381  0.000  0.000
 1975 341   157   121      2    140    440     5   152   125  0.549  0.552  0.494  0.356  0.351  0.347  0.346  0.378  0.000  0.000
 1975 342   158   131      2    140    455     5   152   125  0.551  0.551  0.558  0.370  0.350  0.346  0.345  0.375  0.000  0.000
 1975 343   159   132      2    140    461     5   152   125  0.545  0.556  0.552  0.389  0.349  0.345  0.344  0.370  0.000  0.000
 1975 344   160   125      2    140    461     5   152   125  0.523  0.543  0.532  0.389  0.348  0.344  0.343  0.365  0.000  0.000
 1975 345   161   119      2    140    461     5   152   125  0.517  0.525  0.519  0.382  0.348  0.343  0.342  0.361  0.000  0.000
 1975 346   162   112      2    140    461     5   152   125  0.500  0.510  0.506  0.377  0.347  0.342  0.341  0.357  0.000  0.000
 1975 347   163   106      2    140    461     5   152   125  0.483  0.496  0.493  0.372  0.346  0.341  0.339  0.353  0.000  0.000
 1975 348   164   100      2    140    461     5   152   125  0.464  0.481  0.479  0.369  0.345  0.341  0.338  0.350  0.000  0.000
 1975 349   165    94      2    140    461     5   152   125  0.447  0.466  0.466  0.365  0.344  0.340  0.337  0.346  0.000  0.000
 1975 350   166    88      2    140    461     5   152   125  0.429  0.453  0.454  0.362  0.344  0.339  0.336  0.343  0.000  0.000
 1975 351   167    82      2    140    461     5   152   125  0.411  0.436  0.438  0.359  0.342  0.338  0.335  0.340  0.000  0.000
 1975 352   168   104      2    140    461     6   183   125  0.552  0.550  0.480  0.355  0.341  0.337  0.334  0.336  0.000  0.000
 1975 353   169   101      2    140    461     6   183   125  0.532  0.529  0.480  0.355  0.341  0.336  0.333  0.335  0.000  0.000
 1975 354   170   100      2    140    467     6   183   125  0.540  0.537  0.476  0.354  0.340  0.335  0.332  0.333  0.000  0.000
 1975 355   171    94      2    140    467     6   183   125  0.510  0.514  0.465  0.352  0.339  0.335  0.331  0.330  0.000  0.000
 1975 356   172    88      2    140    467     6   183   125  0.487  0.494  0.453  0.351  0.338  0.334  0.330  0.329  0.000  0.000
 1975 357   173    82      2    140    467     6   183   125  0.465  0.475  0.441  0.350  0.337  0.333  0.329  0.327  0.000  0.000
 1975 358   174    77      2    140    468     6   183   125  0.467  0.457  0.427  0.348  0.336  0.332  0.328  0.325  0.000  0.000
 1975 359   175    71      2    140    468     6   183   125  0.437  0.440  0.418  0.346  0.335  0.332  0.327  0.324  0.000  0.000
 1975 360   176   100      2    140    469     7   214   125  0.549  0.554  0.500  0.345  0.334  0.331  0.327  0.322  0.000  0.000
 1975 361   177   100      2    140    473     7   214   125  0.551  0.549  0.504  0.346  0.334  0.331  0.326  0.322  0.000  0.000
 1975 362   178    95      2    140    475     7   214   125  0.538  0.531  0.496  0.347  0.333  0.330  0.325  0.320  0.000  0.000
 1975 363   179    89      2    140    475     7   214   125  0.501  0.511  0.481  0.347  0.332  0.329  0.324  0.319  0.000  0.000
 1975 364   180    81      2    140    475     7   214   125  0.471  0.487  0.464  0.346  0.332  0.328  0.323  0.318  0.000  0.000
 1975 365   181    73      2    140    475     7   214   125  0.438  0.463  0.444  0.345  0.331  0.328  0.323  0.316  0.000  0.000
 1976 001   182    66      2    140    475     7   214   125  0.409  0.442  0.427  0.343  0.330  0.327  0.322  0.315  0.000  0.000
 1976 002   183    92      2    140    475     8   245   125  0.552  0.545  0.486  0.341  0.329  0.326  0.321  0.314  0.000  0.000
 1976 003   184    87      2    140    475     8   245   125  0.522  0.523  0.479  0.342  0.329  0.326  0.320  0.313  0.000  0.000
 1976 004   185    90      2    140    485     8   245   125  0.536  0.546  0.485  0.342  0.328  0.325  0.320  0.313  0.000  0.000
 1976 005   186    89      2    140    486     8   245   125  0.542  0.529  0.485  0.343  0.328  0.325  0.320  0.312  0.000  0.000
 1976 006   187   103      2    140    506     8   245   125  0.523  0.551  0.556  0.362  0.328  0.324  0.319  0.312  0.000  0.000
 1976 007   188    96      2    140    506     8   245   125  0.505  0.524  0.531  0.371  0.327  0.324  0.318  0.311  0.000  0.000
 1976 008   189    93      2    140    506     8   245   125  0.499  0.514  0.519  0.371  0.328  0.324  0.318  0.310  0.000  0.000
 1976 009   190    92      2    140    507     8   245   125  0.521  0.507  0.510  0.371  0.328  0.324  0.318  0.310  0.000  0.000
 1976 010   191   104      2    140    524     8   245   125  0.532  0.562  0.545  0.379  0.328  0.323  0.318  0.310  0.000  0.000
 1976 011   192    97      2    140    524     8   245   125  0.501  0.535  0.527  0.380  0.328  0.323  0.317  0.309  0.000  0.000
 1976 012   193    92      2    140    524     8   245   125  0.490  0.513  0.513  0.376  0.328  0.322  0.317  0.309  0.000  0.000
 1976 013   194    89      2    140    524     8   245   125  0.488  0.503  0.505  0.375  0.328  0.322  0.317  0.308  0.000  0.000
 1976 014   195   147      2    140    585     8   245   125  0.558  0.560  0.560  0.469  0.461  0.344  0.316  0.308  0.000  0.000
 1976 015   196   141      2    140    586     8   245   125  0.517  0.548  0.549  0.454  0.450  0.353  0.316  0.308  0.000  0.000
 1976 016   197   134      2    140    586     8   245   125  0.496  0.528  0.537  0.440  0.433  0.362  0.316  0.308  0.000  0.000
 1976 017   198   127      2    140    586     8   245   125  0.474  0.514  0.527  0.431  0.425  0.360  0.316  0.307  0.000  0.000
 1976 018   199   121      2    140    586     8   245   125  0.463  0.502  0.518  0.424  0.418  0.359  0.316  0.307  0.000  0.000

*DSSAT Cropping System Model Ver. 4.0.2.000               Aug 01, 2016; 15:14:21

*RUN   2        : UYMZ                    
 MODEL          : MZCER040 - Maize           
 EXPERIMENT     : UYMZ0102 MZ    late to create DSS                             
 TREATMENT  1   : UYMZ                    

@YEAR DOY   DAS  SWXD   ROFC   DRNC   PREC  IR#C  IRRC  DTWT   SW1D   SW2D   SW3D   SW4D   SW5D   SW6D   SW7D   SW8D   SW9D   SW10
 1976 184     0   116      0      0      0     0     0   125  0.358  0.394  0.394  0.335  0.375  0.419  0.408  0.395  0.000  0.000
 1976 185     1   115      0      0      0     0     0   125  0.331  0.393  0.394  0.335  0.376  0.418  0.408  0.395  0.000  0.000
 1976 186     2   112      0      0      0     0     0   125  0.290  0.392  0.394  0.336  0.376  0.418  0.408  0.395  0.000  0.000
 1976 187     3   154      0      0      0     1    44   125  0.532  0.566  0.476  0.336  0.377  0.417  0.408  0.395  0.000  0.000
 1976 188     4   153      0      0      0     1    44   125  0.503  0.542  0.488  0.338  0.377  0.417  0.408  0.395  0.000  0.000
 1976 189     5   151      0      0      0     1    44   125  0.498  0.521  0.490  0.341  0.378  0.416  0.408  0.395  0.000  0.000
 1976 190     6   149      0      0      0     1    44   125  0.486  0.511  0.490  0.343  0.378  0.416  0.408  0.395  0.000  0.000
 1976 191     7   147      0      0      0     1    44   125  0.457  0.503  0.489  0.345  0.378  0.415  0.408  0.395  0.000  0.000
 1976 192     8   146      0      0      0     1    44   125  0.442  0.494  0.488  0.348  0.379  0.415  0.408  0.395  0.000  0.000
 1976 193     9   145      0      0      0     1    44   125  0.434  0.486  0.486  0.350  0.379  0.415  0.408  0.395  0.000  0.000
 1976 194    10   144      0      0      0     1    44   125  0.429  0.480  0.484  0.352  0.379  0.414  0.408  0.395  0.000  0.000
 1976 195    11   143      0      0      0     1    44   125  0.424  0.475  0.482  0.354  0.380  0.414  0.407  0.395  0.000  0.000
 1976 196    12   142      0      0      0     1    44   125  0.420  0.470  0.480  0.355  0.380  0.414  0.407  0.395  0.000  0.000
 1976 197    13   141      0      0      0     1    44   125  0.416  0.466  0.478  0.357  0.381  0.413  0.407  0.395  0.000  0.000
 1976 198    14   141      0      0      0     1    44   125  0.413  0.463  0.476  0.358  0.381  0.413  0.407  0.395  0.000  0.000
 1976 199    15   140      0      0      0     1    44   125  0.410  0.460  0.474  0.360  0.381  0.413  0.407  0.395  0.000  0.000
 1976 200    16   139      0      0      0     1    44   125  0.407  0.457  0.472  0.361  0.382  0.412  0.407  0.395  0.000  0.000
 1976 201    17   139      0      0      0     1    44   125  0.404  0.454  0.470  0.362  0.382  0.412  0.407  0.395  0.000  0.000
 1976 202    18   138      0      0      0     1    44   125  0.401  0.452  0.469  0.364  0.382  0.412  0.407  0.395  0.000  0.000
 1976 203    19   138      0      0      0     1    44   125  0.399  0.450  0.467  0.365  0.383  0.411  0.407  0.395  0.000  0.000
 1976 204    20   137      0      0      0     1    44   125  0.396  0.447  0.465  0.365  0.383  0.411  0.407  0.395  0.000  0.000
 1976 205    21   143      0      0      8     1    44   125  0.519  0.446  0.464  0.366  0.383  0.411  0.407  0.395  0.000  0.000
 1976 206    22   186      0      0     52     1    44   125  0.517  0.578  0.567  0.453  0.393  0.411  0.407  0.395  0.000  0.000
 1976 207    23   186      0      0     52     1    44   125  0.526  0.553  0.563  0.454  0.406  0.411  0.407  0.395  0.000  0.000
 1976 208    24   186      0      0     55     1    44   125  0.529  0.546  0.557  0.453  0.418  0.410  0.406  0.395  0.000  0.000
 1976 209    25   183      0      0     55     1    44   125  0.486  0.539  0.551  0.446  0.431  0.410  0.406  0.395  0.000  0.000
 1976 210    26   182      0      0     55     1    44   125  0.499  0.526  0.544  0.443  0.431  0.414  0.406  0.395  0.000  0.000
 1976 211    27   181      0      0     55     1    44   125  0.494  0.524  0.540  0.441  0.431  0.415  0.406  0.395  0.000  0.000
 1976 212    28   179      0      0     55     1    44   125  0.481  0.521  0.536  0.440  0.431  0.415  0.406  0.395  0.000  0.000
 1976 213    29   177      0      0     55     1    44   125  0.470  0.516  0.533  0.440  0.431  0.415  0.406  0.394  0.000  0.000
 1976 214    30   177      0      0     55     1    44   125  0.475  0.511  0.530  0.439  0.431  0.415  0.406  0.394  0.000  0.000
 1976 215    31   200      0      0     80     1    44   125  0.567  0.565  0.565  0.469  0.447  0.421  0.406  0.394  0.000  0.000
 1976 216    32   201      0      0     81     1    44   125  0.551  0.563  0.562  0.464  0.451  0.424  0.410  0.396  0.000  0.000
 1976 217    33   200      0      0     81     1    44   125  0.531  0.556  0.558  0.460  0.452  0.426  0.414  0.398  0.000  0.000
 1976 218    34   214      0      1     98     1    44   125  0.557  0.563  0.568  0.470  0.460  0.442  0.427  0.405  0.000  0.000
 1976 219    35   218      0      4    107     1    44   125  0.510  0.568  0.568  0.470  0.460  0.447  0.439  0.417  0.000  0.000
 1976 220    36   202      0     17    107     1    44   125  0.481  0.544  0.557  0.457  0.449  0.436  0.427  0.408  0.000  0.000
 1976 221    37   194      0     25    107     1    44   125  0.507  0.528  0.548  0.449  0.442  0.429  0.419  0.403  0.000  0.000
 1976 222    38   196      0     26    111     1    44   125  0.562  0.537  0.542  0.446  0.441  0.427  0.420  0.405  0.000  0.000
 1976 223    39   192      0     27    112     1    44   125  0.499  0.545  0.541  0.443  0.439  0.425  0.420  0.406  0.000  0.000
 1976 224    40   187      0     30    112     1    44   125  0.499  0.531  0.540  0.441  0.436  0.423  0.415  0.402  0.000  0.000
 1976 225    41   188      0     31    115     1    44   125  0.530  0.529  0.537  0.440  0.434  0.422  0.414  0.401  0.000  0.000
 1976 226    42   186      0     32    116     1    44   125  0.508  0.532  0.536  0.440  0.434  0.422  0.412  0.400  0.000  0.000
 1976 227    43   183      0     32    116     1    44   125  0.475  0.526  0.535  0.439  0.434  0.422  0.410  0.398  0.000  0.000
 1976 228    44   181      0     33    116     1    44   125  0.475  0.517  0.532  0.439  0.434  0.422  0.410  0.397  0.000  0.000
 1976 229    45   180      0     33    116     1    44   125  0.473  0.511  0.529  0.438  0.434  0.422  0.410  0.397  0.000  0.000
 1976 230    46   179      0     33    116     1    44   125  0.472  0.508  0.527  0.437  0.434  0.422  0.410  0.397  0.000  0.000
 1976 231    47   178      0     33    116     1    44   125  0.471  0.505  0.524  0.436  0.434  0.422  0.410  0.397  0.000  0.000
 1976 232    48   177      0     33    116     1    44   125  0.470  0.502  0.522  0.435  0.433  0.422  0.410  0.397  0.000  0.000
 1976 233    49   176      0     33    116     1    44   125  0.469  0.500  0.520  0.434  0.433  0.422  0.410  0.397  0.000  0.000
 1976 234    50   176      0     33    116     1    44   125  0.468  0.498  0.518  0.433  0.433  0.422  0.410  0.397  0.000  0.000
 1976 235    51   175      0     33    116     1    44   125  0.467  0.496  0.517  0.432  0.433  0.422  0.410  0.397  0.000  0.000
 1976 236    52   175      0     33    116     1    44   125  0.466  0.495  0.515  0.431  0.432  0.422  0.410  0.397  0.000  0.000
 1976 237    53   174      0     33    116     1    44   125  0.466  0.493  0.513  0.430  0.432  0.422  0.410  0.397  0.000  0.000
 1976 238    54   199      0     33    142     1    44   125  0.557  0.567  0.566  0.456  0.439  0.422  0.412  0.398  0.000  0.000
 1976 239    55   198      0     33    143     1    44   125  0.536  0.560  0.561  0.456  0.443  0.423  0.413  0.399  0.000  0.000
 1976 240    56   200      0     34    146     1    44   125  0.544  0.562  0.560  0.456  0.445  0.425  0.415  0.400  0.000  0.000
 1976 241    57   201      0     35    152     1    44   125  0.505  0.567  0.567  0.459  0.448  0.426  0.416  0.402  0.000  0.000
 1976 242    58   191      0     41    152     1    44   125  0.469  0.542  0.556  0.451  0.441  0.423  0.413  0.399  0.000  0.000
 1976 243    59   184      0     45    152     1    44   125  0.450  0.523  0.546  0.446  0.437  0.421  0.411  0.397  0.000  0.000
 1976 244    60   182      0     45    152     1    44   125  0.454  0.514  0.539  0.443  0.437  0.422  0.412  0.398  0.000  0.000
 1976 245    61   180      0     46    152     1    44   125  0.456  0.509  0.534  0.441  0.435  0.422  0.410  0.398  0.000  0.000
 1976 246    62   204      0     46    177     1    44   125  0.563  0.565  0.564  0.469  0.450  0.424  0.413  0.399  0.000  0.000
 1976 247    63   202      0     47    180     1    44   125  0.501  0.566  0.563  0.465  0.453  0.427  0.416  0.401  0.000  0.000
 1976 248    64   192      0     54    180     1    44   125  0.483  0.539  0.554  0.454  0.444  0.424  0.413  0.398  0.000  0.000
 1976 249    65   187      0     58    180     1    44   125  0.493  0.525  0.545  0.448  0.439  0.422  0.411  0.397  0.000  0.000
 1976 250    66   185      0     58    180     1    44   125  0.474  0.521  0.540  0.444  0.438  0.422  0.412  0.398  0.000  0.000
 1976 251    67   186      0     58    183     1    44   125  0.532  0.515  0.535  0.441  0.437  0.422  0.412  0.399  0.000  0.000
 1976 252    68   212      0     59    212     1    44   125  0.535  0.576  0.566  0.469  0.460  0.438  0.423  0.404  0.000  0.000
 1976 253    69   211      0     61    214     1    44   125  0.524  0.563  0.564  0.466  0.460  0.436  0.429  0.409  0.000  0.000
 1976 254    70   197      0     71    214     1    44   125  0.472  0.545  0.555  0.455  0.448  0.429  0.420  0.403  0.000  0.000
 1976 255    71   189      0     77    214     1    44   125  0.474  0.526  0.545  0.448  0.441  0.425  0.415  0.400  0.000  0.000
 1976 256    72   184      0     80    214     1    44   125  0.462  0.518  0.539  0.444  0.437  0.423  0.412  0.398  0.000  0.000
 1976 257    73   188      0     80    220     1    44   125  0.563  0.519  0.534  0.441  0.436  0.422  0.413  0.399  0.000  0.000
 1976 258    74   195      0     81    231     1    44   125  0.494  0.577  0.560  0.447  0.438  0.422  0.413  0.400  0.000  0.000
 1976 259    75   187      0     85    231     1    44   125  0.460  0.543  0.551  0.443  0.435  0.421  0.411  0.398  0.000  0.000
 1976 260    76   182      0     86    231     1    44   125  0.444  0.522  0.542  0.441  0.433  0.421  0.410  0.398  0.000  0.000
 1976 261    77   179      0     86    231     1    44   125  0.447  0.511  0.535  0.439  0.433  0.421  0.410  0.398  0.000  0.000
 1976 262    78   178      0     86    231     1    44   125  0.447  0.503  0.529  0.438  0.433  0.421  0.410  0.398  0.000  0.000
 1976 263    79   176      0     86    231     1    44   125  0.446  0.497  0.523  0.437  0.433  0.421  0.410  0.398  0.000  0.000
 1976 264    80   174      0     86    231     1    44   125  0.445  0.493  0.519  0.435  0.433  0.421  0.410  0.398  0.000  0.000
 1976 265    81   173      0     86    231     1    44   125  0.443  0.489  0.515  0.434  0.433  0.421  0.410  0.398  0.000  0.000
 1976 266    82   172      0     86    231     1    44   125  0.441  0.484  0.511  0.433  0.433  0.421  0.410  0.398  0.000  0.000
 1976 267    83   170      0     86    231     1    44   125  0.438  0.480  0.507  0.431  0.433  0.421  0.410  0.398  0.000  0.000
 1976 268    84   169      0     86    231     1    44   125  0.435  0.476  0.504  0.430  0.432  0.421  0.410  0.398  0.000  0.000
 1976 269    85   167      0     86    231     1    44   125  0.432  0.472  0.499  0.428  0.432  0.421  0.410  0.398  0.000  0.000
 1976 270    86   166      0     86    231     1    44   125  0.428  0.468  0.495  0.426  0.431  0.421  0.410  0.398  0.000  0.000
 1976 271    87   165      0     86    231     1    44   125  0.425  0.464  0.492  0.425  0.431  0.421  0.410  0.398  0.000  0.000
 1976 272    88   162      0     86    231     1    44   125  0.421  0.458  0.486  0.423  0.430  0.421  0.410  0.398  0.000  0.000
 1976 273    89   172      0     86    242     1    44   125  0.556  0.494  0.484  0.422  0.429  0.421  0.410  0.398  0.000  0.000
 1976 274    90   179      0     86    253     1    44   125  0.481  0.572  0.504  0.420  0.429  0.421  0.410  0.398  0.000  0.000
 1976 275    91   175      0     86    253     1    44   125  0.469  0.526  0.512  0.418  0.428  0.421  0.410  0.398  0.000  0.000
 1976 276    92   171      0     86    253     1    44   125  0.461  0.506  0.506  0.417  0.427  0.421  0.410  0.398  0.000  0.000
 1976 277    93   167      0     86    253     1    44   125  0.432  0.493  0.501  0.416  0.426  0.421  0.410  0.398  0.000  0.000
 1976 278    94   166      0     86    253     1    44   125  0.433  0.485  0.498  0.416  0.426  0.421  0.410  0.398  0.000  0.000
 1976 279    95   190      0     86    283     1    44   125  0.527  0.557  0.560  0.439  0.427  0.421  0.410  0.398  0.000  0.000
 1976 280    96   185      0     87    283     1    44   125  0.496  0.538  0.547  0.436  0.431  0.421  0.410  0.398  0.000  0.000
 1976 281    97   182      0     87    283     1    44   125  0.494  0.524  0.537  0.436  0.430  0.421  0.410  0.398  0.000  0.000
 1976 282    98   180      0     87    283     1    44   125  0.489  0.515  0.530  0.434  0.429  0.421  0.410  0.398  0.000  0.000
 1976 283    99   175      0     87    283     1    44   125  0.458  0.506  0.520  0.430  0.428  0.421  0.410  0.398  0.000  0.000
 1976 284   100   170      0     87    283     1    44   125  0.437  0.494  0.512  0.426  0.426  0.421  0.410  0.398  0.000  0.000
 1976 285   101   170      0     87    284     1    44   125  0.454  0.487  0.508  0.424  0.426  0.420  0.410  0.398  0.000  0.000
 1976 286   102   166      0     87    284     1    44   125  0.435  0.480  0.501  0.420  0.424  0.420  0.410  0.398  0.000  0.000
 1976 287   103   167      0     87    287     1    44   125  0.486  0.474  0.496  0.417  0.422  0.420  0.410  0.398  0.000  0.000
 1976 288   104   164      0     87    287     1    44   125  0.460  0.474  0.491  0.414  0.421  0.420  0.410  0.398  0.000  0.000
 1976 289   105   163      0     87    291     1    44   125  0.508  0.467  0.483  0.408  0.418  0.420  0.410  0.398  0.000  0.000
 1976 290   106   158      0     87    291     1    44   125  0.460  0.467  0.476  0.403  0.414  0.420  0.410  0.398  0.000  0.000
 1976 291   107   165      0     87    299     1    44   125  0.559  0.493  0.473  0.401  0.413  0.420  0.410  0.398  0.000  0.000
 1976 292   108   174      0     87    311     1    44   125  0.521  0.573  0.500  0.397  0.411  0.419  0.410  0.398  0.000  0.000
 1976 293   109   170      0     87    311     1    44   125  0.513  0.537  0.507  0.393  0.408  0.419  0.410  0.398  0.000  0.000
 1976 294   110   166      0     87    311     1    44   125  0.507  0.518  0.502  0.390  0.404  0.419  0.410  0.398  0.000  0.000
 1976 295   111   161      0     87    311     1    44   125  0.486  0.507  0.497  0.386  0.401  0.418  0.410  0.398  0.000  0.000
 1976 296   112   157      0     87    311     1    44   125  0.464  0.496  0.490  0.383  0.397  0.417  0.410  0.398  0.000  0.000
 1976 297   113   161      0     87    317     1    44   125  0.563  0.495  0.487  0.383  0.395  0.417  0.410  0.398  0.000  0.000
 1976 298   114   157      0     87    317     1    44   125  0.501  0.504  0.482  0.380  0.391  0.416  0.410  0.398  0.000  0.000
 1976 299   115   154      0     87    317     1    44   125  0.487  0.497  0.479  0.379  0.389  0.415  0.410  0.398  0.000  0.000
 1976 300   116   152      0     87    317     1    44   125  0.481  0.490  0.477  0.378  0.388  0.415  0.410  0.398  0.000  0.000
 1976 301   117   148      0     87    317     1    44   125  0.459  0.480  0.470  0.375  0.385  0.414  0.410  0.398  0.000  0.000
 1976 302   118   145      0     87    317     1    44   125  0.445  0.471  0.464  0.373  0.382  0.413  0.409  0.398  0.000  0.000
 1976 303   119   140      0     87    317     1    44   125  0.426  0.460  0.456  0.371  0.379  0.412  0.409  0.398  0.000  0.000
 1976 304   120   137      0     87    317     1    44   125  0.415  0.450  0.450  0.369  0.377  0.411  0.409  0.398  0.000  0.000
 1976 305   121   165      0     87    352     1    44   125  0.550  0.554  0.536  0.369  0.373  0.408  0.409  0.398  0.000  0.000
 1976 306   122   160      0     87    352     1    44   125  0.518  0.537  0.527  0.369  0.370  0.406  0.409  0.398  0.000  0.000
 1976 307   123   154      0     87    352     1    44   125  0.508  0.519  0.515  0.369  0.368  0.403  0.409  0.398  0.000  0.000
 1976 308   124   159      0     87    358     1    44   125  0.567  0.538  0.511  0.371  0.368  0.402  0.408  0.398  0.000  0.000
 1976 309   125   190      0     87    395     1    44   125  0.541  0.554  0.560  0.469  0.432  0.400  0.408  0.398  0.000  0.000
 1976 310   126   198      0     87    405     1    44   125  0.561  0.565  0.565  0.467  0.453  0.408  0.408  0.398  0.000  0.000
 1976 311   127   190      0     90    405     1    44   125  0.538  0.553  0.548  0.448  0.436  0.417  0.408  0.398  0.000  0.000
 1976 312   128   184      0     91    405     1    44   125  0.522  0.541  0.540  0.437  0.427  0.415  0.408  0.398  0.000  0.000
 1976 313   129   178      0     91    405     1    44   125  0.521  0.529  0.533  0.430  0.421  0.411  0.408  0.398  0.000  0.000
 1976 314   130   173      0     91    405     1    44   125  0.510  0.522  0.526  0.424  0.415  0.407  0.408  0.398  0.000  0.000
 1976 315   131   168      0     91    405     1    44   125  0.502  0.514  0.519  0.419  0.410  0.403  0.408  0.398  0.000  0.000
 1976 316   132   164      0     91    405     1    44   125  0.498  0.509  0.514  0.415  0.406  0.399  0.407  0.398  0.000  0.000
 1976 317   133   169      0     91    412     1    44   125  0.566  0.540  0.512  0.413  0.404  0.397  0.407  0.398  0.000  0.000
 1976 318   134   163      0     91    412     1    44   125  0.538  0.531  0.512  0.407  0.398  0.391  0.407  0.398  0.000  0.000
 1976 319   135   158      0     91    412     1    44   125  0.518  0.524  0.508  0.403  0.393  0.387  0.406  0.398  0.000  0.000
 1976 320   136   153      0     91    412     1    44   125  0.508  0.514  0.504  0.398  0.388  0.384  0.405  0.398  0.000  0.000
 1976 321   137   148      0     91    412     1    44   125  0.498  0.505  0.498  0.393  0.384  0.381  0.404  0.397  0.000  0.000
 1976 322   138   144      0     91    412     1    44   125  0.491  0.498  0.493  0.389  0.382  0.379  0.402  0.397  0.000  0.000
 1976 323   139   153      0     91    426     1    44   125  0.556  0.559  0.504  0.383  0.378  0.376  0.400  0.397  0.000  0.000
 1976 324   140   147      0     91    426     1    44   125  0.534  0.537  0.505  0.380  0.375  0.373  0.396  0.397  0.000  0.000
 1976 325   141   141      0     91    426     1    44   125  0.519  0.521  0.499  0.377  0.371  0.370  0.391  0.397  0.000  0.000
 1976 326   142   135      0     91    426     1    44   125  0.504  0.508  0.491  0.374  0.369  0.368  0.385  0.396  0.000  0.000
 1976 327   143   130      0     91    426     1    44   125  0.491  0.497  0.483  0.372  0.367  0.366  0.378  0.396  0.000  0.000
 1976 328   144   127      0     91    426     1    44   125  0.484  0.489  0.478  0.371  0.365  0.365  0.375  0.395  0.000  0.000
 1976 329   145   125      0     91    426     1    44   125  0.480  0.484  0.475  0.370  0.365  0.364  0.374  0.395  0.000  0.000
 1976 330   146   121      0     91    426     1    44   125  0.483  0.476  0.468  0.369  0.363  0.363  0.370  0.394  0.000  0.000
 1976 331   147   116      0     91    426     1    44   125  0.463  0.466  0.458  0.366  0.361  0.361  0.366  0.393  0.000  0.000
 1976 332   148   109      0     91    426     1    44   125  0.442  0.453  0.445  0.363  0.359  0.359  0.362  0.393  0.000  0.000
 1976 333   149   106      0     91    426     1    44   125  0.435  0.446  0.440  0.361  0.358  0.358  0.361  0.392  0.000  0.000
 1976 334   150   106      0     91    428     1    44   125  0.467  0.441  0.436  0.361  0.357  0.357  0.360  0.391  0.000  0.000
 1976 335   151   101      0     91    428     1    44   125  0.445  0.433  0.427  0.358  0.356  0.356  0.358  0.391  0.000  0.000
 1976 336   152   130      0     91    429     2    74   125  0.556  0.564  0.499  0.357  0.355  0.355  0.357  0.390  0.000  0.000
 1976 337   153   127      0     91    430     2    74   125  0.553  0.545  0.502  0.358  0.353  0.353  0.355  0.389  0.000  0.000
 1976 338   154   121      0     91    430     2    74   125  0.527  0.523  0.494  0.357  0.352  0.352  0.353  0.388  0.000  0.000
 1976 339   155   114      0     91    430     2    74   125  0.499  0.505  0.480  0.356  0.350  0.350  0.350  0.386  0.000  0.000
 1976 340   156   108      0     91    430     2    74   125  0.479  0.487  0.467  0.355  0.348  0.348  0.349  0.383  0.000  0.000
 1976 341   157   101      0     91    430     2    74   125  0.459  0.471  0.454  0.353  0.347  0.347  0.347  0.380  0.000  0.000
 1976 342   158   108      0     91    440     2    74   125  0.559  0.507  0.447  0.353  0.346  0.346  0.346  0.377  0.000  0.000
 1976 343   159   102      0     91    440     2    74   125  0.508  0.503  0.439  0.351  0.345  0.345  0.345  0.374  0.000  0.000
 1976 344   160    97      0     91    440     2    74   125  0.486  0.488  0.431  0.350  0.344  0.344  0.344  0.369  0.000  0.000
 1976 345   161    92      0     91    440     2    74   125  0.468  0.473  0.425  0.349  0.343  0.343  0.343  0.364  0.000  0.000
 1976 346   162    86      0     91    440     2    74   125  0.444  0.454  0.418  0.347  0.342  0.342  0.341  0.359  0.000  0.000
 1976 347   163   111      0     91    440     3   104   125  0.548  0.551  0.495  0.345  0.341  0.341  0.340  0.355  0.000  0.000
 1976 348   164   108      0     91    440     3   104   125  0.536  0.533  0.496  0.347  0.340  0.341  0.339  0.353  0.000  0.000
 1976 349   165   107      0     91    441     3   104   125  0.536  0.525  0.494  0.348  0.340  0.340  0.339  0.352  0.000  0.000
 1976 350   166   143      1     91    479     3   104   125  0.551  0.562  0.565  0.470  0.360  0.340  0.339  0.351  0.000  0.000
 1976 351   167   148      1     91    488     3   104   125  0.556  0.560  0.560  0.461  0.409  0.339  0.338  0.350  0.000  0.000
 1976 352   168   141      1     91    488     3   104   125  0.536  0.544  0.544  0.442  0.423  0.340  0.337  0.348  0.000  0.000
 1976 353   169   135      1     91    488     3   104   125  0.522  0.534  0.536  0.430  0.414  0.339  0.337  0.346  0.000  0.000
 1976 354   170   132      1     91    488     3   104   125  0.522  0.526  0.530  0.426  0.409  0.339  0.336  0.345  0.000  0.000
 1976 355   171   127      1     91    488     3   104   125  0.511  0.519  0.522  0.419  0.402  0.339  0.336  0.344  0.000  0.000
 1976 356   172   121      1     91    488     3   104   125  0.498  0.509  0.512  0.410  0.393  0.339  0.335  0.343  0.000  0.000
 1976 357   173   115      1     91    488     3   104   125  0.486  0.499  0.503  0.402  0.386  0.338  0.335  0.341  0.000  0.000
 1976 358   174   113      1     91    491     3   104   125  0.531  0.491  0.496  0.396  0.382  0.338  0.334  0.340  0.000  0.000
 1976 359   175   108      1     91    491     3   104   125  0.500  0.491  0.486  0.387  0.377  0.338  0.334  0.339  0.000  0.000
 1976 360   176   103      1     91    491     3   104   125  0.481  0.484  0.478  0.381  0.373  0.337  0.333  0.338  0.000  0.000
 1976 361   177   110      1     91    504     3   104   125  0.548  0.547  0.475  0.375  0.369  0.337  0.332  0.337  0.000  0.000
 1976 362   178   125      1     91    524     3   104   125  0.550  0.549  0.564  0.391  0.366  0.336  0.332  0.336  0.000  0.000
 1976 363   179   125      1     91    530     3   104   125  0.547  0.557  0.552  0.400  0.364  0.336  0.331  0.335  0.000  0.000
 1976 364   180   119      1     91    530     3   104   125  0.525  0.544  0.533  0.399  0.362  0.335  0.330  0.333  0.000  0.000
 1976 365   181   112      1     91    530     3   104   125  0.516  0.526  0.519  0.389  0.360  0.335  0.330  0.332  0.000  0.000
 1976 366   182   110      1     91    530     3   104   125  0.516  0.518  0.514  0.387  0.359  0.334  0.329  0.332  0.000  0.000
 1977 001   183   153      1     91    578     3   104   125  0.549  0.556  0.556  0.463  0.459  0.351  0.329  0.331  0.000  0.000
 1977 002   184   150      1     91    578     3   104   125  0.539  0.548  0.548  0.450  0.444  0.367  0.329  0.331  0.000  0.000
 1977 003   185   155      1     91    589     3   104   125  0.549  0.558  0.559  0.456  0.440  0.371  0.329  0.330  0.000  0.000
 1977 004   186   149      1     91    589     3   104   125  0.527  0.546  0.547  0.441  0.427  0.379  0.328  0.329  0.000  0.000
 1977 005   187   143      1     91    589     3   104   125  0.518  0.532  0.538  0.432  0.422  0.376  0.328  0.328  0.000  0.000
 1977 006   188   139      1     91    589     3   104   125  0.515  0.525  0.531  0.427  0.417  0.374  0.328  0.328  0.000  0.000
 1977 007   189   132      1     91    589     3   104   125  0.497  0.515  0.521  0.419  0.408  0.372  0.328  0.327  0.000  0.000
 1977 008   190   124      1     91    589     3   104   125  0.480  0.503  0.510  0.410  0.399  0.369  0.328  0.327  0.000  0.000
 1977 009   191   120      1     91    589     3   104   125  0.474  0.495  0.503  0.404  0.393  0.367  0.328  0.326  0.000  0.000
 1977 010   192   126      1     91    599     3   104   125  0.559  0.536  0.497  0.399  0.388  0.366  0.328  0.326  0.000  0.000
 1977 011   193   150      1     91    627     3   104   125  0.550  0.559  0.568  0.465  0.406  0.365  0.328  0.326  0.000  0.000
 1977 012   194   147      1     91    628     3   104   125  0.545  0.551  0.557  0.456  0.418  0.364  0.328  0.325  0.000  0.000
 1977 013   195   142      1     91    628     3   104   125  0.520  0.542  0.543  0.441  0.423  0.364  0.327  0.325  0.000  0.000
 1977 014   196   139      1     91    628     3   104   125  0.526  0.532  0.538  0.437  0.420  0.363  0.327  0.325  0.000  0.000
 1977 015   197   135      1     91    628     3   104   125  0.514  0.528  0.533  0.432  0.415  0.363  0.327  0.324  0.000  0.000
 1977 016   198   131      1     91    628     3   104   125  0.500  0.520  0.527  0.426  0.410  0.362  0.327  0.324  0.000  0.000
 1977 017   199   174      1     91    677     3   104   125  0.544  0.558  0.559  0.463  0.454  0.424  0.334  0.323  0.000  0.000
 1977 018   200   168      1     91    678     3   104   125  0.518  0.549  0.550  0.453  0.447  0.420  0.342  0.323  0.000  0.000
 1977 019   201   162      1     91    679     3   104   125  0.519  0.531  0.542  0.444  0.440  0.417  0.346  0.323  0.000  0.000

*DSSAT Cropping System Model Ver. 4.0.2.000               Aug 01, 2016; 15:14:21

*RUN   3        : UYMZ                    
 MODEL          : MZCER040 - Maize           
 EXPERIMENT     : UYMZ0102 MZ    late to create DSS                             
 TREATMENT  1   : UYMZ                    

@YEAR DOY   DAS  SWXD   ROFC   DRNC   PREC  IR#C  IRRC  DTWT   SW1D   SW2D   SW3D   SW4D   SW5D   SW6D   SW7D   SW8D   SW9D   SW10
 1977 184     0   128      0      0     11     0     0   125  0.551  0.417  0.394  0.335  0.375  0.419  0.408  0.395  0.000  0.000
 1977 185     1   130      0      0     14     0     0   125  0.526  0.447  0.395  0.335  0.376  0.418  0.408  0.395  0.000  0.000
 1977 186     2   136      0      0     21     0     0   125  0.530  0.506  0.396  0.336  0.376  0.418  0.408  0.395  0.000  0.000
 1977 187     3   167      0      0     52     0     0   125  0.538  0.569  0.552  0.340  0.377  0.417  0.408  0.395  0.000  0.000
 1977 188     4   211      1      1     99     0     0   125  0.557  0.566  0.563  0.475  0.461  0.437  0.420  0.400  0.000  0.000
 1977 189     5   216      1      2    108     0     0   125  0.518  0.568  0.568  0.470  0.460  0.447  0.434  0.409  0.000  0.000
 1977 190     6   214      1      5    108     0     0   125  0.533  0.547  0.562  0.465  0.459  0.441  0.439  0.416  0.000  0.000
 1977 191     7   202      1     16    108     0     0   125  0.526  0.541  0.554  0.454  0.448  0.432  0.426  0.408  0.000  0.000
 1977 192     8   218      1     18    131     0     0   125  0.524  0.563  0.566  0.470  0.460  0.447  0.439  0.418  0.000  0.000
 1977 193     9   204      1     31    131     0     0   125  0.524  0.547  0.557  0.457  0.449  0.436  0.427  0.409  0.000  0.000
 1977 194    10   223      1     54    172     0     0   125  0.569  0.561  0.567  0.470  0.460  0.447  0.439  0.432  0.000  0.000
 1977 195    11   223      1     67    187     0     0   125  0.549  0.568  0.568  0.470  0.460  0.447  0.439  0.432  0.000  0.000
 1977 196    12   219      1     72    189     0     0   125  0.540  0.564  0.563  0.466  0.460  0.442  0.439  0.432  0.000  0.000
 1977 197    13   213      1     76    190     0     0   125  0.509  0.556  0.559  0.461  0.458  0.438  0.439  0.430  0.000  0.000
 1977 198    14   200      1     88    190     0     0   125  0.490  0.537  0.552  0.452  0.447  0.430  0.427  0.416  0.000  0.000
 1977 199    15   191      1     94    190     0     0   125  0.488  0.526  0.545  0.446  0.441  0.426  0.419  0.408  0.000  0.000
 1977 200    16   186      1     98    190     0     0   125  0.468  0.522  0.540  0.443  0.437  0.423  0.415  0.403  0.000  0.000
 1977 201    17   183      1    100    190     0     0   125  0.480  0.516  0.536  0.440  0.434  0.421  0.412  0.400  0.000  0.000
 1977 202    18   223      1    113    244     0     0   125  0.568  0.565  0.564  0.469  0.460  0.447  0.439  0.432  0.000  0.000
 1977 203    19   221      1    125    256     0     0   125  0.518  0.568  0.568  0.470  0.460  0.447  0.439  0.432  0.000  0.000
 1977 204    20   223      1    145    279     0     0   125  0.569  0.559  0.568  0.470  0.460  0.447  0.439  0.432  0.000  0.000
 1977 205    21   222      2    168    303     0     0   125  0.527  0.568  0.568  0.470  0.460  0.447  0.439  0.432  0.000  0.000
 1977 206    22   205      2    182    303     0     0   125  0.490  0.551  0.557  0.457  0.449  0.436  0.427  0.417  0.000  0.000
 1977 207    23   195      2    191    303     0     0   125  0.499  0.531  0.549  0.449  0.442  0.429  0.419  0.408  0.000  0.000
 1977 208    24   223      2    199    340     0     0   125  0.568  0.564  0.564  0.470  0.460  0.447  0.439  0.432  0.000  0.000
 1977 209    25   217      2    204    340     0     0   125  0.541  0.559  0.560  0.464  0.459  0.442  0.439  0.432  0.000  0.000
 1977 210    26   204      2    216    340     0     0   125  0.515  0.552  0.553  0.454  0.448  0.433  0.427  0.417  0.000  0.000
 1977 211    27   223      4    261    408     0     0   125  0.567  0.559  0.568  0.470  0.460  0.447  0.439  0.432  0.000  0.000
 1977 212    28   221      4    267    414     0     0   125  0.515  0.568  0.568  0.470  0.460  0.447  0.439  0.432  0.000  0.000
 1977 213    29   205      4    282    414     0     0   125  0.508  0.546  0.557  0.457  0.449  0.436  0.427  0.417  0.000  0.000
 1977 214    30   195      4    290    414     0     0   125  0.489  0.533  0.550  0.449  0.442  0.429  0.419  0.408  0.000  0.000
 1977 215    31   188      4    295    414     0     0   125  0.471  0.525  0.543  0.445  0.437  0.425  0.415  0.403  0.000  0.000
 1977 216    32   183      4    297    414     0     0   125  0.467  0.518  0.538  0.442  0.435  0.423  0.412  0.400  0.000  0.000
 1977 217    33   181      4    299    414     0     0   125  0.469  0.513  0.534  0.440  0.433  0.421  0.410  0.398  0.000  0.000
 1977 218    34   205      4    299    440     0     0   125  0.567  0.565  0.565  0.469  0.455  0.425  0.413  0.399  0.000  0.000
 1977 219    35   223      5    323    484     0     0   125  0.549  0.568  0.568  0.470  0.460  0.447  0.439  0.432  0.000  0.000
 1977 220    36   217      5    328    485     0     0   125  0.515  0.560  0.562  0.465  0.460  0.442  0.439  0.432  0.000  0.000
 1977 221    37   202      5    340    485     0     0   125  0.488  0.541  0.554  0.454  0.448  0.433  0.427  0.417  0.000  0.000
 1977 222    38   198      5    343    485     0     0   125  0.507  0.527  0.546  0.451  0.446  0.430  0.427  0.416  0.000  0.000
 1977 223    39   206      5    345    496     0     0   125  0.562  0.566  0.557  0.453  0.446  0.429  0.426  0.415  0.000  0.000
 1977 224    40   208      5    347    501     0     0   125  0.542  0.568  0.568  0.461  0.449  0.429  0.425  0.414  0.000  0.000
 1977 225    41   196      5    356    501     0     0   125  0.484  0.557  0.557  0.452  0.442  0.425  0.418  0.407  0.000  0.000
 1977 226    42   189      5    361    501     0     0   125  0.475  0.532  0.550  0.446  0.438  0.422  0.414  0.402  0.000  0.000
 1977 227    43   183      5    364    501     0     0   125  0.451  0.522  0.542  0.443  0.435  0.421  0.412  0.399  0.000  0.000
 1977 228    44   181      5    364    501     0     0   125  0.454  0.514  0.537  0.441  0.435  0.421  0.411  0.399  0.000  0.000
 1977 229    45   179      5    365    501     0     0   125  0.456  0.508  0.533  0.440  0.433  0.421  0.410  0.397  0.000  0.000
 1977 230    46   178      5    365    501     0     0   125  0.458  0.505  0.529  0.439  0.433  0.421  0.410  0.397  0.000  0.000
 1977 231    47   177      5    365    501     0     0   125  0.459  0.502  0.526  0.438  0.433  0.421  0.410  0.397  0.000  0.000
 1977 232    48   177      5    365    501     0     0   125  0.460  0.499  0.523  0.436  0.433  0.421  0.410  0.397  0.000  0.000
 1977 233    49   176      5    365    501     0     0   125  0.461  0.497  0.521  0.435  0.433  0.421  0.410  0.397  0.000  0.000
 1977 234    50   175      5    365    502     0     0   125  0.461  0.496  0.519  0.434  0.433  0.421  0.410  0.397  0.000  0.000
 1977 235    51   175      5    365    502     0     0   125  0.461  0.494  0.517  0.433  0.432  0.421  0.410  0.397  0.000  0.000
 1977 236    52   174      5    365    502     0     0   125  0.461  0.492  0.515  0.432  0.432  0.421  0.410  0.397  0.000  0.000
 1977 237    53   173      5    365    502     0     0   125  0.460  0.491  0.513  0.431  0.432  0.421  0.410  0.397  0.000  0.000
 1977 238    54   173      5    365    502     0     0   125  0.459  0.489  0.511  0.430  0.432  0.421  0.410  0.397  0.000  0.000
 1977 239    55   172      5    365    502     0     0   125  0.459  0.488  0.510  0.429  0.431  0.421  0.410  0.397  0.000  0.000
 1977 240    56   171      5    365    502     0     0   125  0.457  0.486  0.508  0.429  0.431  0.421  0.410  0.397  0.000  0.000
 1977 241    57   171      5    365    502     0     0   125  0.456  0.485  0.506  0.428  0.430  0.421  0.410  0.397  0.000  0.000
 1977 242    58   170      5    365    502     0     0   125  0.455  0.483  0.504  0.427  0.430  0.421  0.410  0.397  0.000  0.000
 1977 243    59   169      5    365    502     0     0   125  0.453  0.482  0.503  0.426  0.429  0.421  0.410  0.397  0.000  0.000
 1977 244    60   169      5    365    502     0     0   125  0.451  0.480  0.501  0.426  0.429  0.421  0.410  0.397  0.000  0.000
 1977 245    61   168      5    365    502     0     0   125  0.449  0.478  0.499  0.425  0.429  0.421  0.410  0.397  0.000  0.000
 1977 246    62   167      5    365    502     0     0   125  0.447  0.477  0.498  0.424  0.428  0.421  0.410  0.397  0.000  0.000
 1977 247    63   167      5    365    502     0     0   125  0.446  0.475  0.497  0.423  0.428  0.421  0.410  0.397  0.000  0.000
 1977 248    64   166      5    365    502     0     0   125  0.445  0.474  0.496  0.423  0.427  0.421  0.410  0.397  0.000  0.000
 1977 249    65   177      5    365    515     0     0   125  0.546  0.535  0.495  0.422  0.427  0.421  0.410  0.397  0.000  0.000
 1977 250    66   186      5    365    526     0     0   125  0.505  0.563  0.549  0.422  0.427  0.421  0.410  0.397  0.000  0.000
 1977 251    67   186      5    365    531     0     0   125  0.507  0.552  0.548  0.430  0.426  0.421  0.410  0.397  0.000  0.000
 1977 252    68   183      5    365    531     0     0   125  0.476  0.534  0.543  0.436  0.426  0.420  0.410  0.397  0.000  0.000
 1977 253    69   205      5    366    555     0     0   125  0.563  0.563  0.564  0.470  0.457  0.425  0.413  0.399  0.000  0.000
 1977 254    70   205      5    366    556     0     0   125  0.545  0.562  0.561  0.465  0.457  0.428  0.417  0.401  0.000  0.000
 1977 255    71   218      5    368    574     0     0   125  0.526  0.566  0.567  0.470  0.460  0.447  0.439  0.414  0.000  0.000
 1977 256    72   204      5    381    574     0     0   125  0.517  0.549  0.556  0.457  0.449  0.436  0.427  0.406  0.000  0.000
 1977 257    73   222      5    392    605     0     0   125  0.563  0.559  0.567  0.470  0.460  0.447  0.439  0.432  0.000  0.000
 1977 258    74   207      5    407    605     0     0   125  0.531  0.551  0.556  0.457  0.449  0.436  0.427  0.417  0.000  0.000
 1977 259    75   208      5    409    611     0     0   125  0.543  0.561  0.558  0.456  0.449  0.433  0.428  0.417  0.000  0.000
 1977 260    76   203      5    412    611     0     0   125  0.510  0.553  0.553  0.454  0.448  0.431  0.428  0.417  0.000  0.000
 1977 261    77   192      5    419    611     0     0   125  0.469  0.533  0.545  0.447  0.441  0.426  0.420  0.408  0.000  0.000
 1977 262    78   185      5    423    611     0     0   125  0.466  0.517  0.537  0.443  0.437  0.423  0.415  0.403  0.000  0.000
 1977 263    79   179      5    425    611     0     0   125  0.442  0.508  0.529  0.439  0.435  0.422  0.412  0.400  0.000  0.000
 1977 264    80   176      5    426    611     0     0   125  0.436  0.498  0.523  0.437  0.433  0.422  0.411  0.398  0.000  0.000
 1977 265    81   173      5    426    611     0     0   125  0.431  0.489  0.515  0.435  0.433  0.422  0.411  0.398  0.000  0.000
 1977 266    82   184      5    426    626     0     0   125  0.541  0.549  0.515  0.432  0.433  0.422  0.411  0.398  0.000  0.000
 1977 267    83   181      5    426    626     0     0   125  0.504  0.535  0.517  0.430  0.432  0.422  0.411  0.398  0.000  0.000
 1977 268    84   177      5    426    626     0     0   125  0.481  0.517  0.513  0.429  0.431  0.422  0.411  0.398  0.000  0.000
 1977 269    85   173      5    426    626     0     0   125  0.464  0.501  0.506  0.426  0.430  0.422  0.411  0.398  0.000  0.000
 1977 270    86   168      5    426    626     0     0   125  0.434  0.489  0.499  0.424  0.429  0.422  0.411  0.398  0.000  0.000
 1977 271    87   167      5    426    626     0     0   125  0.437  0.481  0.497  0.422  0.428  0.421  0.411  0.398  0.000  0.000
 1977 272    88   181      5    426    644     0     0   125  0.543  0.558  0.509  0.420  0.427  0.421  0.411  0.398  0.000  0.000
 1977 273    89   177      5    426    644     0     0   125  0.505  0.538  0.511  0.417  0.425  0.421  0.411  0.398  0.000  0.000
 1977 274    90   175      5    426    644     0     0   125  0.512  0.520  0.510  0.417  0.424  0.421  0.411  0.398  0.000  0.000
 1977 275    91   173      5    426    645     0     0   125  0.504  0.511  0.506  0.415  0.423  0.421  0.411  0.398  0.000  0.000
 1977 276    92   169      5    426    645     0     0   125  0.480  0.503  0.501  0.413  0.421  0.421  0.411  0.398  0.000  0.000
 1977 277    93   169      5    426    649     0     0   125  0.529  0.495  0.493  0.409  0.418  0.421  0.411  0.398  0.000  0.000
 1977 278    94   165      5    426    649     0     0   125  0.484  0.497  0.488  0.406  0.416  0.421  0.411  0.398  0.000  0.000
 1977 279    95   160      5    426    649     0     0   125  0.456  0.486  0.481  0.401  0.413  0.420  0.411  0.398  0.000  0.000
 1977 280    96   155      5    426    649     0     0   125  0.436  0.472  0.472  0.396  0.408  0.420  0.411  0.398  0.000  0.000
 1977 281    97   160      5    426    655     0     0   125  0.557  0.471  0.470  0.394  0.407  0.420  0.411  0.398  0.000  0.000
 1977 282    98   196      5    426    693     0     0   125  0.529  0.579  0.567  0.462  0.423  0.419  0.411  0.398  0.000  0.000
 1977 283    99   222      5    430    724     0     0   125  0.572  0.560  0.566  0.468  0.460  0.447  0.439  0.429  0.000  0.000
 1977 284   100   222      5    443    739     0     0   125  0.557  0.565  0.565  0.467  0.459  0.447  0.439  0.432  0.000  0.000
 1977 285   101   204      5    457    739     0     0   125  0.533  0.552  0.552  0.453  0.443  0.435  0.427  0.417  0.000  0.000
 1977 286   102   193      5    465    739     0     0   125  0.517  0.538  0.542  0.441  0.434  0.428  0.419  0.408  0.000  0.000
 1977 287   103   188      5    467    739     0     0   125  0.526  0.531  0.538  0.438  0.432  0.424  0.415  0.403  0.000  0.000
 1977 288   104   222      6    481    789     0     0   125  0.562  0.566  0.564  0.467  0.458  0.446  0.439  0.432  0.000  0.000
 1977 289   105   215      6    485    791     0     0   125  0.541  0.558  0.559  0.456  0.455  0.440  0.439  0.432  0.000  0.000
 1977 290   106   198      6    497    791     0     0   125  0.514  0.541  0.548  0.442  0.442  0.430  0.427  0.417  0.000  0.000
 1977 291   107   188      6    502    791     0     0   125  0.509  0.525  0.538  0.435  0.433  0.423  0.419  0.408  0.000  0.000
 1977 292   108   180      6    504    791     0     0   125  0.494  0.516  0.529  0.430  0.428  0.418  0.415  0.403  0.000  0.000
 1977 293   109   173      6    505    791     0     0   125  0.481  0.506  0.521  0.425  0.423  0.414  0.412  0.400  0.000  0.000
 1977 294   110   167      6    506    791     0     0   125  0.470  0.497  0.513  0.420  0.418  0.409  0.410  0.398  0.000  0.000
 1977 295   111   162      6    506    791     0     0   125  0.460  0.488  0.505  0.416  0.414  0.404  0.410  0.398  0.000  0.000
 1977 296   112   158      6    506    791     0     0   125  0.458  0.482  0.500  0.412  0.410  0.400  0.410  0.398  0.000  0.000
 1977 297   113   156      6    506    791     0     0   125  0.458  0.478  0.496  0.410  0.409  0.399  0.410  0.398  0.000  0.000
 1977 298   114   154      6    506    791     0     0   125  0.457  0.475  0.492  0.408  0.407  0.397  0.409  0.398  0.000  0.000
 1977 299   115   153      6    506    792     0     0   125  0.482  0.471  0.488  0.406  0.404  0.394  0.409  0.398  0.000  0.000
 1977 300   116   150      6    506    793     0     0   125  0.488  0.470  0.483  0.403  0.401  0.391  0.409  0.398  0.000  0.000
 1977 301   117   147      6    506    793     0     0   125  0.473  0.469  0.479  0.399  0.398  0.389  0.408  0.398  0.000  0.000
 1977 302   118   143      6    506    793     0     0   125  0.458  0.464  0.473  0.395  0.394  0.386  0.408  0.398  0.000  0.000
 1977 303   119   137      6    506    793     0     0   125  0.443  0.457  0.465  0.390  0.389  0.383  0.407  0.398  0.000  0.000
 1977 304   120   136      6    506    795     0     0   125  0.464  0.452  0.461  0.387  0.387  0.381  0.406  0.398  0.000  0.000
 1977 305   121   158      6    506    819     0     0   125  0.558  0.566  0.507  0.385  0.385  0.380  0.405  0.398  0.000  0.000
 1977 306   122   153      6    506    819     0     0   125  0.535  0.541  0.511  0.383  0.382  0.378  0.404  0.398  0.000  0.000
 1977 307   123   148      6    506    819     0     0   125  0.526  0.525  0.505  0.382  0.379  0.375  0.401  0.398  0.000  0.000
 1977 308   124   143      6    506    819     0     0   125  0.509  0.513  0.497  0.380  0.377  0.373  0.397  0.397  0.000  0.000
 1977 309   125   138      6    506    819     0     0   125  0.497  0.503  0.490  0.378  0.374  0.371  0.392  0.397  0.000  0.000
 1977 310   126   134      6    506    819     0     0   125  0.486  0.493  0.484  0.377  0.373  0.370  0.386  0.397  0.000  0.000
 1977 311   127   133      6    506    823     0     0   125  0.548  0.490  0.477  0.375  0.371  0.368  0.380  0.396  0.000  0.000
 1977 312   128   130      6    506    823     0     0   125  0.509  0.498  0.474  0.374  0.370  0.367  0.377  0.396  0.000  0.000
 1977 313   129   133      6    506    831     0     0   125  0.546  0.536  0.468  0.372  0.368  0.366  0.372  0.395  0.000  0.000
 1977 314   130   131      6    506    831     0     0   125  0.533  0.527  0.470  0.371  0.367  0.365  0.371  0.395  0.000  0.000
 1977 315   131   126      6    506    831     0     0   125  0.513  0.514  0.466  0.370  0.366  0.364  0.367  0.394  0.000  0.000
 1977 316   132   121      6    506    831     0     0   125  0.496  0.499  0.460  0.367  0.364  0.362  0.364  0.393  0.000  0.000
 1977 317   133   116      6    506    831     0     0   125  0.478  0.485  0.452  0.365  0.362  0.360  0.361  0.393  0.000  0.000
 1977 318   134   110      6    506    831     0     0   125  0.459  0.471  0.442  0.362  0.360  0.358  0.359  0.392  0.000  0.000
 1977 319   135   104      6    506    831     0     0   125  0.439  0.456  0.432  0.360  0.357  0.356  0.356  0.391  0.000  0.000
 1977 320   136    98      6    506    831     0     0   125  0.416  0.439  0.422  0.357  0.355  0.354  0.354  0.389  0.000  0.000
 1977 321   137   124      6    506    831     1    32   125  0.555  0.552  0.491  0.354  0.353  0.352  0.351  0.386  0.000  0.000
 1977 322   138   118      6    506    831     1    32   125  0.524  0.526  0.486  0.354  0.351  0.351  0.349  0.383  0.000  0.000
 1977 323   139   115      6    506    831     1    32   125  0.513  0.513  0.482  0.354  0.351  0.350  0.349  0.381  0.000  0.000
 1977 324   140   111      6    506    834     1    32   125  0.532  0.502  0.471  0.354  0.349  0.349  0.347  0.377  0.000  0.000
 1977 325   141   110      6    506    834     1    32   125  0.516  0.503  0.470  0.354  0.349  0.348  0.347  0.375  0.000  0.000
 1977 326   142   112      6    506    842     1    32   125  0.537  0.538  0.463  0.353  0.348  0.347  0.346  0.370  0.000  0.000
 1977 327   143   106      6    506    842     1    32   125  0.516  0.518  0.458  0.353  0.347  0.346  0.345  0.365  0.000  0.000
 1977 328   144   101      6    506    842     1    32   125  0.498  0.502  0.453  0.352  0.346  0.345  0.344  0.360  0.000  0.000
 1977 329   145    96      6    506    842     1    32   125  0.476  0.486  0.444  0.351  0.345  0.344  0.343  0.355  0.000  0.000
 1977 330   146    89      6    506    842     1    32   125  0.451  0.468  0.432  0.349  0.344  0.343  0.341  0.349  0.000  0.000
 1977 331   147   125      6    506    882     1    32   125  0.553  0.554  0.562  0.375  0.343  0.342  0.340  0.346  0.000  0.000
 1977 332   148   119      6    506    882     1    32   125  0.523  0.538  0.538  0.387  0.342  0.341  0.339  0.343  0.000  0.000
 1977 333   149   112      6    506    882     1    32   125  0.509  0.522  0.523  0.381  0.342  0.341  0.338  0.340  0.000  0.000
 1977 334   150   106      6    506    882     1    32   125  0.490  0.507  0.507  0.375  0.342  0.340  0.337  0.337  0.000  0.000
 1977 335   151   101      6    506    882     1    32   125  0.477  0.494  0.495  0.372  0.341  0.339  0.336  0.336  0.000  0.000
 1977 336   152    99      6    506    883     1    32   125  0.484  0.487  0.489  0.372  0.341  0.339  0.336  0.335  0.000  0.000
 1977 337   153    95      6    506    884     1    32   125  0.491  0.476  0.477  0.368  0.341  0.338  0.335  0.333  0.000  0.000
 1977 338   154    89      6    506    884     1    32   125  0.454  0.464  0.462  0.364  0.340  0.337  0.334  0.331  0.000  0.000
 1977 339   155    93      6    506    892     1    32   125  0.553  0.473  0.454  0.363  0.340  0.337  0.333  0.330  0.000  0.000
 1977 340   156    87      6    506    892     1    32   125  0.494  0.477  0.444  0.360  0.339  0.336  0.332  0.328  0.000  0.000
 1977 341   157    81      6    506    892     1    32   125  0.458  0.464  0.432  0.357  0.338  0.335  0.331  0.327  0.000  0.000
 1977 342   158    75      6    506    892     1    32   125  0.426  0.446  0.422  0.354  0.338  0.334  0.330  0.325  0.000  0.000
 1977 343   159    99      6    506    892     2    62   125  0.540  0.545  0.490  0.351  0.336  0.333  0.329  0.323  0.000  0.000
 1977 344   160    92      6    506    892     2    62   125  0.505  0.518  0.479  0.350  0.336  0.333  0.328  0.322  0.000  0.000
 1977 345   161    86      6    506    892     2    62   125  0.478  0.495  0.465  0.349  0.335  0.332  0.327  0.321  0.000  0.000
 1977 346   162    81      6    506    892     2    62   125  0.458  0.478  0.455  0.349  0.334  0.331  0.327  0.320  0.000  0.000
 1977 347   163    75      6    506    892     2    62   125  0.436  0.459  0.440  0.347  0.334  0.331  0.326  0.319  0.000  0.000
 1977 348   164    69      6    506    892     2    62   125  0.408  0.442  0.427  0.346  0.333  0.330  0.325  0.318  0.000  0.000
 1977 349   165    94      6    506    892     3    94   125  0.543  0.544  0.486  0.344  0.332  0.329  0.324  0.316  0.000  0.000
 1977 350   166    91      6    506    892     3    94   125  0.528  0.529  0.484  0.345  0.332  0.329  0.324  0.316  0.000  0.000
 1977 351   167    89      6    506    897     3    94   125  0.526  0.531  0.476  0.345  0.331  0.328  0.323  0.315  0.000  0.000
 1977 352   168    83      6    506    897     3    94   125  0.489  0.508  0.465  0.345  0.330  0.328  0.322  0.314  0.000  0.000
 1977 353   169    80      6    506    897     3    94   125  0.479  0.493  0.460  0.345  0.330  0.327  0.322  0.314  0.000  0.000
 1977 354   170    96      6    506    916     3    94   125  0.560  0.558  0.499  0.345  0.330  0.327  0.322  0.313  0.000  0.000
 1977 355   171    90      6    506    916     3    94   125  0.513  0.533  0.494  0.346  0.330  0.327  0.321  0.313  0.000  0.000
 1977 356   172    84      6    506    916     3    94   125  0.484  0.507  0.482  0.346  0.329  0.326  0.321  0.312  0.000  0.000
 1977 357   173    78      6    506    916     3    94   125  0.450  0.487  0.469  0.346  0.329  0.326  0.320  0.311  0.000  0.000
 1977 358   174    73      6    506    916     3    94   125  0.426  0.470  0.458  0.346  0.329  0.325  0.320  0.311  0.000  0.000
 1977 359   175    68      6    506    916     3    94   125  0.397  0.453  0.446  0.345  0.328  0.325  0.319  0.310  0.000  0.000
 1977 360   176    62      6    506    916     3    94   125  0.371  0.436  0.433  0.344  0.328  0.325  0.319  0.310  0.000  0.000
 1977 361   177    88      6    506    916     4   126   125  0.534  0.549  0.482  0.343  0.327  0.324  0.318  0.309  0.000  0.000
 1977 362   178   112      6    506    943     4   126   125  0.553  0.550  0.567  0.412  0.327  0.324  0.318  0.309  0.000  0.000
 1977 363   179   119      6    506    956     4   126   125  0.514  0.558  0.556  0.458  0.347  0.323  0.317  0.308  0.000  0.000
 1977 364   180   117      6    506    956     4   126   125  0.516  0.538  0.547  0.444  0.367  0.323  0.317  0.308  0.000  0.000
 1977 365   181   110      6    506    956     4   126   125  0.477  0.524  0.536  0.431  0.370  0.323  0.317  0.308  0.000  0.000
 1978 001   182   105      6    506    956     4   126   125  0.462  0.509  0.525  0.422  0.369  0.323  0.317  0.308  0.000  0.000
 1978 002   183    99      6    506    956     4   126   125  0.428  0.497  0.514  0.414  0.368  0.323  0.316  0.307  0.000  0.000
 1978 003   184    94      6    506    956     4   126   125  0.415  0.483  0.504  0.406  0.367  0.323  0.316  0.307  0.000  0.000
 1978 004   185    88      6    506    956     4   126   125  0.405  0.470  0.492  0.396  0.365  0.323  0.316  0.307  0.000  0.000
 1978 005   186    83      6    506    956     4   126   125  0.397  0.458  0.482  0.388  0.363  0.323  0.316  0.306  0.000  0.000
 1978 006   187    82      6    506    960     4   126   125  0.441  0.449  0.473  0.382  0.362  0.322  0.315  0.306  0.000  0.000

*DSSAT Cropping System Model Ver. 4.0.2.000               Aug 01, 2016; 15:14:21

*RUN   4        : UYMZ                    
 MODEL          : MZCER040 - Maize           
 EXPERIMENT     : UYMZ0102 MZ    late to create DSS                             
 TREATMENT  1   : UYMZ                    

@YEAR DOY   DAS  SWXD   ROFC   DRNC   PREC  IR#C  IRRC  DTWT   SW1D   SW2D   SW3D   SW4D   SW5D   SW6D   SW7D   SW8D   SW9D   SW10
 1978 184     0   117      0      0      0     0     0   125  0.376  0.394  0.394  0.335  0.375  0.419  0.408  0.395  0.000  0.000
 1978 185     1   116      0      0      0     0     0   125  0.364  0.393  0.394  0.335  0.376  0.418  0.408  0.395  0.000  0.000
 1978 186     2   115      0      0      0     0     0   125  0.346  0.393  0.394  0.336  0.376  0.418  0.408  0.395  0.000  0.000
 1978 187     3   159      0      0      2     1    42   125  0.555  0.567  0.496  0.336  0.377  0.417  0.408  0.395  0.000  0.000
 1978 188     4   159      0      0      3     1    42   125  0.546  0.552  0.507  0.339  0.377  0.417  0.408  0.395  0.000  0.000
 1978 189     5   157      0      0      3     1    42   125  0.506  0.541  0.512  0.342  0.378  0.416  0.408  0.395  0.000  0.000
 1978 190     6   158      0      0      5     1    42   125  0.549  0.524  0.511  0.346  0.378  0.416  0.408  0.395  0.000  0.000
[...]
 1995 225    41   173      4    109    224     0     0   125  0.468  0.493  0.511  0.429  0.430  0.422  0.411  0.398  0.000  0.000
 1995 226    42   173      4    109    224     0     0   125  0.467  0.492  0.510  0.428  0.430  0.422  0.411  0.398  0.000  0.000
 1995 227    43   173      4    109    225     0     0   125  0.478  0.491  0.509  0.428  0.430  0.422  0.411  0.398  0.000  0.000
 1995 228    44   173      4    109    225     0     0   125  0.473  0.491  0.508  0.427  0.429  0.422  0.411  0.398  0.000  0.000
 1995 229    45   172      4    109    225     0     0   125  0.470  0.491  0.507  0.426  0.429  0.422  0.411  0.398  0.000  0.000
 1995 230    46   172      4    109    225     0     0   125  0.468  0.490  0.506  0.426  0.429  0.422  0.411  0.398  0.000  0.000
 1995 231    47   171      4    109    225     0     0   125  0.467  0.489  0.506  0.425  0.428  0.422  0.411  0.398  0.000  0.000
 1995 232    48   171      4    109    225     0     0   125  0.466  0.488  0.505  0.425  0.428  0.422  0.411  0.398  0.000  0.000
 1995 233    49   170      4    109    225     0     0   125  0.465  0.487  0.504  0.424  0.427  0.422  0.411  0.398  0.000  0.000
 1995 234    50   170      4    109    225     0     0   125  0.463  0.486  0.503  0.423  0.427  0.422  0.411  0.398  0.000  0.000
 1995 235    51   169      4    109    225     0     0   125  0.462  0.484  0.502  0.423  0.427  0.422  0.411  0.398  0.000  0.000
 1995 236    52   169      4    109    225     0     0   125  0.461  0.483  0.501  0.422  0.426  0.421  0.411  0.398  0.000  0.000
 1995 237    53   169      4    109    225     0     0   125  0.460  0.482  0.501  0.422  0.426  0.421  0.411  0.398  0.000  0.000
 1995 238    54   168      4    109    225     0     0   125  0.458  0.481  0.499  0.421  0.426  0.421  0.411  0.398  0.000  0.000
 1995 239    55   177      4    109    235     0     0   125  0.548  0.527  0.498  0.421  0.425  0.421  0.411  0.398  0.000  0.000
 1995 240    56   194      4    109    255     0     0   125  0.496  0.567  0.572  0.446  0.431  0.421  0.411  0.398  0.000  0.000
 1995 241    57   188      4    112    255     0     0   125  0.477  0.539  0.559  0.443  0.431  0.421  0.411  0.398  0.000  0.000
 1995 242    58   184      4    113    255     0     0   125  0.481  0.524  0.548  0.441  0.431  0.421  0.411  0.398  0.000  0.000
 1995 243    59   181      4    114    255     0     0   125  0.453  0.518  0.540  0.441  0.431  0.421  0.411  0.398  0.000  0.000
 1995 244    60   180      4    114    255     0     0   125  0.452  0.511  0.535  0.440  0.431  0.421  0.411  0.398  0.000  0.000
 1995 245    61   178      4    114    255     0     0   125  0.453  0.506  0.530  0.440  0.431  0.421  0.411  0.398  0.000  0.000
 1995 246    62   177      4    114    255     0     0   125  0.454  0.502  0.527  0.438  0.431  0.421  0.411  0.398  0.000  0.000
 1995 247    63   176      4    114    255     0     0   125  0.453  0.498  0.523  0.437  0.431  0.421  0.411  0.398  0.000  0.000
 1995 248    64   175      4    114    255     0     0   125  0.452  0.494  0.519  0.436  0.431  0.421  0.411  0.398  0.000  0.000
 1995 249    65   174      4    114    255     0     0   125  0.451  0.491  0.517  0.435  0.431  0.421  0.411  0.398  0.000  0.000
 1995 250    66   195      4    114    277     0     0   125  0.561  0.566  0.559  0.442  0.433  0.422  0.411  0.398  0.000  0.000
 1995 251    67   200      4    114    283     0     0   125  0.547  0.567  0.567  0.459  0.440  0.423  0.412  0.398  0.000  0.000
 1995 252    68   198      4    115    284     0     0   125  0.518  0.558  0.561  0.458  0.445  0.424  0.414  0.399  0.000  0.000
 1995 253    69   189      4    120    284     0     0   125  0.475  0.539  0.552  0.450  0.439  0.422  0.411  0.398  0.000  0.000
 1995 254    70   186      4    122    284     0     0   125  0.497  0.524  0.544  0.445  0.436  0.422  0.410  0.398  0.000  0.000
 1995 255    71   192      4    122    292     0     0   125  0.558  0.553  0.542  0.444  0.436  0.422  0.411  0.398  0.000  0.000
 1995 256    72   188      4    123    292     0     0   125  0.485  0.548  0.542  0.442  0.436  0.422  0.412  0.398  0.000  0.000
 1995 257    73   183      4    124    292     0     0   125  0.466  0.526  0.538  0.440  0.434  0.422  0.410  0.397  0.000  0.000
 1995 258    74   179      4    124    292     0     0   125  0.442  0.514  0.532  0.439  0.433  0.422  0.410  0.397  0.000  0.000
 1995 259    75   177      4    124    292     0     0   125  0.439  0.503  0.526  0.438  0.433  0.422  0.410  0.397  0.000  0.000
 1995 260    76   174      4    124    292     0     0   125  0.435  0.494  0.520  0.436  0.433  0.422  0.410  0.397  0.000  0.000
 1995 261    77   173      4    124    292     0     0   125  0.432  0.488  0.515  0.434  0.433  0.422  0.410  0.397  0.000  0.000
 1995 262    78   171      4    124    292     0     0   125  0.429  0.482  0.510  0.432  0.432  0.422  0.410  0.397  0.000  0.000
 1995 263    79   170      4    124    292     0     0   125  0.426  0.479  0.507  0.431  0.432  0.422  0.410  0.397  0.000  0.000
 1995 264    80   169      4    124    293     0     0   125  0.442  0.475  0.504  0.429  0.432  0.422  0.410  0.397  0.000  0.000
 1995 265    81   168      4    124    293     0     0   125  0.433  0.472  0.501  0.428  0.431  0.422  0.410  0.397  0.000  0.000
 1995 266    82   166      4    124    293     0     0   125  0.427  0.468  0.497  0.426  0.431  0.422  0.410  0.397  0.000  0.000
 1995 267    83   177      4    124    306     0     0   125  0.534  0.529  0.493  0.425  0.430  0.422  0.410  0.397  0.000  0.000
 1995 268    84   174      4    124    306     0     0   125  0.493  0.523  0.496  0.423  0.430  0.422  0.410  0.397  0.000  0.000
 1995 269    85   171      4    124    306     0     0   125  0.467  0.509  0.497  0.422  0.429  0.422  0.410  0.397  0.000  0.000
 1995 270    86   170      4    124    306     0     0   125  0.465  0.498  0.497  0.422  0.428  0.422  0.410  0.397  0.000  0.000
 1995 271    87   185      4    124    323     0     0   125  0.552  0.560  0.525  0.421  0.428  0.422  0.410  0.397  0.000  0.000
 1995 272    88   182      4    124    323     0     0   125  0.516  0.546  0.531  0.421  0.427  0.422  0.410  0.397  0.000  0.000
 1995 273    89   180      4    124    323     0     0   125  0.502  0.530  0.529  0.422  0.427  0.422  0.410  0.397  0.000  0.000
 1995 274    90   178      4    124    323     0     0   125  0.502  0.521  0.526  0.422  0.427  0.421  0.410  0.397  0.000  0.000
 1995 275    91   209      4    125    358     0     0   125  0.528  0.559  0.561  0.469  0.460  0.438  0.422  0.402  0.000  0.000
 1995 276    92   206      4    126    360     0     0   125  0.530  0.543  0.553  0.461  0.458  0.436  0.428  0.408  0.000  0.000
 1995 277    93   203      4    128    361     0     0   125  0.541  0.537  0.546  0.454  0.454  0.434  0.430  0.412  0.000  0.000
 1995 278    94   214      4    131    377     0     0   125  0.539  0.566  0.564  0.469  0.460  0.437  0.433  0.416  0.000  0.000
 1995 279    95   198      4    142    377     0     0   125  0.487  0.549  0.549  0.454  0.448  0.430  0.423  0.407  0.000  0.000
 1995 280    96   195      4    143    379     0     0   125  0.539  0.524  0.538  0.448  0.445  0.428  0.423  0.409  0.000  0.000
 1995 281    97   196      4    145    384     0     0   125  0.531  0.557  0.538  0.442  0.441  0.427  0.422  0.410  0.000  0.000
 1995 282    98   189      4    149    384     0     0   125  0.506  0.538  0.537  0.438  0.436  0.424  0.417  0.404  0.000  0.000
 1995 283    99   184      4    151    384     0     0   125  0.509  0.525  0.532  0.436  0.433  0.422  0.413  0.400  0.000  0.000
 1995 284   100   192      4    152    397     0     0   125  0.546  0.559  0.549  0.439  0.433  0.421  0.413  0.400  0.000  0.000
 1995 285   101   185      4    153    397     0     0   125  0.504  0.544  0.539  0.435  0.430  0.421  0.411  0.398  0.000  0.000
 1995 286   102   180      4    154    397     0     0   125  0.489  0.523  0.528  0.431  0.427  0.421  0.411  0.397  0.000  0.000
 1995 287   103   175      4    154    397     0     0   125  0.476  0.509  0.519  0.425  0.423  0.421  0.411  0.397  0.000  0.000
 1995 288   104   171      4    154    397     0     0   125  0.460  0.499  0.512  0.421  0.420  0.421  0.411  0.397  0.000  0.000
 1995 289   105   166      4    154    397     0     0   125  0.441  0.489  0.504  0.416  0.417  0.420  0.411  0.397  0.000  0.000
 1995 290   106   161      4    154    397     0     0   125  0.416  0.478  0.496  0.411  0.413  0.420  0.411  0.397  0.000  0.000
 1995 291   107   157      4    154    397     0     0   125  0.405  0.469  0.490  0.407  0.410  0.419  0.411  0.397  0.000  0.000
 1995 292   108   153      4    154    397     0     0   125  0.396  0.460  0.482  0.401  0.405  0.419  0.411  0.397  0.000  0.000
 1995 293   109   148      4    154    397     0     0   125  0.388  0.450  0.474  0.394  0.400  0.418  0.411  0.397  0.000  0.000
 1995 294   110   143      4    154    397     0     0   125  0.380  0.440  0.465  0.386  0.394  0.417  0.411  0.397  0.000  0.000
 1995 295   111   138      4    154    397     0     0   125  0.372  0.430  0.456  0.380  0.387  0.415  0.411  0.397  0.000  0.000
 1995 296   112   178      4    154    408     1    30   125  0.566  0.565  0.558  0.392  0.386  0.415  0.411  0.397  0.000  0.000
 1995 297   113   192      4    154    424     1    30   125  0.559  0.566  0.562  0.468  0.404  0.414  0.411  0.397  0.000  0.000
 1995 298   114   193      4    154    427     1    30   125  0.557  0.565  0.561  0.461  0.421  0.413  0.410  0.397  0.000  0.000
 1995 299   115   189      4    154    427     1    30   125  0.530  0.553  0.550  0.444  0.425  0.418  0.410  0.397  0.000  0.000
 1995 300   116   184      4    154    427     1    30   125  0.516  0.539  0.543  0.436  0.425  0.418  0.410  0.397  0.000  0.000
 1995 301   117   179      4    154    427     1    30   125  0.507  0.528  0.535  0.429  0.419  0.416  0.410  0.397  0.000  0.000
 1995 302   118   174      4    154    427     1    30   125  0.492  0.519  0.527  0.424  0.414  0.415  0.410  0.397  0.000  0.000
 1995 303   119   169      4    154    427     1    30   125  0.475  0.509  0.519  0.418  0.409  0.413  0.410  0.397  0.000  0.000
 1995 304   120   163      4    154    427     1    30   125  0.467  0.497  0.510  0.412  0.402  0.410  0.410  0.397  0.000  0.000
 1995 305   121   158      4    154    427     1    30   125  0.452  0.488  0.502  0.405  0.397  0.408  0.410  0.397  0.000  0.000
 1995 306   122   152      4    154    427     1    30   125  0.439  0.479  0.494  0.399  0.391  0.406  0.410  0.397  0.000  0.000
 1995 307   123   147      4    154    427     1    30   125  0.425  0.469  0.485  0.392  0.386  0.403  0.410  0.397  0.000  0.000
 1995 308   124   144      4    154    427     1    30   125  0.423  0.462  0.480  0.388  0.384  0.402  0.409  0.397  0.000  0.000
 1995 309   125   145      4    154    431     1    30   125  0.494  0.458  0.475  0.386  0.382  0.400  0.409  0.397  0.000  0.000
 1995 310   126   163      4    154    450     1    30   125  0.551  0.571  0.501  0.385  0.381  0.399  0.409  0.397  0.000  0.000
 1995 311   127   206      5    155    497     1    30   125  0.561  0.557  0.569  0.469  0.460  0.427  0.414  0.399  0.000  0.000
 1995 312   128   208      5    156    505     1    30   125  0.546  0.561  0.561  0.463  0.453  0.435  0.425  0.404  0.000  0.000
 1995 313   129   193      5    164    505     1    30   125  0.524  0.550  0.546  0.446  0.437  0.425  0.417  0.401  0.000  0.000
 1995 314   130   185      5    168    505     1    30   125  0.519  0.534  0.539  0.436  0.429  0.419  0.413  0.398  0.000  0.000
 1995 315   131   179      5    168    505     1    30   125  0.513  0.526  0.533  0.431  0.423  0.415  0.409  0.397  0.000  0.000
 1995 316   132   176      5    168    505     1    30   125  0.510  0.521  0.528  0.428  0.420  0.413  0.408  0.397  0.000  0.000
 1995 317   133   172      5    168    506     1    30   125  0.509  0.515  0.522  0.423  0.416  0.409  0.405  0.397  0.000  0.000
 1995 318   134   166      5    168    506     1    30   125  0.497  0.510  0.516  0.418  0.411  0.406  0.403  0.397  0.000  0.000
 1995 319   135   179      5    168    522     1    30   125  0.563  0.562  0.549  0.422  0.408  0.403  0.400  0.397  0.000  0.000
 1995 320   136   174      5    168    522     1    30   125  0.540  0.550  0.540  0.430  0.404  0.399  0.397  0.397  0.000  0.000
 1995 321   137   169      5    168    522     1    30   125  0.532  0.541  0.537  0.425  0.400  0.395  0.392  0.396  0.000  0.000
 1995 322   138   163      5    168    522     1    30   125  0.522  0.532  0.531  0.420  0.395  0.391  0.387  0.396  0.000  0.000
 1995 323   139   159      5    168    522     1    30   125  0.520  0.526  0.526  0.417  0.393  0.389  0.384  0.396  0.000  0.000
 1995 324   140   155      5    168    522     1    30   125  0.511  0.520  0.521  0.413  0.390  0.387  0.381  0.395  0.000  0.000
 1995 325   141   152      5    168    524     1    30   125  0.541  0.516  0.514  0.408  0.386  0.384  0.377  0.395  0.000  0.000
 1995 326   142   146      5    168    524     1    30   125  0.503  0.516  0.508  0.401  0.382  0.380  0.373  0.394  0.000  0.000
 1995 327   143   140      5    168    524     1    30   125  0.492  0.505  0.501  0.395  0.379  0.378  0.370  0.393  0.000  0.000
 1995 328   144   134      5    168    524     1    30   125  0.478  0.494  0.493  0.388  0.376  0.375  0.367  0.393  0.000  0.000
 1995 329   145   129      5    168    524     1    30   125  0.465  0.484  0.484  0.382  0.373  0.372  0.365  0.392  0.000  0.000
 1995 330   146   122      5    168    524     1    30   125  0.449  0.472  0.475  0.377  0.370  0.369  0.362  0.391  0.000  0.000
 1995 331   147   116      5    168    524     1    30   125  0.431  0.460  0.464  0.373  0.367  0.366  0.360  0.389  0.000  0.000
 1995 332   148   109      5    168    524     1    30   125  0.414  0.447  0.452  0.369  0.364  0.364  0.357  0.386  0.000  0.000
 1995 333   149   107      5    168    524     1    30   125  0.413  0.440  0.448  0.367  0.363  0.363  0.357  0.384  0.000  0.000
 1995 334   150   102      5    168    524     1    30   125  0.404  0.431  0.439  0.365  0.362  0.361  0.355  0.381  0.000  0.000
 1995 335   151   127      5    168    524     2    61   125  0.555  0.558  0.486  0.362  0.359  0.359  0.353  0.376  0.000  0.000
 1995 336   152   120      5    168    524     2    61   125  0.524  0.532  0.485  0.361  0.357  0.357  0.351  0.371  0.000  0.000
 1995 337   153   113      5    168    524     2    61   125  0.502  0.510  0.476  0.359  0.355  0.355  0.349  0.365  0.000  0.000
 1995 338   154   106      5    168    524     2    61   125  0.477  0.491  0.464  0.358  0.353  0.353  0.347  0.360  0.000  0.000
 1995 339   155   101      5    168    524     2    61   125  0.460  0.476  0.455  0.356  0.352  0.352  0.346  0.357  0.000  0.000
 1995 340   156    95      5    168    524     2    61   125  0.439  0.461  0.443  0.355  0.350  0.350  0.344  0.353  0.000  0.000
 1995 341   157    89      5    168    524     2    61   125  0.419  0.446  0.432  0.353  0.349  0.349  0.343  0.350  0.000  0.000
 1995 342   158   112      5    168    524     3    91   125  0.551  0.550  0.489  0.351  0.347  0.347  0.341  0.346  0.000  0.000
 1995 343   159   106      5    168    524     3    91   125  0.520  0.526  0.484  0.351  0.346  0.346  0.340  0.342  0.000  0.000
 1995 344   160   100      5    168    524     3    91   125  0.496  0.505  0.473  0.351  0.345  0.345  0.339  0.339  0.000  0.000
 1995 345   161    93      5    168    524     3    91   125  0.469  0.485  0.459  0.350  0.344  0.344  0.337  0.336  0.000  0.000
 1995 346   162    87      5    168    524     3    91   125  0.447  0.467  0.447  0.349  0.343  0.343  0.336  0.334  0.000  0.000
 1995 347   163    80      5    168    524     3    91   125  0.422  0.449  0.432  0.347  0.341  0.341  0.335  0.331  0.000  0.000
 1995 348   164   103      5    168    524     4   120   125  0.548  0.547  0.487  0.345  0.340  0.340  0.333  0.329  0.000  0.000
 1995 349   165    98      5    168    525     4   120   125  0.525  0.524  0.479  0.346  0.339  0.339  0.332  0.327  0.000  0.000
 1995 350   166    88      5    168    525     4   120   125  0.478  0.496  0.459  0.345  0.337  0.337  0.331  0.325  0.000  0.000
 1995 351   167    81      5    168    525     4   120   125  0.453  0.473  0.444  0.344  0.337  0.336  0.330  0.323  0.000  0.000
 1995 352   168    75      5    168    525     4   120   125  0.427  0.454  0.430  0.343  0.336  0.336  0.329  0.322  0.000  0.000
 1995 353   169    70      5    168    525     4   120   125  0.411  0.436  0.420  0.342  0.335  0.335  0.328  0.321  0.000  0.000
 1995 354   170    99      5    168    525     5   153   125  0.561  0.557  0.491  0.341  0.334  0.334  0.327  0.320  0.000  0.000
 1995 355   171   101      5    168    529     5   153   125  0.557  0.554  0.509  0.342  0.334  0.334  0.327  0.320  0.000  0.000
 1995 356   172   121      5    168    551     5   153   125  0.556  0.555  0.564  0.417  0.334  0.334  0.327  0.319  0.000  0.000
 1995 357   173   115      5    168    552     5   153   125  0.532  0.546  0.544  0.416  0.335  0.333  0.326  0.318  0.000  0.000
 1995 358   174   109      5    168    552     5   153   125  0.512  0.531  0.530  0.406  0.335  0.332  0.325  0.317  0.000  0.000
 1995 359   175   102      5    168    552     5   153   125  0.495  0.514  0.516  0.395  0.336  0.332  0.325  0.317  0.000  0.000
 1995 360   176    95      5    168    552     5   153   125  0.472  0.498  0.502  0.384  0.336  0.331  0.324  0.316  0.000  0.000
 1995 361   177    89      5    168    552     5   153   125  0.449  0.482  0.487  0.376  0.336  0.331  0.324  0.315  0.000  0.000
 1995 362   178    83      5    168    552     5   153   125  0.430  0.468  0.475  0.371  0.336  0.330  0.323  0.314  0.000  0.000
 1995 363   179    78      5    168    552     5   153   125  0.417  0.453  0.462  0.368  0.335  0.330  0.323  0.314  0.000  0.000
 1995 364   180    72      5    168    552     5   153   125  0.396  0.437  0.447  0.363  0.335  0.329  0.322  0.313  0.000  0.000
 1995 365   181    94      5    168    552     6   182   125  0.542  0.549  0.481  0.358  0.334  0.328  0.321  0.312  0.000  0.000
 1996 001   182    88      5    168    552     6   182   125  0.505  0.523  0.474  0.357  0.334  0.328  0.321  0.311  0.000  0.000
 1996 002   183    81      5    168    552     6   182   125  0.469  0.496  0.461  0.355  0.333  0.327  0.320  0.311  0.000  0.000
 1996 003   184    74      5    168    552     6   182   125  0.435  0.474  0.447  0.353  0.332  0.327  0.319  0.310  0.000  0.000
 1996 004   185    70      5    168    552     6   182   125  0.418  0.457  0.437  0.351  0.332  0.326  0.319  0.310  0.000  0.000
 1996 005   186    89      5    168    577     6   182   125  0.539  0.549  0.468  0.349  0.331  0.326  0.318  0.309  0.000  0.000
 1996 006   187    82      5    168    577     6   182   125  0.495  0.521  0.462  0.349  0.331  0.325  0.318  0.308  0.000  0.000
 1996 007   188    76      5    168    577     6   182   125  0.460  0.494  0.451  0.348  0.330  0.325  0.317  0.308  0.000  0.000
 1996 008   189    69      5    168    577     6   182   125  0.428  0.472  0.438  0.346  0.330  0.324  0.317  0.307  0.000  0.000
 1996 009   190    63      5    168    577     6   182   125  0.388  0.451  0.424  0.345  0.329  0.324  0.316  0.307  0.000  0.000
 1996 010   191    87      5    168    577     7   214   125  0.530  0.540  0.485  0.343  0.328  0.323  0.316  0.306  0.000  0.000
 1996 011   192    83      5    168    577     7   214   125  0.511  0.521  0.482  0.344  0.328  0.323  0.315  0.306  0.000  0.000
