*SOIL TEMPERATURE OUTPUT FILE (DAILY)

*DSSAT Cropping System Model Ver. 4.0.2.000               Aug 12, 2016; 12:46:13

*RUN   1        : UYMZ                    
 MODEL          : MZCER040 - Maize           
 EXPERIMENT     : UYMZ0193 MZ    late to create DSS                             
 TREATMENT  1   : UYMZ                    

@YEAR DOY   DAS  TS1D  TS2D  TS3D  TS4D  TS5D  TS6D  TS7D  TS8D  TS9D  TS10
 2000 097     0  23.0  22.5  21.7  20.8  20.0  18.9  18.1   0.0   0.0   0.0
 2000 098     1  23.1  22.6  21.8  20.9  20.0  19.0  18.1   0.0   0.0   0.0
 2000 099     2  23.3  22.8  22.0  21.0  20.2  19.1  18.2   0.0   0.0   0.0
 2000 100     3  23.0  22.6  21.8  20.9  20.1  19.1  18.2   0.0   0.0   0.0
 2000 101     4  22.9  22.4  21.7  20.8  20.1  19.0  18.2   0.0   0.0   0.0
 2000 102     5  22.9  22.4  21.7  20.9  20.1  19.0  18.2   0.0   0.0   0.0
 2000 103     6  21.6  21.4  20.9  20.2  19.6  18.7  18.0   0.0   0.0   0.0
 2000 104     7  21.0  20.8  20.4  19.9  19.3  18.6  17.9   0.0   0.0   0.0
 2000 105     8  20.6  20.5  20.1  19.7  19.2  18.5  17.9   0.0   0.0   0.0
 2000 106     9  20.4  20.3  20.0  19.6  19.1  18.4  17.8   0.0   0.0   0.0
 2000 107    10  20.6  20.5  20.2  19.7  19.2  18.5  17.9   0.0   0.0   0.0
 2000 108    11  20.9  20.7  20.4  19.9  19.3  18.6  17.9   0.0   0.0   0.0
 2000 109    12  20.3  20.2  19.9  19.5  19.1  18.5  17.9   0.0   0.0   0.0
 2000 110    13  19.8  19.8  19.6  19.3  18.9  18.4  17.8   0.0   0.0   0.0
 2000 111    14  19.3  19.3  19.3  19.1  18.8  18.3  17.7   0.0   0.0   0.0
 2000 112    15  19.1  19.1  19.1  19.0  18.7  18.2  17.7   0.0   0.0   0.0
 2000 113    16  19.3  19.4  19.3  19.1  18.8  18.3  17.8   0.0   0.0   0.0
 2000 114    17  20.0  20.0  19.8  19.5  19.1  18.5  17.9   0.0   0.0   0.0
 2000 115    18  21.1  20.9  20.5  20.0  19.5  18.7  18.0   0.0   0.0   0.0
 2000 116    19  21.9  21.6  21.0  20.4  19.8  18.9  18.2   0.0   0.0   0.0
 2000 117    20  22.6  22.2  21.5  20.8  20.1  19.1  18.3   0.0   0.0   0.0
 2000 118    21  22.5  22.1  21.5  20.8  20.0  19.1  18.3   0.0   0.0   0.0
 2000 119    22  22.6  22.2  21.6  20.8  20.1  19.2  18.3   0.0   0.0   0.0
 2000 120    23  22.2  21.8  21.3  20.6  19.9  19.0  18.3   0.0   0.0   0.0
 2000 121    24  21.4  21.2  20.7  20.2  19.6  18.9  18.1   0.0   0.0   0.0
 2000 122    25  20.8  20.6  20.3  19.9  19.4  18.7  18.1   0.0   0.0   0.0
 2000 123    26  20.1  20.1  19.9  19.5  19.2  18.6  18.0   0.0   0.0   0.0
 2000 124    27  19.1  19.2  19.2  19.0  18.8  18.3  17.8   0.0   0.0   0.0
 2000 125    28  18.1  18.3  18.5  18.5  18.4  18.1  17.7   0.0   0.0   0.0
 2000 126    29  17.6  17.9  18.1  18.2  18.2  17.9  17.6   0.0   0.0   0.0
 2000 127    30  16.6  17.0  17.5  17.7  17.8  17.7  17.5   0.0   0.0   0.0
 2000 128    31  16.5  16.9  17.3  17.6  17.7  17.7  17.4   0.0   0.0   0.0
 2000 129    32  16.3  16.7  17.2  17.5  17.7  17.6  17.4   0.0   0.0   0.0
 2000 130    33  16.3  16.7  17.2  17.6  17.7  17.6  17.4   0.0   0.0   0.0
 2000 131    34  16.2  16.7  17.2  17.5  17.7  17.6  17.4   0.0   0.0   0.0
 2000 132    35  16.4  16.8  17.3  17.6  17.7  17.7  17.4   0.0   0.0   0.0
 2000 133    36  16.9  17.3  17.7  17.9  17.9  17.8  17.5   0.0   0.0   0.0
 2000 134    37  17.5  17.7  18.0  18.2  18.2  17.9  17.6   0.0   0.0   0.0
 2000 135    38  17.8  18.0  18.2  18.3  18.3  18.0  17.7   0.0   0.0   0.0
 2000 136    39  17.7  17.9  18.2  18.3  18.2  18.0  17.7   0.0   0.0   0.0
 2000 137    40  17.7  18.0  18.2  18.3  18.3  18.0  17.7   0.0   0.0   0.0
 2000 138    41  17.1  17.4  17.8  18.0  18.0  17.9  17.6   0.0   0.0   0.0
 2000 139    42  16.7  17.0  17.5  17.7  17.8  17.8  17.5   0.0   0.0   0.0
 2000 140    43  16.5  16.9  17.3  17.6  17.8  17.7  17.5   0.0   0.0   0.0
 2000 141    44  16.3  16.7  17.2  17.5  17.7  17.7  17.5   0.0   0.0   0.0
 2000 142    45  16.3  16.7  17.2  17.6  17.7  17.7  17.5   0.0   0.0   0.0
 2000 143    46  16.6  17.0  17.4  17.7  17.8  17.8  17.5   0.0   0.0   0.0
 2000 144    47  16.6  17.0  17.4  17.7  17.8  17.8  17.5   0.0   0.0   0.0
 2000 145    48  16.6  17.0  17.4  17.7  17.8  17.8  17.5   0.0   0.0   0.0
 2000 146    49  16.6  16.9  17.4  17.7  17.8  17.7  17.5   0.0   0.0   0.0
 2000 147    50  16.6  16.9  17.4  17.7  17.8  17.8  17.6   0.0   0.0   0.0
 2000 148    51  16.2  16.6  17.1  17.5  17.6  17.7  17.5   0.0   0.0   0.0
 2000 149    52  15.7  16.2  16.8  17.2  17.5  17.5  17.4   0.0   0.0   0.0
 2000 150    53  15.1  15.7  16.4  16.9  17.2  17.4  17.3   0.0   0.0   0.0
 2000 151    54  15.4  15.9  16.5  17.0  17.3  17.5  17.4   0.0   0.0   0.0
 2000 152    55  14.8  15.3  16.1  16.7  17.1  17.3  17.3   0.0   0.0   0.0
 2000 153    56  14.1  14.8  15.6  16.4  16.8  17.1  17.2   0.0   0.0   0.0
 2000 154    57  13.6  14.4  15.3  16.1  16.6  17.0  17.1   0.0   0.0   0.0
 2000 155    58  13.7  14.4  15.4  16.2  16.7  17.0  17.1   0.0   0.0   0.0
 2000 156    59  13.7  14.4  15.3  16.1  16.6  17.0  17.1   0.0   0.0   0.0
 2000 157    60  14.5  15.1  15.9  16.6  17.0  17.2  17.3   0.0   0.0   0.0
 2000 158    61  15.3  15.8  16.4  17.0  17.3  17.4  17.4   0.0   0.0   0.0
 2000 159    62  16.3  16.6  17.1  17.4  17.6  17.7  17.5   0.0   0.0   0.0
 2000 160    63  16.8  17.1  17.4  17.7  17.8  17.8  17.6   0.0   0.0   0.0
 2000 161    64  16.9  17.2  17.5  17.8  17.9  17.8  17.6   0.0   0.0   0.0
 2000 162    65  16.3  16.6  17.0  17.4  17.6  17.7  17.5   0.0   0.0   0.0
 2000 163    66  16.4  16.7  17.1  17.5  17.6  17.7  17.6   0.0   0.0   0.0
 2000 164    67  16.4  16.7  17.1  17.5  17.6  17.7  17.6   0.0   0.0   0.0
 2000 165    68  17.0  17.2  17.5  17.8  17.9  17.8  17.7   0.0   0.0   0.0
 2000 166    69  18.2  18.3  18.4  18.4  18.4  18.2  17.9   0.0   0.0   0.0
 2000 167    70  19.9  19.7  19.5  19.2  19.0  18.6  18.1   0.0   0.0   0.0
 2000 168    71  19.4  19.3  19.2  19.0  18.8  18.5  18.0   0.0   0.0   0.0
 2000 169    72  18.6  18.6  18.6  18.6  18.5  18.2  17.9   0.0   0.0   0.0
 2000 170    73  16.9  17.2  17.4  17.7  17.8  17.8  17.7   0.0   0.0   0.0
 2000 171    74  14.9  15.4  16.0  16.6  17.0  17.3  17.3   0.0   0.0   0.0
 2000 172    75  12.4  13.2  14.3  15.3  16.0  16.6  16.9   0.0   0.0   0.0
 2000 173    76  11.8  12.7  13.9  15.0  15.8  16.5  16.8   0.0   0.0   0.0
 2000 174    77  11.9  12.7  13.9  15.0  15.8  16.5  16.8   0.0   0.0   0.0
 2000 175    78  12.0  12.8  14.0  15.1  15.8  16.5  16.8   0.0   0.0   0.0
 2000 176    79  13.4  14.0  14.9  15.8  16.4  16.9  17.1   0.0   0.0   0.0
 2000 177    80  14.1  14.6  15.4  16.1  16.6  17.0  17.2   0.0   0.0   0.0
 2000 178    81  14.1  14.6  15.4  16.1  16.6  17.0  17.2   0.0   0.0   0.0
 2000 179    82  14.1  14.7  15.4  16.1  16.6  17.0  17.2   0.0   0.0   0.0
 2000 180    83  14.8  15.2  15.9  16.5  16.9  17.2  17.3   0.0   0.0   0.0
 2000 181    84  13.4  14.0  14.9  15.7  16.3  16.8  17.1   0.0   0.0   0.0
 2000 182    85  13.3  13.9  14.8  15.7  16.3  16.8  17.0   0.0   0.0   0.0
 2000 183    86  13.5  14.1  15.0  15.8  16.3  16.8  17.1   0.0   0.0   0.0
 2000 184    87  13.4  14.0  14.9  15.7  16.3  16.8  17.0   0.0   0.0   0.0
 2000 185    88  12.6  13.3  14.3  15.3  15.9  16.6  16.9   0.0   0.0   0.0
 2000 186    89  12.8  13.5  14.5  15.4  16.0  16.6  16.9   0.0   0.0   0.0
 2000 187    90  13.5  14.1  14.9  15.7  16.3  16.8  17.0   0.0   0.0   0.0
 2000 188    91  15.3  15.6  16.1  16.6  16.9  17.2  17.3   0.0   0.0   0.0
 2000 189    92  17.0  17.1  17.3  17.5  17.6  17.7  17.6   0.0   0.0   0.0
 2000 190    93  17.7  17.7  17.8  17.8  17.9  17.9  17.7   0.0   0.0   0.0
 2000 191    94  17.4  17.4  17.5  17.7  17.7  17.8  17.6   0.0   0.0   0.0
 2000 192    95  16.5  16.7  16.9  17.2  17.4  17.5  17.5   0.0   0.0   0.0
 2000 193    96  14.4  14.8  15.4  16.1  16.5  17.0  17.2   0.0   0.0   0.0
 2000 194    97  12.1  12.8  13.9  14.9  15.6  16.3  16.8   0.0   0.0   0.0
 2000 195    98  10.8  11.7  12.9  14.1  15.1  16.0  16.5   0.0   0.0   0.0
 2000 196    99  10.0  11.0  12.4  13.7  14.8  15.8  16.4   0.0   0.0   0.0
 2000 197   100   9.0  10.1  11.7  13.2  14.4  15.5  16.3   0.0   0.0   0.0
 2000 198   101   8.6   9.8  11.4  13.0  14.2  15.4  16.2   0.0   0.0   0.0
 2000 199   102   8.4   9.6  11.3  12.9  14.1  15.4  16.2   0.0   0.0   0.0
 2000 200   103   8.6   9.8  11.4  13.0  14.2  15.4  16.2   0.0   0.0   0.0
 2000 201   104   8.5   9.6  11.3  12.9  14.1  15.4  16.2   0.0   0.0   0.0
 2000 202   105   9.3  10.3  11.8  13.3  14.4  15.6  16.3   0.0   0.0   0.0
 2000 203   106  10.4  11.3  12.6  13.9  14.8  15.8  16.5   0.0   0.0   0.0
 2000 204   107  10.5  11.4  12.7  13.9  14.9  15.9  16.5   0.0   0.0   0.0
 2000 205   108  10.4  11.3  12.6  13.8  14.8  15.8  16.4   0.0   0.0   0.0
 2000 206   109  11.5  12.3  13.3  14.4  15.2  16.1  16.6   0.0   0.0   0.0
 2000 207   110  12.1  12.7  13.7  14.7  15.4  16.2  16.7   0.0   0.0   0.0
 2000 208   111  11.6  12.3  13.4  14.4  15.2  16.1  16.6   0.0   0.0   0.0
 2000 209   112  11.8  12.5  13.5  14.5  15.3  16.1  16.6   0.0   0.0   0.0

*DSSAT Cropping System Model Ver. 4.0.2.000               Aug 12, 2016; 12:46:13

*RUN   2        : UYMZ                    
 MODEL          : MZCER040 - Maize           
 EXPERIMENT     : UYMZ0193 MZ    late to create DSS                             
 TREATMENT  1   : UYMZ                    

@YEAR DOY   DAS  TS1D  TS2D  TS3D  TS4D  TS5D  TS6D  TS7D  TS8D  TS9D  TS10
 2001 097     0  20.1  20.0  19.8  19.4  18.9  18.2  17.7   0.0   0.0   0.0
 2001 098     1  20.7  20.5  20.2  19.6  19.1  18.4  17.8   0.0   0.0   0.0
 2001 099     2  20.3  20.2  19.9  19.5  19.0  18.3  17.7   0.0   0.0   0.0
 2001 100     3  20.8  20.6  20.2  19.7  19.2  18.4  17.8   0.0   0.0   0.0
 2001 101     4  21.6  21.3  20.8  20.1  19.5  18.7  17.9   0.0   0.0   0.0
 2001 102     5  22.1  21.7  21.1  20.4  19.7  18.8  18.0   0.0   0.0   0.0
 2001 103     6  22.3  21.9  21.3  20.5  19.8  18.9  18.1   0.0   0.0   0.0
 2001 104     7  23.7  23.2  22.3  21.3  20.4  19.2  18.3   0.0   0.0   0.0
 2001 105     8  24.2  23.5  22.6  21.5  20.5  19.3  18.4   0.0   0.0   0.0
 2001 106     9  23.8  23.3  22.4  21.3  20.4  19.3  18.3   0.0   0.0   0.0
 2001 107    10  23.7  23.1  22.2  21.3  20.4  19.2  18.3   0.0   0.0   0.0
 2001 108    11  24.2  23.5  22.6  21.5  20.6  19.4  18.4   0.0   0.0   0.0
 2001 109    12  23.8  23.2  22.3  21.3  20.4  19.3  18.4   0.0   0.0   0.0
 2001 110    13  23.0  22.5  21.8  20.9  20.1  19.1  18.2   0.0   0.0   0.0
 2001 111    14  22.3  21.9  21.3  20.6  19.9  18.9  18.2   0.0   0.0   0.0
 2001 112    15  21.3  21.1  20.7  20.1  19.5  18.7  18.0   0.0   0.0   0.0
 2001 113    16  19.3  19.4  19.3  19.1  18.8  18.2  17.7   0.0   0.0   0.0
 2001 114    17  18.1  18.3  18.5  18.4  18.3  17.9  17.5   0.0   0.0   0.0
 2001 115    18  17.3  17.6  17.9  18.1  18.0  17.7  17.4   0.0   0.0   0.0
 2001 116    19  17.6  17.9  18.1  18.2  18.1  17.8  17.5   0.0   0.0   0.0
 2001 117    20  18.0  18.2  18.4  18.4  18.3  17.9  17.5   0.0   0.0   0.0
 2001 118    21  17.8  18.1  18.3  18.3  18.2  17.9  17.5   0.0   0.0   0.0
 2001 119    22  17.5  17.8  18.1  18.2  18.1  17.8  17.5   0.0   0.0   0.0
 2001 120    23  17.5  17.7  18.0  18.1  18.1  17.8  17.5   0.0   0.0   0.0
 2001 121    24  17.0  17.4  17.7  17.9  17.9  17.7  17.4   0.0   0.0   0.0
 2001 122    25  16.4  16.8  17.3  17.6  17.7  17.6  17.3   0.0   0.0   0.0
 2001 123    26  16.1  16.6  17.1  17.5  17.6  17.5  17.3   0.0   0.0   0.0
 2001 124    27  16.0  16.5  17.0  17.4  17.5  17.5  17.3   0.0   0.0   0.0
 2001 125    28  16.0  16.5  17.0  17.4  17.5  17.5  17.3   0.0   0.0   0.0
 2001 126    29  15.5  16.0  16.7  17.1  17.3  17.4  17.2   0.0   0.0   0.0
 2001 127    30  15.4  16.0  16.6  17.1  17.3  17.4  17.2   0.0   0.0   0.0
 2001 128    31  15.9  16.4  17.0  17.4  17.5  17.5  17.3   0.0   0.0   0.0
 2001 129    32  16.5  16.9  17.4  17.7  17.8  17.7  17.4   0.0   0.0   0.0
 2001 130    33  16.4  16.8  17.3  17.6  17.7  17.6  17.4   0.0   0.0   0.0
 2001 131    34  16.0  16.4  17.0  17.4  17.5  17.5  17.4   0.0   0.0   0.0
 2001 132    35  15.7  16.2  16.8  17.2  17.4  17.5  17.3   0.0   0.0   0.0
 2001 133    36  14.8  15.4  16.2  16.8  17.1  17.2  17.2   0.0   0.0   0.0
 2001 134    37  14.2  14.9  15.8  16.5  16.9  17.1  17.1   0.0   0.0   0.0
 2001 135    38  13.7  14.4  15.4  16.2  16.7  17.0  17.0   0.0   0.0   0.0
 2001 136    39  13.9  14.7  15.6  16.3  16.8  17.0  17.1   0.0   0.0   0.0
 2001 137    40  14.3  14.9  15.8  16.5  16.9  17.1  17.1   0.0   0.0   0.0
 2001 138    41  14.9  15.5  16.3  16.9  17.2  17.3  17.2   0.0   0.0   0.0
 2001 139    42  15.3  15.9  16.6  17.1  17.3  17.4  17.3   0.0   0.0   0.0
 2001 140    43  15.8  16.2  16.8  17.3  17.5  17.5  17.4   0.0   0.0   0.0
 2001 141    44  15.8  16.2  16.8  17.3  17.5  17.5  17.4   0.0   0.0   0.0
 2001 142    45  15.8  16.3  16.9  17.3  17.5  17.5  17.4   0.0   0.0   0.0
 2001 143    46  15.9  16.4  16.9  17.4  17.5  17.6  17.4   0.0   0.0   0.0
 2001 144    47  16.3  16.7  17.2  17.6  17.7  17.7  17.5   0.0   0.0   0.0
 2001 145    48  17.1  17.4  17.7  18.0  18.0  17.9  17.6   0.0   0.0   0.0
 2001 146    49  18.3  18.4  18.5  18.6  18.5  18.2  17.8   0.0   0.0   0.0
 2001 147    50  19.1  19.1  19.1  19.0  18.8  18.4  18.0   0.0   0.0   0.0
 2001 148    51  19.3  19.3  19.3  19.1  18.9  18.5  18.0   0.0   0.0   0.0
 2001 149    52  19.8  19.8  19.6  19.4  19.1  18.6  18.1   0.0   0.0   0.0
 2001 150    53  19.6  19.5  19.4  19.2  19.0  18.5  18.0   0.0   0.0   0.0
 2001 151    54  19.5  19.5  19.4  19.2  18.9  18.5  18.0   0.0   0.0   0.0
 2001 152    55  19.4  19.4  19.3  19.1  18.9  18.5  18.0   0.0   0.0   0.0
 2001 153    56  19.5  19.5  19.4  19.2  18.9  18.5  18.1   0.0   0.0   0.0
 2001 154    57  19.1  19.1  19.1  19.0  18.8  18.4  18.0   0.0   0.0   0.0
 2001 155    58  19.2  19.1  19.1  19.0  18.8  18.4  18.0   0.0   0.0   0.0
 2001 156    59  18.9  18.9  18.9  18.8  18.7  18.4  18.0   0.0   0.0   0.0
 2001 157    60  17.9  18.1  18.2  18.3  18.3  18.1  17.8   0.0   0.0   0.0
 2001 158    61  17.8  18.0  18.1  18.2  18.2  18.1  17.8   0.0   0.0   0.0
 2001 159    62  17.4  17.6  17.8  18.0  18.1  18.0  17.7   0.0   0.0   0.0
 2001 160    63  17.3  17.5  17.8  18.0  18.0  17.9  17.7   0.0   0.0   0.0
 2001 161    64  17.4  17.6  17.8  18.0  18.0  17.9  17.7   0.0   0.0   0.0
 2001 162    65  18.0  18.1  18.2  18.3  18.3  18.1  17.8   0.0   0.0   0.0
 2001 163    66  18.7  18.7  18.7  18.7  18.6  18.3  17.9   0.0   0.0   0.0
 2001 164    67  19.7  19.6  19.4  19.2  18.9  18.5  18.1   0.0   0.0   0.0
 2001 165    68  20.8  20.6  20.2  19.8  19.4  18.8  18.3   0.0   0.0   0.0
 2001 166    69  20.0  19.8  19.6  19.3  19.0  18.6  18.1   0.0   0.0   0.0
 2001 167    70  18.8  18.8  18.7  18.7  18.5  18.3  17.9   0.0   0.0   0.0
 2001 168    71  17.0  17.2  17.5  17.7  17.8  17.8  17.7   0.0   0.0   0.0
 2001 169    72  15.1  15.6  16.2  16.7  17.1  17.3  17.4   0.0   0.0   0.0
 2001 170    73  12.8  13.5  14.6  15.5  16.2  16.7  17.0   0.0   0.0   0.0
 2001 171    74  11.8  12.7  13.9  15.0  15.8  16.5  16.8   0.0   0.0   0.0
 2001 172    75  11.3  12.2  13.5  14.7  15.6  16.3  16.7   0.0   0.0   0.0
 2001 173    76  11.1  12.1  13.4  14.6  15.5  16.3  16.7   0.0   0.0   0.0
 2001 174    77  10.8  11.8  13.2  14.4  15.4  16.2  16.6   0.0   0.0   0.0
 2001 175    78  10.9  11.9  13.2  14.5  15.4  16.2  16.7   0.0   0.0   0.0
 2001 176    79  11.5  12.4  13.6  14.8  15.6  16.4  16.8   0.0   0.0   0.0
 2001 177    80  12.0  12.8  14.0  15.0  15.8  16.5  16.8   0.0   0.0   0.0
 2001 178    81  12.3  13.1  14.2  15.2  15.9  16.6  16.9   0.0   0.0   0.0
 2001 179    82  12.8  13.5  14.5  15.5  16.1  16.7  17.0   0.0   0.0   0.0
 2001 180    83  13.4  14.0  14.9  15.7  16.3  16.8  17.1   0.0   0.0   0.0
 2001 181    84  14.3  14.8  15.5  16.2  16.7  17.0  17.2   0.0   0.0   0.0
 2001 182    85  15.2  15.6  16.1  16.7  17.0  17.3  17.3   0.0   0.0   0.0
 2001 183    86  15.6  15.9  16.4  16.9  17.2  17.4  17.4   0.0   0.0   0.0
 2001 184    87  16.0  16.3  16.7  17.0  17.3  17.5  17.5   0.0   0.0   0.0
 2001 185    88  15.8  16.1  16.5  16.9  17.2  17.4  17.4   0.0   0.0   0.0
 2001 186    89  15.1  15.5  16.0  16.5  16.9  17.2  17.3   0.0   0.0   0.0
 2001 187    90  14.2  14.7  15.4  16.1  16.6  17.0  17.2   0.0   0.0   0.0
 2001 188    91  15.3  15.6  16.1  16.6  17.0  17.3  17.3   0.0   0.0   0.0
 2001 189    92  16.4  16.6  16.9  17.2  17.4  17.5  17.5   0.0   0.0   0.0
 2001 190    93  18.0  17.9  17.9  18.0  18.0  17.9  17.7   0.0   0.0   0.0
 2001 191    94  17.7  17.7  17.7  17.8  17.9  17.8  17.7   0.0   0.0   0.0
 2001 192    95  17.4  17.5  17.6  17.7  17.8  17.8  17.6   0.0   0.0   0.0
 2001 193    96  15.4  15.7  16.2  16.6  16.9  17.2  17.3   0.0   0.0   0.0
 2001 194    97  13.3  13.8  14.7  15.5  16.1  16.7  17.0   0.0   0.0   0.0
 2001 195    98  11.7  12.4  13.5  14.6  15.4  16.2  16.7   0.0   0.0   0.0
 2001 196    99  12.2  12.9  13.9  14.9  15.7  16.4  16.8   0.0   0.0   0.0
 2001 197   100  13.6  14.1  14.9  15.6  16.2  16.7  17.0   0.0   0.0   0.0
 2001 198   101  15.1  15.4  15.9  16.4  16.7  17.1  17.2   0.0   0.0   0.0
 2001 199   102  16.2  16.4  16.6  16.9  17.2  17.4  17.4   0.0   0.0   0.0
 2001 200   103  16.3  16.5  16.7  17.0  17.2  17.4  17.4   0.0   0.0   0.0
 2001 201   104  16.1  16.3  16.5  16.9  17.1  17.3  17.4   0.0   0.0   0.0
 2001 202   105  14.8  15.1  15.6  16.2  16.6  17.0  17.2   0.0   0.0   0.0
 2001 203   106  13.3  13.8  14.6  15.4  16.0  16.6  16.9   0.0   0.0   0.0
 2001 204   107  11.9  12.5  13.6  14.6  15.4  16.2  16.7   0.0   0.0   0.0
 2001 205   108  11.1  11.9  13.0  14.2  15.1  16.0  16.5   0.0   0.0   0.0
 2001 206   109  10.7  11.5  12.7  13.9  14.9  15.9  16.5   0.0   0.0   0.0
 2001 207   110  10.1  11.0  12.3  13.6  14.6  15.7  16.4   0.0   0.0   0.0
 2001 208   111   9.8  10.8  12.1  13.5  14.5  15.6  16.3   0.0   0.0   0.0
 2001 209   112  10.0  10.9  12.2  13.5  14.6  15.6  16.3   0.0   0.0   0.0
 2001 210   113  10.5  11.3  12.5  13.8  14.7  15.8  16.4   0.0   0.0   0.0
 2001 211   114  11.0  11.7  12.9  14.0  14.9  15.9  16.5   0.0   0.0   0.0
 2001 212   115  12.9  13.4  14.2  15.0  15.7  16.4  16.8   0.0   0.0   0.0
 2001 213   116  15.6  15.7  16.0  16.4  16.7  17.0  17.2   0.0   0.0   0.0
 2001 214   117  18.7  18.4  18.1  18.0  17.9  17.8  17.7   0.0   0.0   0.0
 2001 215   118  21.2  20.6  19.9  19.3  18.9  18.4  18.1   0.0   0.0   0.0
 2001 216   119  22.5  21.7  20.7  19.9  19.3  18.7  18.3   0.0   0.0   0.0
 2001 217   120  22.6  21.8  20.7  19.9  19.3  18.7  18.3   0.0   0.0   0.0
 2001 218   121  22.1  21.3  20.4  19.7  19.1  18.6  18.2   0.0   0.0   0.0
 2001 219   122  20.2  19.7  19.1  18.6  18.4  18.1  17.9   0.0   0.0   0.0
 2001 220   123  18.4  18.2  17.9  17.7  17.7  17.7  17.6   0.0   0.0   0.0
 2001 221   124  16.9  16.9  16.8  16.9  17.1  17.3  17.3   0.0   0.0   0.0
 2001 222   125  16.1  16.1  16.2  16.5  16.7  17.0  17.2   0.0   0.0   0.0
 2001 223   126  15.6  15.7  15.9  16.2  16.5  16.9  17.1   0.0   0.0   0.0
 2001 224   127  16.7  16.6  16.6  16.7  16.9  17.1  17.3   0.0   0.0   0.0
 2001 225   128  17.4  17.2  17.1  17.1  17.2  17.3  17.4   0.0   0.0   0.0
 2001 226   129  19.2  18.8  18.3  18.0  17.9  17.8  17.6   0.0   0.0   0.0
 2001 227   130  20.0  19.5  18.9  18.4  18.2  17.9  17.7   0.0   0.0   0.0
 2001 228   131  20.3  19.7  19.0  18.5  18.2  18.0  17.8   0.0   0.0   0.0
 2001 229   132  19.8  19.3  18.7  18.3  18.1  17.9  17.7   0.0   0.0   0.0
 2001 230   133  19.1  18.7  18.2  17.9  17.8  17.7  17.6   0.0   0.0   0.0
 2001 231   134  17.5  17.3  17.1  17.0  17.1  17.2  17.3   0.0   0.0   0.0
 2001 232   135  16.7  16.6  16.5  16.6  16.8  17.0  17.2   0.0   0.0   0.0
 2001 233   136  15.9  15.9  16.0  16.2  16.5  16.8  17.0   0.0   0.0   0.0
 2001 234   137  15.4  15.4  15.6  15.9  16.2  16.7  16.9   0.0   0.0   0.0
 2001 235   138  15.3  15.4  15.6  15.9  16.2  16.6  16.9   0.0   0.0   0.0
 2001 236   139  16.1  16.0  16.1  16.3  16.5  16.8  17.0   0.0   0.0   0.0
 2001 237   140  16.6  16.4  16.4  16.5  16.7  16.9  17.1   0.0   0.0   0.0
 2001 238   141  17.4  17.1  16.9  16.9  16.9  17.1  17.2   0.0   0.0   0.0
 2001 239   142  18.0  17.7  17.3  17.2  17.2  17.2  17.3   0.0   0.0   0.0
 2001 240   143  18.4  18.0  17.6  17.4  17.3  17.3  17.3   0.0   0.0   0.0
 2001 241   144  18.5  18.1  17.6  17.4  17.3  17.3  17.3   0.0   0.0   0.0
 2001 242   145  19.1  18.6  18.1  17.7  17.6  17.5  17.4   0.0   0.0   0.0
 2001 243   146  19.0  18.5  18.0  17.7  17.5  17.4  17.4   0.0   0.0   0.0
 2001 244   147  18.8  18.4  17.9  17.5  17.4  17.4  17.4   0.0   0.0   0.0
 2001 245   148  18.1  17.7  17.3  17.1  17.1  17.2  17.2   0.0   0.0   0.0
 2001 246   149  17.2  16.9  16.7  16.7  16.7  16.9  17.1   0.0   0.0   0.0
 2001 247   150  16.1  15.9  15.9  16.0  16.3  16.6  16.9   0.0   0.0   0.0
 2001 248   151  15.5  15.5  15.5  15.8  16.0  16.4  16.8   0.0   0.0   0.0
 2001 249   152  15.4  15.3  15.4  15.7  16.0  16.4  16.7   0.0   0.0   0.0
 2001 250   153  15.7  15.7  15.7  15.8  16.1  16.5  16.8   0.0   0.0   0.0
 2001 251   154  16.2  16.1  16.0  16.1  16.3  16.6  16.9   0.0   0.0   0.0
 2001 252   155  16.4  16.2  16.1  16.1  16.3  16.6  16.9   0.0   0.0   0.0
 2001 253   156  16.3  16.2  16.0  16.1  16.3  16.6  16.8   0.0   0.0   0.0
 2001 254   157  16.1  15.9  15.9  16.0  16.2  16.5  16.8   0.0   0.0   0.0
 2001 255   158  16.1  15.9  15.9  16.0  16.2  16.5  16.8   0.0   0.0   0.0
 2001 256   159  15.2  15.2  15.2  15.5  15.8  16.2  16.6   0.0   0.0   0.0
 2001 257   160  15.0  15.0  15.1  15.4  15.7  16.2  16.6   0.0   0.0   0.0
 2001 258   161  14.5  14.5  14.7  15.1  15.5  16.0  16.5   0.0   0.0   0.0
 2001 259   162  14.0  14.1  14.4  14.8  15.3  15.9  16.4   0.0   0.0   0.0
 2001 260   163  13.6  13.7  14.1  14.6  15.1  15.8  16.3   0.0   0.0   0.0
 2001 261   164  15.0  15.0  15.1  15.3  15.6  16.1  16.5   0.0   0.0   0.0
 2001 262   165  16.4  16.2  16.0  16.0  16.2  16.5  16.7   0.0   0.0   0.0
 2001 263   166  18.2  17.8  17.3  17.0  16.9  16.9  17.0   0.0   0.0   0.0
 2001 264   167  19.6  18.9  18.2  17.6  17.4  17.2  17.2   0.0   0.0   0.0
 2001 265   168  21.2  20.3  19.3  18.5  18.0  17.6  17.5   0.0   0.0   0.0
 2001 266   169  21.7  20.8  19.6  18.7  18.2  17.8  17.5   0.0   0.0   0.0
 2001 267   170  21.6  20.6  19.5  18.6  18.1  17.7  17.5   0.0   0.0   0.0
 2001 268   171  20.5  19.8  18.8  18.1  17.7  17.4  17.3   0.0   0.0   0.0
 2001 269   172  19.9  19.2  18.4  17.8  17.4  17.3  17.2   0.0   0.0   0.0
 2001 270   173  18.6  18.0  17.4  17.0  16.9  16.9  17.0   0.0   0.0   0.0
 2001 271   174  17.5  17.1  16.7  16.5  16.5  16.6  16.8   0.0   0.0   0.0
 2001 272   175  17.2  16.9  16.5  16.3  16.3  16.5  16.8   0.0   0.0   0.0
 2001 273   176  17.2  16.8  16.5  16.3  16.3  16.5  16.7   0.0   0.0   0.0
 2001 274   177  18.3  17.8  17.2  16.8  16.7  16.8  16.9   0.0   0.0   0.0
 2001 275   178  19.0  18.4  17.7  17.2  17.0  16.9  17.0   0.0   0.0   0.0
 2001 276   179  19.6  18.9  18.1  17.5  17.2  17.1  17.1   0.0   0.0   0.0
 2001 277   180  19.5  18.9  18.1  17.5  17.2  17.0  17.1   0.0   0.0   0.0
 2001 278   181  20.0  19.3  18.4  17.7  17.4  17.2  17.1   0.0   0.0   0.0
 2001 279   182  19.9  19.2  18.3  17.7  17.3  17.1  17.1   0.0   0.0   0.0
 2001 280   183  19.9  19.1  18.3  17.6  17.3  17.1  17.1   0.0   0.0   0.0
 2001 281   184  20.0  19.2  18.3  17.7  17.3  17.1  17.1   0.0   0.0   0.0
 2001 282   185  20.0  19.3  18.4  17.7  17.3  17.1  17.1   0.0   0.0   0.0
 2001 283   186  20.6  19.8  18.8  18.0  17.5  17.2  17.2   0.0   0.0   0.0
 2001 284   187  20.3  19.5  18.5  17.8  17.4  17.1  17.1   0.0   0.0   0.0
 2001 285   188  19.9  19.1  18.2  17.6  17.2  17.0  17.0   0.0   0.0   0.0
 2001 286   189  19.9  19.1  18.2  17.6  17.2  17.0  17.0   0.0   0.0   0.0
 2001 287   190  20.1  19.4  18.4  17.7  17.3  17.1  17.0   0.0   0.0   0.0
 2001 288   191  19.2  18.6  17.8  17.2  16.9  16.8  16.9   0.0   0.0   0.0
 2001 289   192  18.8  18.2  17.5  17.0  16.8  16.7  16.8   0.0   0.0   0.0
 2001 290   193  19.2  18.6  17.8  17.2  16.9  16.8  16.9   0.0   0.0   0.0
 2001 291   194  19.3  18.7  17.8  17.3  17.0  16.8  16.9   0.0   0.0   0.0
 2001 292   195  20.0  19.3  18.3  17.6  17.2  17.0  17.0   0.0   0.0   0.0
 2001 293   196  21.4  20.4  19.2  18.3  17.7  17.3  17.2   0.0   0.0   0.0
 2001 294   197  21.9  20.9  19.6  18.5  17.9  17.4  17.2   0.0   0.0   0.0
 2001 295   198  21.8  20.8  19.5  18.5  17.9  17.4  17.2   0.0   0.0   0.0
 2001 296   199  22.1  21.1  19.7  18.7  18.0  17.5  17.3   0.0   0.0   0.0
 2001 297   200  22.3  21.2  19.9  18.8  18.1  17.5  17.3   0.0   0.0   0.0
 2001 298   201  22.6  21.5  20.0  18.9  18.2  17.6  17.3   0.0   0.0   0.0
 2001 299   202  23.1  22.0  20.4  19.2  18.4  17.7  17.4   0.0   0.0   0.0
 2001 300   203  23.9  22.6  21.0  19.6  18.7  17.9  17.5   0.0   0.0   0.0
 2001 301   204  23.5  22.3  20.7  19.4  18.5  17.8  17.4   0.0   0.0   0.0
 2001 302   205  23.1  21.9  20.4  19.2  18.4  17.7  17.4   0.0   0.0   0.0
 2001 303   206  22.0  21.0  19.7  18.6  17.9  17.4  17.2   0.0   0.0   0.0
 2001 304   207  21.8  20.8  19.5  18.5  17.8  17.3  17.1   0.0   0.0   0.0
 2001 305   208  21.8  20.8  19.5  18.5  17.8  17.3  17.1   0.0   0.0   0.0

*DSSAT Cropping System Model Ver. 4.0.2.000               Aug 12, 2016; 12:46:13

*RUN   3        : UYMZ                    
 MODEL          : MZCER040 - Maize           
 EXPERIMENT     : UYMZ0193 MZ    late to create DSS                             
 TREATMENT  1   : UYMZ                    

@YEAR DOY   DAS  TS1D  TS2D  TS3D  TS4D  TS5D  TS6D  TS7D  TS8D  TS9D  TS10
 2002 097     0  25.5  24.7  23.5  22.1  21.0  19.6  18.5   0.0   0.0   0.0
 2002 098     1  25.5  24.7  23.5  22.1  21.0  19.6  18.5   0.0   0.0   0.0
 2002 099     2  25.5  24.7  23.4  22.1  21.0  19.6  18.5   0.0   0.0   0.0
 2002 100     3  24.5  23.8  22.8  21.6  20.6  19.3  18.4   0.0   0.0   0.0
 2002 101     4  23.2  22.7  21.9  21.0  20.1  19.0  18.2   0.0   0.0   0.0
 2002 102     5  21.8  21.5  21.0  20.3  19.6  18.7  18.0   0.0   0.0   0.0
 2002 103     6  20.3  20.2  19.9  19.5  19.1  18.4  17.8   0.0   0.0   0.0
 2002 104     7  19.2  19.3  19.2  19.0  18.6  18.1  17.6   0.0   0.0   0.0
 2002 105     8  19.6  19.6  19.5  19.2  18.8  18.2  17.7   0.0   0.0   0.0
 2002 106     9  19.9  19.9  19.7  19.3  18.9  18.3  17.7   0.0   0.0   0.0
 2002 107    10  20.7  20.6  20.2  19.8  19.2  18.5  17.9   0.0   0.0   0.0
 2002 108    11  20.9  20.8  20.4  19.9  19.4  18.6  18.0   0.0   0.0   0.0
 2002 109    12  21.1  20.9  20.5  20.0  19.4  18.7  18.0   0.0   0.0   0.0
 2002 110    13  20.3  20.2  19.9  19.6  19.1  18.5  17.9   0.0   0.0   0.0
 2002 111    14  19.4  19.5  19.4  19.1  18.8  18.3  17.7   0.0   0.0   0.0
 2002 112    15  17.9  18.2  18.3  18.4  18.2  17.9  17.5   0.0   0.0   0.0
 2002 113    16  17.6  17.8  18.1  18.2  18.1  17.8  17.5   0.0   0.0   0.0
 2002 114    17  16.8  17.1  17.5  17.8  17.8  17.6  17.4   0.0   0.0   0.0
 2002 115    18  17.1  17.4  17.8  17.9  17.9  17.7  17.4   0.0   0.0   0.0
 2002 116    19  17.8  18.0  18.2  18.3  18.2  17.9  17.5   0.0   0.0   0.0
 2002 117    20  18.2  18.4  18.5  18.5  18.4  18.0  17.6   0.0   0.0   0.0
 2002 118    21  18.3  18.5  18.6  18.6  18.4  18.0  17.6   0.0   0.0   0.0
 2002 119    22  17.9  18.1  18.4  18.4  18.3  18.0  17.6   0.0   0.0   0.0
 2002 120    23  17.5  17.8  18.1  18.2  18.1  17.9  17.5   0.0   0.0   0.0
 2002 121    24  17.3  17.6  18.0  18.1  18.1  17.8  17.5   0.0   0.0   0.0
 2002 122    25  17.8  18.0  18.3  18.3  18.2  17.9  17.6   0.0   0.0   0.0
 2002 123    26  18.3  18.4  18.6  18.6  18.4  18.1  17.7   0.0   0.0   0.0
 2002 124    27  19.6  19.6  19.5  19.3  18.9  18.4  17.9   0.0   0.0   0.0
 2002 125    28  19.6  19.6  19.5  19.3  18.9  18.4  17.9   0.0   0.0   0.0
 2002 126    29  19.5  19.5  19.5  19.2  18.9  18.4  17.9   0.0   0.0   0.0
 2002 127    30  19.1  19.1  19.1  19.0  18.8  18.3  17.8   0.0   0.0   0.0
 2002 128    31  18.9  19.0  19.0  18.9  18.7  18.3  17.8   0.0   0.0   0.0
 2002 129    32  18.0  18.2  18.4  18.4  18.3  18.0  17.7   0.0   0.0   0.0
 2002 130    33  18.0  18.2  18.4  18.4  18.3  18.0  17.7   0.0   0.0   0.0
 2002 131    34  18.7  18.8  18.9  18.8  18.6  18.2  17.8   0.0   0.0   0.0
 2002 132    35  19.9  19.8  19.7  19.4  19.1  18.5  18.0   0.0   0.0   0.0
 2002 133    36  20.4  20.3  20.1  19.7  19.3  18.7  18.1   0.0   0.0   0.0
 2002 134    37  22.3  22.0  21.4  20.7  20.1  19.2  18.4   0.0   0.0   0.0
 2002 135    38  22.7  22.3  21.6  20.9  20.2  19.3  18.5   0.0   0.0   0.0
 2002 136    39  22.0  21.7  21.1  20.5  19.9  19.1  18.4   0.0   0.0   0.0
 2002 137    40  20.9  20.7  20.4  20.0  19.5  18.9  18.2   0.0   0.0   0.0
 2002 138    41  20.4  20.3  20.0  19.7  19.3  18.7  18.1   0.0   0.0   0.0
 2002 139    42  18.5  18.6  18.7  18.7  18.6  18.2  17.8   0.0   0.0   0.0
 2002 140    43  17.5  17.8  18.1  18.2  18.2  18.0  17.7   0.0   0.0   0.0
 2002 141    44  16.8  17.2  17.6  17.8  17.9  17.8  17.6   0.0   0.0   0.0
 2002 142    45  16.2  16.7  17.2  17.5  17.7  17.7  17.5   0.0   0.0   0.0
 2002 143    46  16.1  16.5  17.1  17.5  17.6  17.6  17.5   0.0   0.0   0.0
 2002 144    47  16.7  17.1  17.5  17.8  17.9  17.8  17.6   0.0   0.0   0.0
 2002 145    48  17.6  17.8  18.1  18.2  18.2  18.0  17.7   0.0   0.0   0.0
 2002 146    49  18.4  18.5  18.6  18.6  18.5  18.2  17.8   0.0   0.0   0.0
 2002 147    50  19.0  19.0  19.0  18.9  18.7  18.4  17.9   0.0   0.0   0.0
 2002 148    51  18.7  18.8  18.9  18.8  18.6  18.3  17.9   0.0   0.0   0.0
 2002 149    52  18.1  18.2  18.4  18.4  18.4  18.1  17.8   0.0   0.0   0.0
 2002 150    53  17.4  17.6  17.9  18.1  18.1  18.0  17.7   0.0   0.0   0.0
 2002 151    54  16.6  16.9  17.3  17.6  17.8  17.8  17.6   0.0   0.0   0.0
 2002 152    55  16.4  16.8  17.2  17.6  17.7  17.7  17.5   0.0   0.0   0.0
 2002 153    56  16.6  16.9  17.3  17.6  17.8  17.8  17.6   0.0   0.0   0.0
 2002 154    57  17.3  17.6  17.9  18.0  18.1  18.0  17.7   0.0   0.0   0.0
 2002 155    58  18.7  18.7  18.8  18.7  18.6  18.3  17.9   0.0   0.0   0.0
 2002 156    59  19.8  19.7  19.5  19.3  19.0  18.6  18.1   0.0   0.0   0.0
 2002 157    60  19.6  19.5  19.4  19.2  19.0  18.6  18.1   0.0   0.0   0.0
 2002 158    61  18.9  18.9  18.9  18.8  18.7  18.4  18.0   0.0   0.0   0.0
 2002 159    62  17.8  18.0  18.1  18.2  18.2  18.1  17.8   0.0   0.0   0.0
 2002 160    63  16.5  16.8  17.2  17.5  17.7  17.7  17.6   0.0   0.0   0.0
 2002 161    64  14.4  15.0  15.8  16.4  16.9  17.2  17.2   0.0   0.0   0.0
 2002 162    65  12.9  13.7  14.7  15.7  16.3  16.8  17.0   0.0   0.0   0.0
 2002 163    66  11.9  12.8  14.0  15.1  15.9  16.5  16.8   0.0   0.0   0.0
 2002 164    67  10.7  11.8  13.2  14.5  15.4  16.2  16.7   0.0   0.0   0.0
 2002 165    68   9.7  10.9  12.5  14.0  15.0  16.0  16.5   0.0   0.0   0.0
 2002 166    69  10.0  11.1  12.7  14.1  15.1  16.0  16.5   0.0   0.0   0.0
 2002 167    70  10.4  11.5  13.0  14.3  15.3  16.2  16.6   0.0   0.0   0.0
 2002 168    71  11.2  12.2  13.6  14.8  15.6  16.4  16.7   0.0   0.0   0.0
 2002 169    72  12.3  13.1  14.3  15.3  16.0  16.6  16.9   0.0   0.0   0.0
 2002 170    73  13.2  13.9  14.9  15.7  16.3  16.8  17.0   0.0   0.0   0.0
 2002 171    74  13.9  14.5  15.4  16.1  16.6  17.0  17.2   0.0   0.0   0.0
 2002 172    75  13.9  14.5  15.3  16.1  16.6  17.0  17.1   0.0   0.0   0.0
 2002 173    76  13.0  13.7  14.7  15.6  16.2  16.8  17.0   0.0   0.0   0.0
 2002 174    77  11.6  12.5  13.8  14.9  15.7  16.4  16.8   0.0   0.0   0.0
 2002 175    78  10.5  11.5  13.0  14.3  15.2  16.1  16.6   0.0   0.0   0.0
 2002 176    79   9.6  10.8  12.4  13.8  14.9  15.9  16.5   0.0   0.0   0.0
 2002 177    80   9.6  10.8  12.4  13.8  14.9  15.9  16.5   0.0   0.0   0.0
 2002 178    81  10.0  11.1  12.6  14.0  15.0  16.0  16.5   0.0   0.0   0.0
 2002 179    82  11.4  12.3  13.5  14.7  15.6  16.3  16.7   0.0   0.0   0.0
 2002 180    83  13.2  13.9  14.8  15.6  16.3  16.8  17.0   0.0   0.0   0.0
 2002 181    84  13.6  14.2  15.0  15.8  16.4  16.9  17.1   0.0   0.0   0.0
 2002 182    85  13.7  14.3  15.1  15.9  16.4  16.9  17.1   0.0   0.0   0.0
 2002 183    86  14.3  14.8  15.5  16.2  16.6  17.0  17.2   0.0   0.0   0.0
 2002 184    87  14.6  15.1  15.7  16.3  16.8  17.1  17.2   0.0   0.0   0.0
 2002 185    88  14.0  14.5  15.2  16.0  16.5  16.9  17.1   0.0   0.0   0.0
 2002 186    89  14.7  15.1  15.8  16.3  16.8  17.1  17.2   0.0   0.0   0.0
 2002 187    90  15.0  15.3  15.9  16.5  16.8  17.2  17.3   0.0   0.0   0.0
 2002 188    91  14.5  14.9  15.5  16.2  16.6  17.0  17.2   0.0   0.0   0.0
 2002 189    92  13.2  13.8  14.7  15.5  16.1  16.7  17.0   0.0   0.0   0.0
 2002 190    93  11.9  12.7  13.8  14.8  15.6  16.4  16.8   0.0   0.0   0.0
 2002 191    94  10.3  11.3  12.7  14.0  15.0  15.9  16.5   0.0   0.0   0.0
 2002 192    95   9.4  10.5  12.0  13.5  14.6  15.7  16.4   0.0   0.0   0.0
 2002 193    96   9.1  10.2  11.8  13.3  14.5  15.6  16.3   0.0   0.0   0.0
 2002 194    97  10.0  11.0  12.4  13.8  14.8  15.8  16.4   0.0   0.0   0.0

*DSSAT Cropping System Model Ver. 4.0.2.000               Aug 12, 2016; 12:46:13

*RUN   4        : UYMZ                    
 MODEL          : MZCER040 - Maize           
 EXPERIMENT     : UYMZ0193 MZ    late to create DSS                             
 TREATMENT  1   : UYMZ                    

@YEAR DOY   DAS  TS1D  TS2D  TS3D  TS4D  TS5D  TS6D  TS7D  TS8D  TS9D  TS10
 2003 097     0  21.7  21.4  20.8  20.1  19.5  18.6  17.9   0.0   0.0   0.0
 2003 098     1  22.1  21.7  21.1  20.4  19.7  18.7  18.0   0.0   0.0   0.0
 2003 099     2  22.1  21.8  21.1  20.4  19.7  18.7  18.0   0.0   0.0   0.0
 2003 100     3  21.5  21.2  20.7  20.1  19.4  18.6  17.9   0.0   0.0   0.0
 2003 101     4  20.3  20.2  19.9  19.5  19.0  18.3  17.7   0.0   0.0   0.0
 2003 102     5  19.6  19.6  19.4  19.1  18.7  18.1  17.6   0.0   0.0   0.0
 2003 103     6  18.6  18.7  18.8  18.6  18.4  17.9  17.5   0.0   0.0   0.0
 2003 104     7  18.6  18.8  18.8  18.7  18.4  17.9  17.5   0.0   0.0   0.0
 2003 105     8  19.6  19.6  19.5  19.2  18.8  18.2  17.7   0.0   0.0   0.0
 2003 106     9  21.1  20.9  20.5  19.9  19.4  18.6  17.9   0.0   0.0   0.0
 2003 107    10  22.3  21.9  21.3  20.5  19.8  18.9  18.1   0.0   0.0   0.0
 2003 108    11  22.5  22.1  21.5  20.7  19.9  19.0  18.1   0.0   0.0   0.0
 2003 109    12  21.5  21.2  20.7  20.1  19.5  18.7  18.0   0.0   0.0   0.0
 2003 110    13  20.6  20.5  20.2  19.7  19.2  18.5  17.9   0.0   0.0   0.0
 2003 111    14  20.3  20.2  20.0  19.6  19.1  18.4  17.8   0.0   0.0   0.0
 2003 112    15  19.9  19.9  19.7  19.4  19.0  18.4  17.8   0.0   0.0   0.0
 2003 113    16  19.6  19.6  19.5  19.2  18.8  18.3  17.7   0.0   0.0   0.0
 2003 114    17  20.1  20.0  19.8  19.4  19.0  18.4  17.8   0.0   0.0   0.0
 2003 115    18  20.2  20.1  19.9  19.5  19.1  18.5  17.9   0.0   0.0   0.0
 2003 116    19  19.4  19.4  19.4  19.1  18.8  18.3  17.8   0.0   0.0   0.0
 2003 117    20  18.4  18.6  18.7  18.6  18.4  18.1  17.6   0.0   0.0   0.0
 2003 118    21  18.3  18.5  18.6  18.6  18.4  18.0  17.6   0.0   0.0   0.0
 2003 119    22  17.5  17.8  18.1  18.2  18.1  17.8  17.5   0.0   0.0   0.0
 2003 120    23  16.8  17.1  17.6  17.8  17.8  17.7  17.4   0.0   0.0   0.0
 2003 121    24  16.8  17.2  17.6  17.8  17.8  17.7  17.4   0.0   0.0   0.0
 2003 122    25  17.0  17.3  17.7  17.9  17.9  17.7  17.4   0.0   0.0   0.0
 2003 123    26  16.8  17.2  17.6  17.8  17.8  17.7  17.4   0.0   0.0   0.0
 2003 124    27  16.9  17.3  17.7  17.9  17.9  17.7  17.5   0.0   0.0   0.0
 2003 125    28  17.3  17.6  17.9  18.1  18.1  17.8  17.5   0.0   0.0   0.0
 2003 126    29  16.9  17.2  17.6  17.9  17.9  17.7  17.5   0.0   0.0   0.0
 2003 127    30  16.7  17.1  17.5  17.8  17.8  17.7  17.4   0.0   0.0   0.0
 2003 128    31  16.8  17.2  17.6  17.8  17.9  17.7  17.5   0.0   0.0   0.0
 2003 129    32  17.0  17.4  17.7  17.9  18.0  17.8  17.5   0.0   0.0   0.0
 2003 130    33  16.8  17.2  17.6  17.8  17.9  17.7  17.5   0.0   0.0   0.0
 2003 131    34  17.7  17.9  18.2  18.3  18.2  18.0  17.6   0.0   0.0   0.0
 2003 132    35  17.3  17.6  17.9  18.1  18.1  17.9  17.6   0.0   0.0   0.0
 2003 133    36  17.3  17.6  17.9  18.1  18.1  17.9  17.6   0.0   0.0   0.0
 2003 134    37  18.3  18.4  18.6  18.6  18.5  18.1  17.7   0.0   0.0   0.0
 2003 135    38  19.2  19.2  19.2  19.1  18.8  18.4  17.9   0.0   0.0   0.0
 2003 136    39  18.8  18.9  18.9  18.9  18.7  18.3  17.8   0.0   0.0   0.0
 2003 137    40  19.4  19.4  19.4  19.2  18.9  18.4  17.9   0.0   0.0   0.0
 2003 138    41  19.3  19.4  19.3  19.1  18.9  18.4  18.0   0.0   0.0   0.0
 2003 139    42  18.4  18.5  18.6  18.6  18.5  18.2  17.8   0.0   0.0   0.0
 2003 140    43  17.8  18.0  18.3  18.4  18.3  18.1  17.7   0.0   0.0   0.0
 2003 141    44  17.6  17.9  18.1  18.2  18.2  18.0  17.7   0.0   0.0   0.0
 2003 142    45  17.4  17.7  18.0  18.1  18.1  18.0  17.7   0.0   0.0   0.0
 2003 143    46  17.3  17.6  17.9  18.1  18.1  18.0  17.7   0.0   0.0   0.0
 2003 144    47  16.7  17.0  17.5  17.7  17.9  17.8  17.6   0.0   0.0   0.0
 2003 145    48  15.7  16.2  16.8  17.2  17.5  17.5  17.4   0.0   0.0   0.0
 2003 146    49  15.3  15.8  16.5  17.0  17.3  17.4  17.3   0.0   0.0   0.0
 2003 147    50  14.8  15.3  16.1  16.7  17.1  17.3  17.3   0.0   0.0   0.0
 2003 148    51  14.4  15.0  15.9  16.5  16.9  17.2  17.2   0.0   0.0   0.0
 2003 149    52  15.0  15.6  16.3  16.9  17.2  17.4  17.3   0.0   0.0   0.0
 2003 150    53  16.1  16.5  17.0  17.4  17.6  17.6  17.5   0.0   0.0   0.0
 2003 151    54  16.4  16.8  17.2  17.6  17.7  17.7  17.5   0.0   0.0   0.0
 2003 152    55  16.6  17.0  17.4  17.7  17.8  17.8  17.6   0.0   0.0   0.0
 2003 153    56  16.7  17.0  17.4  17.7  17.8  17.8  17.6   0.0   0.0   0.0
 2003 154    57  15.8  16.2  16.8  17.2  17.5  17.5  17.5   0.0   0.0   0.0
 2003 155    58  14.6  15.2  15.9  16.6  17.0  17.2  17.3   0.0   0.0   0.0
 2003 156    59  13.7  14.4  15.3  16.1  16.6  17.0  17.1   0.0   0.0   0.0
 2003 157    60  13.6  14.3  15.2  16.1  16.6  17.0  17.1   0.0   0.0   0.0
 2003 158    61  12.8  13.6  14.7  15.6  16.3  16.8  17.0   0.0   0.0   0.0
 2003 159    62  12.4  13.3  14.4  15.4  16.1  16.7  16.9   0.0   0.0   0.0
 2003 160    63  11.7  12.7  14.0  15.1  15.9  16.5  16.8   0.0   0.0   0.0
 2003 161    64  11.6  12.6  13.9  15.0  15.8  16.5  16.8   0.0   0.0   0.0
 2003 162    65  11.4  12.4  13.7  14.9  15.7  16.4  16.8   0.0   0.0   0.0
 2003 163    66  11.5  12.5  13.8  15.0  15.8  16.5  16.8   0.0   0.0   0.0
 2003 164    67  12.2  13.1  14.3  15.3  16.0  16.6  16.9   0.0   0.0   0.0
 2003 165    68  12.6  13.4  14.5  15.5  16.2  16.7  17.0   0.0   0.0   0.0
 2003 166    69  13.5  14.2  15.1  15.9  16.5  16.9  17.1   0.0   0.0   0.0
 2003 167    70  13.1  13.8  14.8  15.7  16.3  16.8  17.0   0.0   0.0   0.0
 2003 168    71  12.9  13.7  14.7  15.6  16.3  16.8  17.0   0.0   0.0   0.0
 2003 169    72  12.2  13.0  14.2  15.2  16.0  16.6  16.9   0.0   0.0   0.0
 2003 170    73  12.5  13.3  14.4  15.4  16.1  16.7  16.9   0.0   0.0   0.0
 2003 171    74  12.7  13.5  14.5  15.5  16.1  16.7  17.0   0.0   0.0   0.0
 2003 172    75  13.4  14.1  15.0  15.8  16.4  16.9  17.1   0.0   0.0   0.0
 2003 173    76  14.3  14.8  15.6  16.3  16.7  17.1  17.2   0.0   0.0   0.0
 2003 174    77  15.0  15.4  16.0  16.6  17.0  17.3  17.3   0.0   0.0   0.0
 2003 175    78  15.2  15.7  16.2  16.8  17.1  17.3  17.4   0.0   0.0   0.0
 2003 176    79  14.5  15.0  15.7  16.3  16.8  17.1  17.2   0.0   0.0   0.0
 2003 177    80  13.9  14.4  15.3  16.0  16.5  17.0  17.1   0.0   0.0   0.0
 2003 178    81  13.6  14.2  15.1  15.9  16.4  16.9  17.1   0.0   0.0   0.0
 2003 179    82  13.8  14.4  15.2  15.9  16.5  16.9  17.1   0.0   0.0   0.0
 2003 180    83  13.5  14.1  15.0  15.8  16.3  16.9  17.1   0.0   0.0   0.0
 2003 181    84  14.0  14.5  15.3  16.0  16.5  17.0  17.1   0.0   0.0   0.0
 2003 182    85  14.5  15.0  15.6  16.3  16.7  17.1  17.2   0.0   0.0   0.0
 2003 183    86  14.0  14.5  15.3  16.0  16.5  17.0  17.1   0.0   0.0   0.0
 2003 184    87  13.2  13.9  14.8  15.6  16.2  16.8  17.0   0.0   0.0   0.0
 2003 185    88  13.1  13.7  14.6  15.5  16.1  16.7  17.0   0.0   0.0   0.0
 2003 186    89  12.9  13.6  14.5  15.4  16.1  16.7  17.0   0.0   0.0   0.0
 2003 187    90  12.9  13.5  14.5  15.4  16.0  16.6  16.9   0.0   0.0   0.0
 2003 188    91  13.8  14.3  15.1  15.8  16.4  16.9  17.1   0.0   0.0   0.0
 2003 189    92  14.1  14.6  15.3  16.0  16.5  16.9  17.1   0.0   0.0   0.0
 2003 190    93  13.2  13.8  14.6  15.5  16.1  16.7  17.0   0.0   0.0   0.0
 2003 191    94  12.4  13.1  14.1  15.1  15.8  16.5  16.8   0.0   0.0   0.0
 2003 192    95  11.4  12.2  13.4  14.6  15.4  16.2  16.7   0.0   0.0   0.0
 2003 193    96  10.3  11.2  12.6  13.9  14.9  15.9  16.5   0.0   0.0   0.0
 2003 194    97   9.6  10.6  12.1  13.6  14.7  15.7  16.4   0.0   0.0   0.0
 2003 195    98  10.8  11.7  13.0  14.2  15.1  16.0  16.6   0.0   0.0   0.0
 2003 196    99  11.2  12.0  13.2  14.4  15.3  16.1  16.6   0.0   0.0   0.0
 2003 197   100  11.4  12.2  13.4  14.5  15.3  16.2  16.7   0.0   0.0   0.0
 2003 198   101  11.9  12.6  13.6  14.7  15.5  16.3  16.7   0.0   0.0   0.0
 2003 199   102  12.4  13.1  14.0  15.0  15.7  16.4  16.8   0.0   0.0   0.0
 2003 200   103  13.1  13.6  14.4  15.3  15.9  16.5  16.9   0.0   0.0   0.0
 2003 201   104  14.9  15.2  15.7  16.2  16.6  17.0  17.2   0.0   0.0   0.0
 2003 202   105  15.3  15.6  16.0  16.4  16.8  17.1  17.2   0.0   0.0   0.0
 2003 203   106  15.3  15.5  15.9  16.4  16.7  17.1  17.2   0.0   0.0   0.0
 2003 204   107  15.0  15.3  15.7  16.2  16.6  17.0  17.2   0.0   0.0   0.0
 2003 205   108  13.9  14.3  15.0  15.6  16.2  16.7  17.0   0.0   0.0   0.0
 2003 206   109  12.1  12.7  13.7  14.7  15.4  16.2  16.7   0.0   0.0   0.0
 2003 207   110  12.4  13.0  13.9  14.8  15.5  16.3  16.7   0.0   0.0   0.0
 2003 208   111  12.7  13.2  14.1  14.9  15.6  16.4  16.8   0.0   0.0   0.0
 2003 209   112  13.6  14.1  14.7  15.4  16.0  16.6  16.9   0.0   0.0   0.0
 2003 210   113  13.9  14.3  14.9  15.6  16.1  16.7  17.0   0.0   0.0   0.0
 2003 211   114  14.6  14.9  15.4  15.9  16.3  16.8  17.1   0.0   0.0   0.0
 2003 212   115  14.7  14.9  15.4  15.9  16.4  16.8  17.1   0.0   0.0   0.0
 2003 213   116  14.9  15.1  15.5  16.0  16.4  16.8  17.1   0.0   0.0   0.0
 2003 214   117  14.6  14.9  15.4  15.9  16.3  16.8  17.0   0.0   0.0   0.0
 2003 215   118  14.6  14.9  15.3  15.8  16.3  16.7  17.0   0.0   0.0   0.0
 2003 216   119  14.7  14.9  15.3  15.8  16.3  16.7  17.0   0.0   0.0   0.0
 2003 217   120  14.6  14.9  15.3  15.8  16.2  16.7  17.0   0.0   0.0   0.0
 2003 218   121  14.1  14.4  14.9  15.5  16.0  16.6  16.9   0.0   0.0   0.0
 2003 219   122  14.0  14.3  14.8  15.4  16.0  16.5  16.9   0.0   0.0   0.0
 2003 220   123  13.9  14.2  14.8  15.4  15.9  16.5  16.8   0.0   0.0   0.0
 2003 221   124  12.9  13.3  14.1  14.8  15.5  16.2  16.7   0.0   0.0   0.0
 2003 222   125  12.4  12.9  13.7  14.6  15.3  16.1  16.6   0.0   0.0   0.0
 2003 223   126  12.7  13.2  13.9  14.7  15.4  16.1  16.6   0.0   0.0   0.0
 2003 224   127  13.0  13.4  14.1  14.9  15.5  16.2  16.7   0.0   0.0   0.0
 2003 225   128  13.0  13.4  14.1  14.8  15.5  16.2  16.7   0.0   0.0   0.0
 2003 226   129  13.5  13.8  14.4  15.1  15.6  16.3  16.7   0.0   0.0   0.0
 2003 227   130  13.9  14.2  14.7  15.3  15.8  16.4  16.8   0.0   0.0   0.0
 2003 228   131  14.0  14.2  14.7  15.3  15.8  16.4  16.8   0.0   0.0   0.0
 2003 229   132  13.9  14.1  14.6  15.2  15.7  16.3  16.8   0.0   0.0   0.0
 2003 230   133  14.8  14.9  15.3  15.7  16.1  16.6  16.9   0.0   0.0   0.0
 2003 231   134  16.5  16.4  16.4  16.6  16.7  17.0  17.1   0.0   0.0   0.0
 2003 232   135  18.0  17.7  17.4  17.3  17.3  17.4  17.4   0.0   0.0   0.0
 2003 233   136  20.4  19.7  19.0  18.5  18.2  17.9  17.7   0.0   0.0   0.0
 2003 234   137  19.6  19.1  18.5  18.1  17.9  17.7  17.6   0.0   0.0   0.0
 2003 235   138  18.0  17.7  17.4  17.3  17.2  17.3  17.3   0.0   0.0   0.0
 2003 236   139  16.0  15.9  16.0  16.2  16.4  16.8  17.0   0.0   0.0   0.0
 2003 237   140  13.6  13.9  14.3  14.9  15.5  16.1  16.6   0.0   0.0   0.0
 2003 238   141  10.4  11.1  12.1  13.3  14.2  15.3  16.1   0.0   0.0   0.0
 2003 239   142  10.1  10.8  11.9  13.1  14.1  15.2  16.0   0.0   0.0   0.0
 2003 240   143  10.8  11.4  12.4  13.4  14.3  15.4  16.1   0.0   0.0   0.0
 2003 241   144  11.3  11.8  12.7  13.7  14.5  15.5  16.2   0.0   0.0   0.0
 2003 242   145  11.8  12.3  13.1  13.9  14.7  15.6  16.3   0.0   0.0   0.0

*DSSAT Cropping System Model Ver. 4.0.2.000               Aug 12, 2016; 12:46:13

*RUN   5        : UYMZ                    
 MODEL          : MZCER040 - Maize           
 EXPERIMENT     : UYMZ0193 MZ    late to create DSS                             
 TREATMENT  1   : UYMZ                    

@YEAR DOY   DAS  TS1D  TS2D  TS3D  TS4D  TS5D  TS6D  TS7D  TS8D  TS9D  TS10
 2004 097     0  27.6  26.5  24.9  23.2  21.8  20.1  18.8   0.0   0.0   0.0
 2004 098     1  27.6  26.5  24.9  23.2  21.8  20.1  18.8   0.0   0.0   0.0
 2004 099     2  27.6  26.5  24.9  23.2  21.8  20.1  18.8   0.0   0.0   0.0
 2004 100     3  26.3  25.4  24.0  22.5  21.3  19.8  18.6   0.0   0.0   0.0
 2004 101     4  25.0  24.3  23.2  21.9  20.9  19.5  18.5   0.0   0.0   0.0
 2004 102     5  24.1  23.5  22.6  21.5  20.5  19.3  18.4   0.0   0.0   0.0
 2004 103     6  24.1  23.5  22.5  21.5  20.5  19.3  18.4   0.0   0.0   0.0
 2004 104     7  25.0  24.2  23.1  21.9  20.9  19.6  18.5   0.0   0.0   0.0
 2004 105     8  26.9  26.0  24.5  22.9  21.6  20.1  18.8   0.0   0.0   0.0
 2004 106     9  27.4  26.4  24.8  23.2  21.8  20.2  18.9   0.0   0.0   0.0
 2004 107    10  27.1  26.1  24.6  23.1  21.8  20.2  18.9   0.0   0.0   0.0
 2004 108    11  26.1  25.2  23.9  22.5  21.4  19.9  18.8   0.0   0.0   0.0
 2004 109    12  24.2  23.6  22.6  21.6  20.6  19.5  18.5   0.0   0.0   0.0
 2004 110    13  21.8  21.5  21.0  20.3  19.7  18.9  18.1   0.0   0.0   0.0
 2004 111    14  20.9  20.7  20.4  19.9  19.4  18.6  18.0   0.0   0.0   0.0
 2004 112    15  20.6  20.5  20.2  19.7  19.3  18.6  17.9   0.0   0.0   0.0
 2004 113    16  20.2  20.1  19.9  19.5  19.1  18.5  17.9   0.0   0.0   0.0
 2004 114    17  20.0  20.0  19.8  19.5  19.1  18.5  17.9   0.0   0.0   0.0
 2004 115    18  19.6  19.6  19.5  19.2  18.9  18.4  17.8   0.0   0.0   0.0
 2004 116    19  19.0  19.1  19.1  18.9  18.7  18.2  17.7   0.0   0.0   0.0
 2004 117    20  18.3  18.5  18.6  18.6  18.4  18.0  17.6   0.0   0.0   0.0
 2004 118    21  18.1  18.3  18.5  18.5  18.3  18.0  17.6   0.0   0.0   0.0
 2004 119    22  17.9  18.2  18.4  18.4  18.3  18.0  17.6   0.0   0.0   0.0
 2004 120    23  18.7  18.8  18.9  18.8  18.6  18.1  17.7   0.0   0.0   0.0
 2004 121    24  19.0  19.0  19.1  18.9  18.7  18.2  17.8   0.0   0.0   0.0
 2004 122    25  18.9  19.0  19.0  18.9  18.7  18.2  17.8   0.0   0.0   0.0
 2004 123    26  18.5  18.6  18.7  18.7  18.5  18.1  17.7   0.0   0.0   0.0
 2004 124    27  17.5  17.8  18.1  18.2  18.1  17.9  17.6   0.0   0.0   0.0
 2004 125    28  16.6  17.0  17.5  17.7  17.8  17.7  17.4   0.0   0.0   0.0
 2004 126    29  16.5  16.9  17.4  17.7  17.8  17.6  17.4   0.0   0.0   0.0
 2004 127    30  16.3  16.7  17.2  17.5  17.7  17.6  17.4   0.0   0.0   0.0
 2004 128    31  16.4  16.8  17.3  17.6  17.7  17.6  17.4   0.0   0.0   0.0
 2004 129    32  17.2  17.5  17.9  18.0  18.0  17.9  17.6   0.0   0.0   0.0
 2004 130    33  17.8  18.0  18.3  18.3  18.3  18.0  17.7   0.0   0.0   0.0
 2004 131    34  18.5  18.7  18.8  18.7  18.6  18.2  17.8   0.0   0.0   0.0
 2004 132    35  19.4  19.4  19.4  19.2  18.9  18.4  17.9   0.0   0.0   0.0
 2004 133    36  19.8  19.8  19.7  19.4  19.1  18.5  18.0   0.0   0.0   0.0
 2004 134    37  19.1  19.1  19.1  19.0  18.8  18.3  17.9   0.0   0.0   0.0
 2004 135    38  18.3  18.4  18.6  18.6  18.5  18.1  17.8   0.0   0.0   0.0
 2004 136    39  17.0  17.3  17.7  17.9  18.0  17.8  17.6   0.0   0.0   0.0
 2004 137    40  15.7  16.2  16.8  17.2  17.5  17.5  17.4   0.0   0.0   0.0
 2004 138    41  14.5  15.1  15.9  16.6  17.0  17.2  17.2   0.0   0.0   0.0
 2004 139    42  13.6  14.4  15.4  16.2  16.6  17.0  17.0   0.0   0.0   0.0
 2004 140    43  13.0  13.8  14.9  15.8  16.4  16.8  16.9   0.0   0.0   0.0
 2004 141    44  12.6  13.5  14.7  15.6  16.2  16.7  16.9   0.0   0.0   0.0
 2004 142    45  12.5  13.4  14.6  15.6  16.2  16.7  16.9   0.0   0.0   0.0
 2004 143    46  13.0  13.8  14.9  15.8  16.4  16.8  17.0   0.0   0.0   0.0
 2004 144    47  13.8  14.5  15.5  16.2  16.7  17.0  17.1   0.0   0.0   0.0
 2004 145    48  14.7  15.3  16.1  16.7  17.1  17.3  17.2   0.0   0.0   0.0
 2004 146    49  15.3  15.9  16.5  17.0  17.3  17.4  17.4   0.0   0.0   0.0
 2004 147    50  15.6  16.0  16.6  17.1  17.4  17.5  17.4   0.0   0.0   0.0
 2004 148    51  14.8  15.3  16.1  16.7  17.1  17.3  17.3   0.0   0.0   0.0
 2004 149    52  14.3  14.9  15.8  16.5  16.9  17.2  17.2   0.0   0.0   0.0
 2004 150    53  13.3  14.1  15.1  15.9  16.5  16.9  17.0   0.0   0.0   0.0
 2004 151    54  12.4  13.3  14.5  15.5  16.1  16.7  16.9   0.0   0.0   0.0
 2004 152    55  11.9  12.9  14.1  15.2  16.0  16.6  16.8   0.0   0.0   0.0
 2004 153    56  12.7  13.6  14.7  15.7  16.3  16.8  17.0   0.0   0.0   0.0
 2004 154    57  13.3  14.1  15.1  16.0  16.5  16.9  17.1   0.0   0.0   0.0
 2004 155    58  14.2  14.8  15.7  16.4  16.8  17.1  17.2   0.0   0.0   0.0
 2004 156    59  15.2  15.7  16.4  16.9  17.2  17.4  17.4   0.0   0.0   0.0
 2004 157    60  16.0  16.4  16.9  17.3  17.5  17.6  17.5   0.0   0.0   0.0
 2004 158    61  15.6  16.1  16.7  17.1  17.4  17.5  17.4   0.0   0.0   0.0
 2004 159    62  15.1  15.6  16.3  16.8  17.2  17.4  17.3   0.0   0.0   0.0
 2004 160    63  14.8  15.4  16.1  16.7  17.1  17.3  17.3   0.0   0.0   0.0
 2004 161    64  14.8  15.3  16.0  16.7  17.0  17.3  17.3   0.0   0.0   0.0
 2004 162    65  14.3  14.9  15.7  16.4  16.8  17.1  17.2   0.0   0.0   0.0
 2004 163    66  13.8  14.5  15.3  16.1  16.6  17.0  17.1   0.0   0.0   0.0
 2004 164    67  13.4  14.1  15.0  15.9  16.5  16.9  17.1   0.0   0.0   0.0
 2004 165    68  12.9  13.7  14.7  15.7  16.3  16.8  17.0   0.0   0.0   0.0
 2004 166    69  12.2  13.0  14.2  15.3  16.0  16.6  16.9   0.0   0.0   0.0
 2004 167    70  12.2  13.0  14.2  15.3  16.0  16.6  16.9   0.0   0.0   0.0
 2004 168    71  12.8  13.6  14.7  15.6  16.2  16.8  17.0   0.0   0.0   0.0
 2004 169    72  13.5  14.1  15.1  15.9  16.5  16.9  17.1   0.0   0.0   0.0
 2004 170    73  13.5  14.2  15.1  15.9  16.5  16.9  17.1   0.0   0.0   0.0
 2004 171    74  15.0  15.5  16.1  16.7  17.1  17.3  17.3   0.0   0.0   0.0
 2004 172    75  16.3  16.6  17.0  17.4  17.6  17.6  17.5   0.0   0.0   0.0
 2004 173    76  16.4  16.7  17.1  17.4  17.6  17.7  17.6   0.0   0.0   0.0
 2004 174    77  16.2  16.5  16.9  17.3  17.5  17.6  17.5   0.0   0.0   0.0
 2004 175    78  16.5  16.7  17.1  17.4  17.6  17.6  17.6   0.0   0.0   0.0
 2004 176    79  15.2  15.6  16.2  16.7  17.1  17.3  17.4   0.0   0.0   0.0
 2004 177    80  13.8  14.3  15.2  16.0  16.5  16.9  17.1   0.0   0.0   0.0
 2004 178    81  13.7  14.3  15.2  15.9  16.5  16.9  17.1   0.0   0.0   0.0
 2004 179    82  14.0  14.5  15.3  16.0  16.6  17.0  17.1   0.0   0.0   0.0
 2004 180    83  14.4  14.9  15.6  16.3  16.7  17.1  17.2   0.0   0.0   0.0
 2004 181    84  15.5  15.8  16.3  16.8  17.1  17.4  17.4   0.0   0.0   0.0
 2004 182    85  16.2  16.5  16.8  17.2  17.4  17.5  17.5   0.0   0.0   0.0
 2004 183    86  16.6  16.8  17.1  17.4  17.5  17.6  17.6   0.0   0.0   0.0
 2004 184    87  17.8  17.8  17.9  17.9  18.0  17.9  17.8   0.0   0.0   0.0
 2004 185    88  17.3  17.3  17.5  17.7  17.8  17.8  17.7   0.0   0.0   0.0
 2004 186    89  16.3  16.5  16.8  17.1  17.4  17.5  17.5   0.0   0.0   0.0
 2004 187    90  15.8  16.1  16.5  16.9  17.2  17.4  17.4   0.0   0.0   0.0
 2004 188    91  15.5  15.8  16.3  16.7  17.1  17.3  17.4   0.0   0.0   0.0
 2004 189    92  14.2  14.7  15.4  16.0  16.5  17.0  17.1   0.0   0.0   0.0
 2004 190    93  13.7  14.2  15.0  15.7  16.3  16.8  17.1   0.0   0.0   0.0
 2004 191    94  12.9  13.6  14.5  15.4  16.0  16.6  16.9   0.0   0.0   0.0
 2004 192    95  12.0  12.7  13.8  14.8  15.6  16.4  16.8   0.0   0.0   0.0
 2004 193    96  10.7  11.6  12.9  14.2  15.1  16.0  16.6   0.0   0.0   0.0
 2004 194    97  10.1  11.1  12.5  13.9  14.9  15.9  16.5   0.0   0.0   0.0
 2004 195    98  10.4  11.4  12.7  14.0  15.0  15.9  16.5   0.0   0.0   0.0
 2004 196    99  11.1  12.0  13.2  14.3  15.2  16.1  16.6   0.0   0.0   0.0
 2004 197   100  11.6  12.4  13.5  14.6  15.4  16.2  16.7   0.0   0.0   0.0
 2004 198   101  11.8  12.5  13.6  14.7  15.5  16.2  16.7   0.0   0.0   0.0
 2004 199   102  11.2  12.0  13.2  14.3  15.2  16.1  16.6   0.0   0.0   0.0
 2004 200   103  10.8  11.6  12.9  14.1  15.0  16.0  16.5   0.0   0.0   0.0
 2004 201   104  10.4  11.3  12.6  13.9  14.9  15.9  16.5   0.0   0.0   0.0
 2004 202   105  11.1  11.9  13.1  14.2  15.1  16.0  16.6   0.0   0.0   0.0
 2004 203   106  12.1  12.8  13.8  14.8  15.5  16.3  16.7   0.0   0.0   0.0
 2004 204   107  13.9  14.3  15.0  15.6  16.2  16.7  17.0   0.0   0.0   0.0
 2004 205   108  15.5  15.7  16.1  16.5  16.8  17.1  17.2   0.0   0.0   0.0
 2004 206   109  17.3  17.3  17.3  17.4  17.5  17.6  17.5   0.0   0.0   0.0
 2004 207   110  18.1  17.9  17.8  17.8  17.8  17.7  17.6   0.0   0.0   0.0
 2004 208   111  18.8  18.5  18.2  18.1  18.0  17.9  17.7   0.0   0.0   0.0
 2004 209   112  18.6  18.3  18.1  18.0  17.9  17.8  17.7   0.0   0.0   0.0
 2004 210   113  18.7  18.4  18.2  18.0  18.0  17.9  17.7   0.0   0.0   0.0
 2004 211   114  17.1  17.1  17.1  17.2  17.3  17.4  17.5   0.0   0.0   0.0
 2004 212   115  15.3  15.5  15.8  16.2  16.6  17.0  17.2   0.0   0.0   0.0
 2004 213   116  14.2  14.5  15.1  15.7  16.2  16.7  17.0   0.0   0.0   0.0
 2004 214   117  14.6  14.9  15.3  15.9  16.3  16.8  17.0   0.0   0.0   0.0
 2004 215   118  14.4  14.6  15.1  15.7  16.2  16.7  17.0   0.0   0.0   0.0
 2004 216   119  15.4  15.5  15.8  16.2  16.6  16.9  17.1   0.0   0.0   0.0
 2004 217   120  17.4  17.2  17.2  17.2  17.3  17.4  17.4   0.0   0.0   0.0
 2004 218   121  18.9  18.6  18.2  18.0  17.9  17.8  17.7   0.0   0.0   0.0
 2004 219   122  18.0  17.8  17.6  17.5  17.5  17.6  17.5   0.0   0.0   0.0
 2004 220   123  16.6  16.6  16.6  16.8  17.0  17.2  17.3   0.0   0.0   0.0
 2004 221   124  15.5  15.6  15.9  16.2  16.5  16.9  17.1   0.0   0.0   0.0
 2004 222   125  14.1  14.4  14.9  15.5  16.0  16.5  16.9   0.0   0.0   0.0
 2004 223   126  12.9  13.4  14.1  14.8  15.5  16.2  16.7   0.0   0.0   0.0
 2004 224   127  13.1  13.5  14.2  14.9  15.5  16.2  16.7   0.0   0.0   0.0
 2004 225   128  14.6  14.8  15.2  15.7  16.1  16.6  16.9   0.0   0.0   0.0
 2004 226   129  16.3  16.3  16.3  16.5  16.7  17.0  17.2   0.0   0.0   0.0
 2004 227   130  17.9  17.7  17.4  17.4  17.4  17.4  17.4   0.0   0.0   0.0
 2004 228   131  19.2  18.8  18.3  18.0  17.8  17.7  17.6   0.0   0.0   0.0
 2004 229   132  20.3  19.7  19.0  18.5  18.3  18.0  17.8   0.0   0.0   0.0
 2004 230   133  20.5  19.9  19.2  18.6  18.3  18.0  17.8   0.0   0.0   0.0
 2004 231   134  19.5  19.0  18.5  18.1  17.9  17.7  17.6   0.0   0.0   0.0
 2004 232   135  18.0  17.8  17.5  17.3  17.3  17.4  17.4   0.0   0.0   0.0
 2004 233   136  16.6  16.4  16.4  16.5  16.7  17.0  17.1   0.0   0.0   0.0
 2004 234   137  14.8  14.9  15.2  15.6  16.0  16.5  16.8   0.0   0.0   0.0
 2004 235   138  13.5  13.8  14.3  14.9  15.5  16.1  16.6   0.0   0.0   0.0
 2004 236   139  12.8  13.2  13.8  14.5  15.2  15.9  16.5   0.0   0.0   0.0
 2004 237   140  13.2  13.5  14.0  14.7  15.3  16.0  16.5   0.0   0.0   0.0
 2004 238   141  13.7  13.9  14.4  15.0  15.5  16.1  16.6   0.0   0.0   0.0
 2004 239   142  14.3  14.5  14.8  15.3  15.7  16.3  16.7   0.0   0.0   0.0
 2004 240   143  14.9  15.0  15.2  15.6  15.9  16.4  16.8   0.0   0.0   0.0
 2004 241   144  16.1  16.0  16.0  16.2  16.4  16.7  17.0   0.0   0.0   0.0
 2004 242   145  17.0  16.8  16.6  16.6  16.7  16.9  17.1   0.0   0.0   0.0
 2004 243   146  17.2  17.0  16.8  16.7  16.8  17.0  17.1   0.0   0.0   0.0
 2004 244   147  17.6  17.3  17.0  16.9  16.9  17.1  17.2   0.0   0.0   0.0
 2004 245   148  18.1  17.7  17.4  17.2  17.1  17.2  17.2   0.0   0.0   0.0
 2004 246   149  17.9  17.5  17.2  17.0  17.0  17.1  17.2   0.0   0.0   0.0
 2004 247   150  17.4  17.1  16.8  16.7  16.8  16.9  17.1   0.0   0.0   0.0
 2004 248   151  17.9  17.5  17.2  17.0  17.0  17.1  17.2   0.0   0.0   0.0
 2004 249   152  19.8  19.2  18.5  18.0  17.7  17.5  17.5   0.0   0.0   0.0
 2004 250   153  21.4  20.5  19.5  18.8  18.3  17.9  17.7   0.0   0.0   0.0
 2004 251   154  21.6  20.7  19.6  18.8  18.4  17.9  17.7   0.0   0.0   0.0
 2004 252   155  20.2  19.5  18.7  18.1  17.8  17.6  17.5   0.0   0.0   0.0
 2004 253   156  18.5  18.0  17.5  17.2  17.1  17.1  17.2   0.0   0.0   0.0
 2004 254   157  16.3  16.1  16.0  16.1  16.2  16.5  16.8   0.0   0.0   0.0
 2004 255   158  13.7  13.9  14.2  14.7  15.2  15.9  16.4   0.0   0.0   0.0
 2004 256   159  13.1  13.4  13.8  14.4  15.0  15.7  16.3   0.0   0.0   0.0
 2004 257   160  14.0  14.1  14.4  14.8  15.3  15.9  16.4   0.0   0.0   0.0
 2004 258   161  15.6  15.5  15.5  15.7  15.9  16.3  16.7   0.0   0.0   0.0
 2004 259   162  15.9  15.8  15.7  15.8  16.0  16.4  16.7   0.0   0.0   0.0
 2004 260   163  16.7  16.5  16.3  16.2  16.3  16.6  16.8   0.0   0.0   0.0
 2004 261   164  17.6  17.2  16.8  16.6  16.6  16.8  16.9   0.0   0.0   0.0
 2004 262   165  19.2  18.6  17.9  17.5  17.3  17.2  17.2   0.0   0.0   0.0

*DSSAT Cropping System Model Ver. 4.0.2.000               Aug 12, 2016; 12:46:13

*RUN   6        : UYMZ                    
 MODEL          : MZCER040 - Maize           
 EXPERIMENT     : UYMZ0193 MZ    late to create DSS                             
 TREATMENT  1   : UYMZ                    

@YEAR DOY   DAS  TS1D  TS2D  TS3D  TS4D  TS5D  TS6D  TS7D  TS8D  TS9D  TS10
 2005 097     0  24.8  24.0  22.9  21.7  20.7  19.4  18.4   0.0   0.0   0.0
 2005 098     1  24.1  23.4  22.5  21.4  20.4  19.2  18.3   0.0   0.0   0.0
 2005 099     2  23.4  22.9  22.0  21.1  20.2  19.1  18.2   0.0   0.0   0.0
 2005 100     3  22.7  22.2  21.5  20.7  19.9  18.9  18.1   0.0   0.0   0.0
 2005 101     4  21.7  21.4  20.8  20.2  19.5  18.7  18.0   0.0   0.0   0.0
 2005 102     5  19.6  19.6  19.5  19.2  18.8  18.2  17.7   0.0   0.0   0.0
 2005 103     6  19.3  19.3  19.2  19.0  18.7  18.2  17.6   0.0   0.0   0.0
 2005 104     7  19.0  19.0  19.0  18.8  18.5  18.1  17.6   0.0   0.0   0.0
 2005 105     8  18.8  18.9  18.9  18.8  18.5  18.0  17.6   0.0   0.0   0.0
 2005 106     9  19.3  19.3  19.2  19.0  18.7  18.2  17.7   0.0   0.0   0.0
 2005 107    10  20.1  20.0  19.8  19.5  19.0  18.4  17.8   0.0   0.0   0.0
 2005 108    11  20.7  20.5  20.2  19.8  19.3  18.6  17.9   0.0   0.0   0.0
 2005 109    12  21.5  21.3  20.8  20.2  19.6  18.8  18.1   0.0   0.0   0.0
 2005 110    13  21.5  21.2  20.8  20.2  19.6  18.8  18.1   0.0   0.0   0.0
 2005 111    14  20.9  20.7  20.4  19.9  19.4  18.6  18.0   0.0   0.0   0.0
 2005 112    15  20.6  20.5  20.2  19.7  19.3  18.6  17.9   0.0   0.0   0.0
 2005 113    16  20.8  20.6  20.3  19.8  19.3  18.6  18.0   0.0   0.0   0.0
 2005 114    17  19.7  19.7  19.6  19.3  18.9  18.4  17.8   0.0   0.0   0.0
 2005 115    18  19.0  19.1  19.1  18.9  18.6  18.2  17.7   0.0   0.0   0.0
 2005 116    19  18.5  18.7  18.8  18.7  18.5  18.1  17.6   0.0   0.0   0.0
 2005 117    20  17.6  17.9  18.1  18.2  18.1  17.9  17.5   0.0   0.0   0.0
 2005 118    21  16.4  16.9  17.3  17.6  17.7  17.6  17.3   0.0   0.0   0.0
 2005 119    22  16.6  17.0  17.4  17.7  17.7  17.6  17.4   0.0   0.0   0.0
 2005 120    23  17.3  17.6  17.9  18.1  18.0  17.8  17.5   0.0   0.0   0.0
 2005 121    24  18.2  18.4  18.6  18.5  18.4  18.0  17.6   0.0   0.0   0.0
 2005 122    25  19.3  19.3  19.3  19.1  18.8  18.3  17.8   0.0   0.0   0.0
 2005 123    26  20.3  20.2  20.0  19.6  19.2  18.6  18.0   0.0   0.0   0.0
 2005 124    27  21.2  21.0  20.6  20.1  19.6  18.8  18.1   0.0   0.0   0.0
 2005 125    28  21.1  20.9  20.5  20.0  19.5  18.8  18.1   0.0   0.0   0.0
 2005 126    29  20.0  19.9  19.8  19.5  19.1  18.5  18.0   0.0   0.0   0.0
 2005 127    30  19.0  19.1  19.1  19.0  18.7  18.3  17.8   0.0   0.0   0.0
 2005 128    31  18.0  18.2  18.4  18.5  18.4  18.1  17.7   0.0   0.0   0.0
 2005 129    32  17.0  17.3  17.7  17.9  17.9  17.8  17.5   0.0   0.0   0.0
 2005 130    33  17.2  17.5  17.8  18.0  18.0  17.8  17.5   0.0   0.0   0.0
 2005 131    34  17.8  18.0  18.3  18.4  18.3  18.0  17.7   0.0   0.0   0.0
 2005 132    35  18.3  18.4  18.6  18.6  18.5  18.2  17.8   0.0   0.0   0.0
 2005 133    36  18.6  18.8  18.8  18.8  18.6  18.2  17.8   0.0   0.0   0.0
 2005 134    37  18.7  18.8  18.9  18.8  18.6  18.3  17.8   0.0   0.0   0.0
 2005 135    38  18.1  18.3  18.5  18.5  18.4  18.1  17.8   0.0   0.0   0.0
 2005 136    39  17.6  17.9  18.1  18.2  18.2  18.0  17.7   0.0   0.0   0.0
 2005 137    40  17.2  17.5  17.8  18.0  18.1  17.9  17.6   0.0   0.0   0.0
 2005 138    41  16.8  17.2  17.6  17.8  17.9  17.8  17.6   0.0   0.0   0.0
 2005 139    42  17.0  17.3  17.7  17.9  18.0  17.9  17.6   0.0   0.0   0.0
 2005 140    43  16.9  17.2  17.6  17.9  17.9  17.8  17.6   0.0   0.0   0.0
 2005 141    44  16.1  16.6  17.1  17.5  17.6  17.6  17.5   0.0   0.0   0.0
 2005 142    45  15.5  16.0  16.6  17.1  17.4  17.5  17.3   0.0   0.0   0.0
 2005 143    46  14.7  15.3  16.1  16.7  17.1  17.3  17.2   0.0   0.0   0.0
 2005 144    47  14.1  14.8  15.7  16.4  16.8  17.1  17.1   0.0   0.0   0.0
 2005 145    48  13.3  14.1  15.2  16.0  16.5  16.9  17.0   0.0   0.0   0.0
 2005 146    49  13.5  14.3  15.3  16.1  16.6  17.0  17.1   0.0   0.0   0.0
 2005 147    50  14.1  14.8  15.7  16.4  16.9  17.1  17.2   0.0   0.0   0.0
 2005 148    51  15.5  16.0  16.6  17.1  17.4  17.5  17.4   0.0   0.0   0.0
 2005 149    52  16.6  16.9  17.4  17.7  17.8  17.8  17.6   0.0   0.0   0.0
 2005 150    53  17.1  17.3  17.7  17.9  18.0  17.9  17.6   0.0   0.0   0.0
 2005 151    54  17.2  17.4  17.8  18.0  18.0  17.9  17.7   0.0   0.0   0.0
 2005 152    55  18.1  18.3  18.4  18.5  18.4  18.2  17.8   0.0   0.0   0.0
 2005 153    56  19.0  19.0  19.0  18.9  18.7  18.4  18.0   0.0   0.0   0.0
 2005 154    57  19.1  19.1  19.1  19.0  18.8  18.4  18.0   0.0   0.0   0.0
 2005 155    58  19.9  19.8  19.6  19.3  19.1  18.6  18.1   0.0   0.0   0.0
 2005 156    59  21.1  20.8  20.4  20.0  19.6  18.9  18.3   0.0   0.0   0.0
 2005 157    60  20.6  20.4  20.1  19.7  19.4  18.8  18.3   0.0   0.0   0.0
 2005 158    61  20.6  20.4  20.0  19.7  19.3  18.8  18.3   0.0   0.0   0.0
 2005 159    62  20.6  20.4  20.0  19.7  19.3  18.8  18.3   0.0   0.0   0.0
 2005 160    63  20.2  20.0  19.8  19.5  19.2  18.7  18.2   0.0   0.0   0.0
 2005 161    64  20.5  20.3  19.9  19.6  19.3  18.8  18.2   0.0   0.0   0.0
 2005 162    65  20.2  20.0  19.7  19.4  19.1  18.7  18.2   0.0   0.0   0.0
 2005 163    66  18.7  18.7  18.7  18.7  18.6  18.3  17.9   0.0   0.0   0.0
 2005 164    67  17.6  17.7  17.9  18.1  18.1  18.0  17.8   0.0   0.0   0.0
 2005 165    68  17.0  17.2  17.5  17.8  17.9  17.8  17.7   0.0   0.0   0.0
 2005 166    69  15.9  16.2  16.7  17.2  17.4  17.5  17.5   0.0   0.0   0.0
 2005 167    70  15.8  16.2  16.7  17.1  17.4  17.5  17.5   0.0   0.0   0.0
 2005 168    71  16.1  16.4  16.9  17.2  17.5  17.6  17.5   0.0   0.0   0.0
 2005 169    72  15.9  16.3  16.8  17.2  17.4  17.5  17.5   0.0   0.0   0.0
 2005 170    73  15.6  16.0  16.5  17.0  17.3  17.5  17.4   0.0   0.0   0.0
 2005 171    74  14.7  15.2  15.9  16.5  16.9  17.2  17.3   0.0   0.0   0.0
 2005 172    75  13.3  14.0  14.9  15.8  16.3  16.8  17.1   0.0   0.0   0.0
 2005 173    76  11.7  12.6  13.8  15.0  15.7  16.5  16.8   0.0   0.0   0.0
 2005 174    77  11.1  12.1  13.4  14.6  15.5  16.3  16.7   0.0   0.0   0.0
 2005 175    78  11.1  12.0  13.4  14.6  15.5  16.3  16.7   0.0   0.0   0.0
 2005 176    79  11.8  12.6  13.9  15.0  15.7  16.5  16.8   0.0   0.0   0.0
 2005 177    80  12.5  13.3  14.3  15.3  16.0  16.6  16.9   0.0   0.0   0.0
 2005 178    81  13.6  14.2  15.1  15.9  16.4  16.9  17.1   0.0   0.0   0.0
 2005 179    82  14.3  14.8  15.5  16.2  16.7  17.1  17.2   0.0   0.0   0.0
 2005 180    83  15.2  15.6  16.1  16.7  17.0  17.3  17.3   0.0   0.0   0.0
 2005 181    84  15.3  15.7  16.2  16.7  17.1  17.3  17.4   0.0   0.0   0.0
 2005 182    85  16.5  16.7  17.0  17.3  17.5  17.6  17.5   0.0   0.0   0.0
 2005 183    86  18.1  18.1  18.1  18.1  18.1  18.0  17.8   0.0   0.0   0.0
 2005 184    87  18.5  18.5  18.4  18.3  18.3  18.1  17.9   0.0   0.0   0.0
 2005 185    88  17.5  17.6  17.7  17.8  17.9  17.8  17.7   0.0   0.0   0.0
 2005 186    89  16.3  16.5  16.8  17.2  17.4  17.5  17.5   0.0   0.0   0.0
 2005 187    90  14.6  15.1  15.7  16.3  16.7  17.1  17.2   0.0   0.0   0.0
 2005 188    91  12.1  12.9  14.0  15.0  15.7  16.4  16.8   0.0   0.0   0.0
 2005 189    92  11.3  12.2  13.4  14.6  15.4  16.2  16.7   0.0   0.0   0.0
 2005 190    93  12.2  12.9  14.0  15.0  15.7  16.4  16.8   0.0   0.0   0.0
 2005 191    94  13.5  14.0  14.8  15.6  16.2  16.8  17.0   0.0   0.0   0.0
 2005 192    95  14.7  15.1  15.6  16.2  16.7  17.1  17.2   0.0   0.0   0.0
 2005 193    96  15.6  15.8  16.2  16.7  17.0  17.3  17.3   0.0   0.0   0.0
 2005 194    97  16.0  16.2  16.6  16.9  17.2  17.4  17.4   0.0   0.0   0.0
 2005 195    98  17.1  17.1  17.3  17.4  17.6  17.6  17.6   0.0   0.0   0.0
 2005 196    99  17.4  17.4  17.5  17.6  17.7  17.7  17.6   0.0   0.0   0.0
 2005 197   100  16.8  16.9  17.1  17.3  17.4  17.5  17.5   0.0   0.0   0.0
 2005 198   101  16.2  16.3  16.6  16.9  17.2  17.4  17.4   0.0   0.0   0.0
 2005 199   102  15.0  15.3  15.8  16.3  16.7  17.1  17.2   0.0   0.0   0.0
 2005 200   103  12.9  13.5  14.3  15.2  15.9  16.5  16.9   0.0   0.0   0.0
 2005 201   104  11.5  12.2  13.3  14.4  15.3  16.1  16.6   0.0   0.0   0.0
 2005 202   105  11.1  11.9  13.1  14.3  15.1  16.0  16.6   0.0   0.0   0.0
 2005 203   106  11.2  12.0  13.2  14.3  15.2  16.0  16.6   0.0   0.0   0.0
 2005 204   107  11.5  12.2  13.3  14.4  15.2  16.1  16.6   0.0   0.0   0.0
 2005 205   108  11.5  12.2  13.3  14.4  15.2  16.1  16.6   0.0   0.0   0.0
 2005 206   109  11.6  12.3  13.4  14.4  15.3  16.1  16.6   0.0   0.0   0.0
 2005 207   110  11.4  12.1  13.2  14.3  15.2  16.0  16.6   0.0   0.0   0.0
 2005 208   111  11.2  12.0  13.1  14.2  15.1  16.0  16.5   0.0   0.0   0.0
 2005 209   112  11.9  12.5  13.5  14.5  15.3  16.1  16.6   0.0   0.0   0.0
 2005 210   113  13.0  13.5  14.3  15.1  15.7  16.4  16.8   0.0   0.0   0.0
 2005 211   114  15.5  15.7  16.0  16.4  16.7  17.0  17.2   0.0   0.0   0.0
 2005 212   115  18.1  17.9  17.8  17.7  17.7  17.7  17.6   0.0   0.0   0.0
 2005 213   116  19.7  19.3  18.8  18.5  18.3  18.1  17.8   0.0   0.0   0.0
 2005 214   117  21.4  20.8  20.0  19.4  18.9  18.5  18.1   0.0   0.0   0.0
 2005 215   118  22.6  21.8  20.8  20.0  19.4  18.8  18.3   0.0   0.0   0.0
 2005 216   119  23.0  22.1  21.0  20.1  19.5  18.9  18.3   0.0   0.0   0.0
 2005 217   120  23.2  22.3  21.2  20.2  19.6  18.9  18.4   0.0   0.0   0.0
 2005 218   121  22.0  21.3  20.4  19.6  19.1  18.6  18.2   0.0   0.0   0.0
 2005 219   122  19.1  18.7  18.3  18.1  18.0  17.8  17.7   0.0   0.0   0.0
 2005 220   123  17.2  17.1  17.0  17.1  17.2  17.3  17.4   0.0   0.0   0.0
 2005 221   124  15.0  15.1  15.5  15.9  16.3  16.8  17.0   0.0   0.0   0.0
 2005 222   125  12.8  13.3  14.0  14.8  15.5  16.2  16.7   0.0   0.0   0.0
 2005 223   126  13.0  13.4  14.1  14.9  15.5  16.2  16.7   0.0   0.0   0.0
 2005 224   127  14.2  14.4  14.9  15.5  16.0  16.5  16.9   0.0   0.0   0.0
 2005 225   128  15.0  15.1  15.5  15.9  16.3  16.7  17.0   0.0   0.0   0.0
 2005 226   129  15.2  15.3  15.6  16.0  16.3  16.7  17.0   0.0   0.0   0.0
 2005 227   130  15.1  15.2  15.5  15.9  16.3  16.7  17.0   0.0   0.0   0.0
 2005 228   131  15.3  15.4  15.6  16.0  16.3  16.7  17.0   0.0   0.0   0.0
 2005 229   132  15.1  15.2  15.5  15.9  16.2  16.7  17.0   0.0   0.0   0.0
 2005 230   133  14.7  14.8  15.2  15.6  16.0  16.5  16.9   0.0   0.0   0.0
 2005 231   134  15.0  15.1  15.3  15.7  16.1  16.6  16.9   0.0   0.0   0.0
 2005 232   135  15.8  15.8  15.9  16.2  16.4  16.8  17.0   0.0   0.0   0.0
 2005 233   136  16.2  16.1  16.2  16.3  16.6  16.9  17.1   0.0   0.0   0.0
 2005 234   137  17.4  17.2  17.0  17.0  17.0  17.2  17.3   0.0   0.0   0.0
 2005 235   138  18.6  18.2  17.8  17.5  17.5  17.4  17.4   0.0   0.0   0.0
 2005 236   139  17.8  17.5  17.2  17.1  17.1  17.2  17.3   0.0   0.0   0.0
 2005 237   140  17.0  16.8  16.7  16.7  16.8  17.0  17.2   0.0   0.0   0.0
 2005 238   141  16.5  16.4  16.3  16.4  16.6  16.9  17.1   0.0   0.0   0.0
 2005 239   142  15.9  15.8  15.9  16.1  16.3  16.7  17.0   0.0   0.0   0.0
 2005 240   143  14.9  14.9  15.2  15.6  15.9  16.4  16.8   0.0   0.0   0.0
 2005 241   144  14.9  14.9  15.2  15.5  15.9  16.4  16.8   0.0   0.0   0.0
 2005 242   145  14.8  14.9  15.1  15.5  15.9  16.4  16.7   0.0   0.0   0.0
 2005 243   146  14.0  14.2  14.6  15.1  15.5  16.1  16.6   0.0   0.0   0.0
 2005 244   147  13.0  13.3  13.9  14.5  15.1  15.9  16.4   0.0   0.0   0.0
 2005 245   148  12.8  13.1  13.7  14.4  15.0  15.8  16.4   0.0   0.0   0.0
 2005 246   149  13.2  13.5  14.0  14.6  15.2  15.9  16.4   0.0   0.0   0.0
 2005 247   150  13.2  13.5  14.0  14.6  15.2  15.9  16.4   0.0   0.0   0.0
 2005 248   151  13.9  14.0  14.4  14.9  15.4  16.0  16.5   0.0   0.0   0.0
 2005 249   152  14.5  14.5  14.8  15.2  15.6  16.2  16.6   0.0   0.0   0.0
 2005 250   153  15.2  15.2  15.3  15.5  15.9  16.3  16.7   0.0   0.0   0.0
 2005 251   154  16.0  15.8  15.8  15.9  16.2  16.5  16.8   0.0   0.0   0.0
 2005 252   155  16.8  16.6  16.4  16.4  16.5  16.7  16.9   0.0   0.0   0.0
 2005 253   156  17.4  17.1  16.8  16.7  16.7  16.9  17.0   0.0   0.0   0.0
 2005 254   157  16.9  16.7  16.4  16.4  16.5  16.7  16.9   0.0   0.0   0.0
 2005 255   158  16.0  15.8  15.8  15.9  16.1  16.4  16.7   0.0   0.0   0.0
 2005 256   159  14.7  14.7  14.9  15.2  15.6  16.1  16.5   0.0   0.0   0.0
 2005 257   160  13.1  13.3  13.7  14.3  14.9  15.7  16.3   0.0   0.0   0.0
 2005 258   161  12.1  12.4  13.1  13.8  14.5  15.4  16.1   0.0   0.0   0.0
 2005 259   162  12.5  12.8  13.3  14.0  14.7  15.5  16.1   0.0   0.0   0.0
 2005 260   163  12.9  13.1  13.6  14.2  14.8  15.6  16.2   0.0   0.0   0.0
 2005 261   164  13.4  13.6  14.0  14.5  15.0  15.7  16.3   0.0   0.0   0.0
 2005 262   165  14.8  14.8  14.9  15.2  15.5  16.0  16.5   0.0   0.0   0.0
 2005 263   166  16.2  16.0  15.9  15.9  16.1  16.4  16.7   0.0   0.0   0.0
 2005 264   167  17.0  16.7  16.4  16.3  16.4  16.6  16.8   0.0   0.0   0.0
 2005 265   168  18.3  17.9  17.3  17.0  16.9  16.9  17.0   0.0   0.0   0.0
 2005 266   169  19.8  19.1  18.3  17.7  17.4  17.3  17.2   0.0   0.0   0.0
 2005 267   170  20.0  19.3  18.5  17.8  17.5  17.3  17.3   0.0   0.0   0.0
 2005 268   171  19.7  19.0  18.2  17.7  17.4  17.2  17.2   0.0   0.0   0.0
 2005 269   172  19.0  18.4  17.8  17.3  17.1  17.0  17.1   0.0   0.0   0.0
 2005 270   173  18.2  17.7  17.2  16.9  16.8  16.8  16.9   0.0   0.0   0.0
 2005 271   174  18.0  17.5  17.0  16.7  16.6  16.7  16.9   0.0   0.0   0.0
 2005 272   175  18.5  18.0  17.4  17.0  16.8  16.8  17.0   0.0   0.0   0.0
 2005 273   176  18.6  18.1  17.4  17.0  16.9  16.9  17.0   0.0   0.0   0.0
 2005 274   177  19.4  18.7  18.0  17.4  17.2  17.0  17.1   0.0   0.0   0.0
 2005 275   178  20.4  19.6  18.6  17.9  17.5  17.3  17.2   0.0   0.0   0.0
 2005 276   179  19.9  19.1  18.3  17.6  17.3  17.1  17.1   0.0   0.0   0.0
 2005 277   180  18.5  18.0  17.3  16.9  16.8  16.8  16.9   0.0   0.0   0.0
 2005 278   181  17.9  17.4  16.9  16.6  16.5  16.6  16.8   0.0   0.0   0.0
 2005 279   182  17.1  16.7  16.4  16.2  16.2  16.4  16.6   0.0   0.0   0.0
 2005 280   183  16.1  15.9  15.7  15.7  15.8  16.1  16.5   0.0   0.0   0.0
 2005 281   184  16.0  15.7  15.6  15.6  15.7  16.1  16.4   0.0   0.0   0.0
 2005 282   185  17.1  16.7  16.3  16.2  16.2  16.4  16.6   0.0   0.0   0.0
 2005 283   186  18.0  17.5  17.0  16.6  16.5  16.6  16.7   0.0   0.0   0.0
 2005 284   187  19.1  18.5  17.7  17.2  16.9  16.9  16.9   0.0   0.0   0.0
 2005 285   188  20.8  20.0  18.9  18.1  17.6  17.3  17.2   0.0   0.0   0.0
 2005 286   189  21.0  20.1  19.0  18.1  17.6  17.3  17.2   0.0   0.0   0.0
 2005 287   190  20.8  19.9  18.8  18.0  17.5  17.2  17.1   0.0   0.0   0.0
 2005 288   191  20.1  19.3  18.4  17.7  17.3  17.1  17.0   0.0   0.0   0.0
 2005 289   192  19.4  18.7  17.9  17.3  17.0  16.9  16.9   0.0   0.0   0.0
 2005 290   193  17.6  17.2  16.7  16.4  16.3  16.4  16.6   0.0   0.0   0.0
 2005 291   194  18.3  17.7  17.1  16.7  16.5  16.5  16.7   0.0   0.0   0.0
 2005 292   195  19.5  18.8  18.0  17.3  17.0  16.9  16.9   0.0   0.0   0.0
 2005 293   196  21.5  20.5  19.3  18.4  17.8  17.4  17.2   0.0   0.0   0.0
 2005 294   197  23.3  22.1  20.6  19.3  18.5  17.8  17.5   0.0   0.0   0.0
 2005 295   198  25.3  23.8  21.9  20.3  19.2  18.3  17.8   0.0   0.0   0.0
 2005 296   199  24.5  23.1  21.4  19.9  18.9  18.1  17.6   0.0   0.0   0.0
 2005 297   200  22.5  21.4  20.0  18.8  18.1  17.6  17.3   0.0   0.0   0.0
 2005 298   201  20.9  20.0  18.9  18.0  17.5  17.1  17.0   0.0   0.0   0.0
 2005 299   202  19.3  18.6  17.8  17.2  16.9  16.7  16.8   0.0   0.0   0.0
 2005 300   203  18.3  17.8  17.1  16.7  16.5  16.5  16.6   0.0   0.0   0.0
 2005 301   204  18.5  17.9  17.2  16.8  16.5  16.5  16.6   0.0   0.0   0.0
 2005 302   205  19.1  18.5  17.7  17.1  16.8  16.7  16.7   0.0   0.0   0.0
 2005 303   206  18.8  18.2  17.4  16.9  16.6  16.6  16.7   0.0   0.0   0.0
 2005 304   207  18.5  18.0  17.3  16.8  16.5  16.5  16.6   0.0   0.0   0.0
 2005 305   208  18.7  18.1  17.4  16.9  16.6  16.5  16.6   0.0   0.0   0.0
 2005 306   209  19.9  19.1  18.2  17.5  17.1  16.8  16.8   0.0   0.0   0.0
 2005 307   210  21.1  20.2  19.0  18.1  17.5  17.1  17.0   0.0   0.0   0.0
 2005 308   211  21.5  20.6  19.3  18.3  17.7  17.2  17.1   0.0   0.0   0.0
 2005 309   212  21.9  20.9  19.6  18.5  17.9  17.3  17.1   0.0   0.0   0.0
 2005 310   213  21.4  20.4  19.2  18.2  17.6  17.2  17.0   0.0   0.0   0.0
 2005 311   214  20.2  19.4  18.4  17.6  17.2  16.9  16.8   0.0   0.0   0.0
 2005 312   215  19.4  18.7  17.9  17.2  16.9  16.7  16.7   0.0   0.0   0.0
 2005 313   216  19.6  18.9  18.0  17.3  16.9  16.7  16.7   0.0   0.0   0.0
 2005 314   217  20.0  19.2  18.3  17.5  17.1  16.8  16.8   0.0   0.0   0.0
 2005 315   218  20.8  19.9  18.8  17.9  17.4  17.0  16.9   0.0   0.0   0.0
 2005 316   219  22.1  21.1  19.7  18.6  17.9  17.3  17.1   0.0   0.0   0.0
 2005 317   220  23.2  22.0  20.5  19.2  18.3  17.6  17.3   0.0   0.0   0.0
 2005 318   221  24.4  23.0  21.3  19.8  18.8  17.9  17.4   0.0   0.0   0.0
 2005 319   222  25.3  23.8  21.9  20.3  19.1  18.1  17.6   0.0   0.0   0.0
 2005 320   223  25.6  24.2  22.2  20.5  19.3  18.2  17.6   0.0   0.0   0.0
 2005 321   224  25.8  24.3  22.3  20.5  19.3  18.2  17.6   0.0   0.0   0.0

*DSSAT Cropping System Model Ver. 4.0.2.000               Aug 12, 2016; 12:46:13

*RUN   7        : UYMZ                    
 MODEL          : MZCER040 - Maize           
 EXPERIMENT     : UYMZ0193 MZ    late to create DSS                             
 TREATMENT  1   : UYMZ                    

@YEAR DOY   DAS  TS1D  TS2D  TS3D  TS4D  TS5D  TS6D  TS7D  TS8D  TS9D  TS10
 2006 097     0  23.9  23.3  22.3  21.3  20.3  19.2  18.2   0.0   0.0   0.0
 2006 098     1  24.1  23.5  22.5  21.4  20.4  19.2  18.3   0.0   0.0   0.0
 2006 099     2  24.1  23.5  22.5  21.4  20.4  19.3  18.3   0.0   0.0   0.0
 2006 100     3  23.8  23.3  22.3  21.3  20.3  19.2  18.3   0.0   0.0   0.0
 2006 101     4  23.7  23.2  22.2  21.2  20.3  19.2  18.2   0.0   0.0   0.0
 2006 102     5  23.5  23.0  22.1  21.1  20.2  19.1  18.2   0.0   0.0   0.0
 2006 103     6  23.3  22.8  21.9  21.0  20.2  19.1  18.2   0.0   0.0   0.0
 2006 104     7  22.3  22.0  21.3  20.5  19.8  18.9  18.1   0.0   0.0   0.0
 2006 105     8  21.6  21.4  20.8  20.2  19.6  18.7  18.0   0.0   0.0   0.0
 2006 106     9  20.6  20.4  20.1  19.7  19.2  18.5  17.8   0.0   0.0   0.0
 2006 107    10  19.5  19.5  19.4  19.1  18.8  18.2  17.7   0.0   0.0   0.0
 2006 108    11  18.7  18.8  18.9  18.7  18.5  18.0  17.6   0.0   0.0   0.0
 2006 109    12  19.1  19.2  19.1  18.9  18.6  18.1  17.6   0.0   0.0   0.0
 2006 110    13  20.1  20.0  19.8  19.4  19.0  18.4  17.8   0.0   0.0   0.0
 2006 111    14  20.3  20.2  19.9  19.5  19.1  18.4  17.8   0.0   0.0   0.0
 2006 112    15  20.4  20.3  20.0  19.6  19.2  18.5  17.9   0.0   0.0   0.0
 2006 113    16  20.3  20.2  20.0  19.6  19.1  18.5  17.9   0.0   0.0   0.0
 2006 114    17  20.6  20.4  20.1  19.7  19.3  18.6  17.9   0.0   0.0   0.0
 2006 115    18  19.5  19.5  19.4  19.2  18.9  18.3  17.8   0.0   0.0   0.0
 2006 116    19  19.9  19.9  19.7  19.4  19.0  18.4  17.9   0.0   0.0   0.0
 2006 117    20  20.7  20.6  20.3  19.8  19.3  18.6  18.0   0.0   0.0   0.0
 2006 118    21  20.3  20.2  20.0  19.6  19.2  18.5  17.9   0.0   0.0   0.0
 2006 119    22  19.7  19.7  19.5  19.3  18.9  18.4  17.8   0.0   0.0   0.0
 2006 120    23  19.3  19.3  19.3  19.1  18.8  18.3  17.8   0.0   0.0   0.0
 2006 121    24  18.4  18.6  18.7  18.6  18.5  18.1  17.7   0.0   0.0   0.0
 2006 122    25  17.7  17.9  18.2  18.3  18.2  17.9  17.6   0.0   0.0   0.0
 2006 123    26  17.9  18.1  18.3  18.4  18.3  18.0  17.6   0.0   0.0   0.0
 2006 124    27  17.2  17.5  17.8  18.0  18.0  17.8  17.5   0.0   0.0   0.0
 2006 125    28  17.1  17.4  17.8  18.0  18.0  17.8  17.5   0.0   0.0   0.0
 2006 126    29  17.2  17.5  17.9  18.0  18.0  17.8  17.5   0.0   0.0   0.0
 2006 127    30  16.9  17.3  17.7  17.9  17.9  17.8  17.5   0.0   0.0   0.0
 2006 128    31  16.8  17.2  17.6  17.8  17.9  17.7  17.5   0.0   0.0   0.0
 2006 129    32  17.2  17.5  17.9  18.0  18.0  17.8  17.5   0.0   0.0   0.0
 2006 130    33  17.4  17.7  18.0  18.1  18.1  17.9  17.6   0.0   0.0   0.0
 2006 131    34  17.6  17.8  18.1  18.2  18.2  17.9  17.6   0.0   0.0   0.0
 2006 132    35  17.2  17.5  17.9  18.0  18.0  17.9  17.6   0.0   0.0   0.0
 2006 133    36  16.9  17.2  17.6  17.9  17.9  17.8  17.5   0.0   0.0   0.0
 2006 134    37  16.8  17.1  17.5  17.8  17.9  17.8  17.5   0.0   0.0   0.0
 2006 135    38  16.8  17.2  17.6  17.8  17.9  17.8  17.5   0.0   0.0   0.0
 2006 136    39  17.4  17.6  18.0  18.1  18.1  17.9  17.6   0.0   0.0   0.0
 2006 137    40  18.4  18.5  18.6  18.6  18.5  18.2  17.8   0.0   0.0   0.0
 2006 138    41  18.9  18.9  19.0  18.9  18.7  18.3  17.9   0.0   0.0   0.0
 2006 139    42  18.1  18.3  18.4  18.5  18.4  18.1  17.7   0.0   0.0   0.0
 2006 140    43  17.2  17.5  17.8  18.0  18.0  17.9  17.6   0.0   0.0   0.0
 2006 141    44  15.6  16.1  16.8  17.2  17.4  17.5  17.4   0.0   0.0   0.0
 2006 142    45  14.1  14.8  15.7  16.4  16.8  17.1  17.1   0.0   0.0   0.0
 2006 143    46  12.9  13.8  14.9  15.8  16.4  16.8  16.9   0.0   0.0   0.0
 2006 144    47  13.2  14.0  15.1  16.0  16.5  16.9  17.0   0.0   0.0   0.0
 2006 145    48  13.7  14.4  15.4  16.2  16.7  17.0  17.1   0.0   0.0   0.0
 2006 146    49  14.7  15.3  16.1  16.7  17.1  17.3  17.2   0.0   0.0   0.0
 2006 147    50  15.5  16.0  16.7  17.1  17.4  17.5  17.4   0.0   0.0   0.0
 2006 148    51  15.9  16.3  16.9  17.3  17.5  17.6  17.4   0.0   0.0   0.0
 2006 149    52  15.0  15.5  16.3  16.8  17.2  17.3  17.3   0.0   0.0   0.0
 2006 150    53  14.5  15.2  16.0  16.6  17.0  17.2  17.2   0.0   0.0   0.0
 2006 151    54  14.0  14.7  15.6  16.3  16.8  17.1  17.1   0.0   0.0   0.0
 2006 152    55  13.5  14.2  15.2  16.0  16.6  17.0  17.1   0.0   0.0   0.0
 2006 153    56  13.2  14.0  15.0  15.9  16.5  16.9  17.0   0.0   0.0   0.0
 2006 154    57  14.5  15.1  15.9  16.5  17.0  17.2  17.2   0.0   0.0   0.0
 2006 155    58  14.7  15.2  16.0  16.6  17.0  17.3  17.3   0.0   0.0   0.0
 2006 156    59  14.6  15.2  16.0  16.6  17.0  17.2  17.3   0.0   0.0   0.0
[...]
 2008 221   124  14.1  14.4  14.9  15.5  16.0  16.5  16.9   0.0   0.0   0.0
 2008 222   125  13.8  14.1  14.6  15.3  15.8  16.4  16.8   0.0   0.0   0.0
 2008 223   126  14.5  14.8  15.2  15.7  16.1  16.6  16.9   0.0   0.0   0.0
 2008 224   127  15.7  15.7  15.9  16.2  16.5  16.9  17.1   0.0   0.0   0.0
 2008 225   128  15.3  15.4  15.7  16.0  16.4  16.8  17.0   0.0   0.0   0.0
 2008 226   129  15.5  15.6  15.8  16.1  16.4  16.8  17.0   0.0   0.0   0.0
 2008 227   130  16.0  16.0  16.1  16.3  16.6  16.9  17.1   0.0   0.0   0.0
 2008 228   131  15.7  15.7  15.9  16.2  16.5  16.8  17.1   0.0   0.0   0.0
 2008 229   132  15.7  15.7  15.9  16.2  16.5  16.8  17.0   0.0   0.0   0.0
 2008 230   133  16.0  16.0  16.1  16.3  16.6  16.9  17.1   0.0   0.0   0.0
 2008 231   134  15.9  15.9  16.0  16.2  16.5  16.8  17.0   0.0   0.0   0.0
 2008 232   135  15.9  15.9  16.0  16.2  16.5  16.8  17.0   0.0   0.0   0.0
 2008 233   136  15.8  15.8  15.9  16.1  16.4  16.8  17.0   0.0   0.0   0.0
 2008 234   137  14.8  14.9  15.2  15.6  16.0  16.5  16.8   0.0   0.0   0.0
 2008 235   138  14.7  14.8  15.1  15.5  15.9  16.5  16.8   0.0   0.0   0.0
 2008 236   139  15.2  15.2  15.4  15.8  16.1  16.6  16.9   0.0   0.0   0.0
 2008 237   140  15.1  15.1  15.4  15.7  16.1  16.5  16.9   0.0   0.0   0.0
 2008 238   141  15.8  15.7  15.8  16.0  16.3  16.7  16.9   0.0   0.0   0.0
 2008 239   142  16.0  15.9  16.0  16.1  16.4  16.7  17.0   0.0   0.0   0.0
 2008 240   143  17.1  16.9  16.7  16.7  16.8  17.0  17.1   0.0   0.0   0.0
 2008 241   144  17.1  16.9  16.7  16.7  16.8  17.0  17.1   0.0   0.0   0.0
 2008 242   145  17.4  17.1  16.9  16.8  16.9  17.0  17.2   0.0   0.0   0.0
 2008 243   146  17.1  16.9  16.7  16.6  16.7  16.9  17.1   0.0   0.0   0.0
 2008 244   147  17.5  17.2  16.9  16.8  16.9  17.0  17.1   0.0   0.0   0.0
 2008 245   148  17.5  17.2  16.9  16.8  16.9  17.0  17.1   0.0   0.0   0.0
 2008 246   149  18.7  18.3  17.8  17.5  17.3  17.3  17.3   0.0   0.0   0.0
 2008 247   150  18.2  17.8  17.4  17.2  17.1  17.2  17.2   0.0   0.0   0.0
 2008 248   151  17.4  17.1  16.8  16.7  16.8  16.9  17.1   0.0   0.0   0.0
 2008 249   152  15.4  15.4  15.4  15.7  16.0  16.4  16.8   0.0   0.0   0.0
 2008 250   153  13.4  13.6  14.1  14.6  15.2  15.9  16.4   0.0   0.0   0.0
 2008 251   154  12.1  12.5  13.1  13.9  14.7  15.5  16.2   0.0   0.0   0.0
 2008 252   155  12.2  12.6  13.2  14.0  14.7  15.5  16.2   0.0   0.0   0.0
 2008 253   156  12.8  13.1  13.6  14.3  14.9  15.7  16.3   0.0   0.0   0.0
 2008 254   157  14.4  14.5  14.7  15.1  15.5  16.1  16.5   0.0   0.0   0.0
 2008 255   158  15.7  15.6  15.6  15.8  16.0  16.4  16.7   0.0   0.0   0.0
 2008 256   159  15.8  15.7  15.7  15.8  16.0  16.4  16.7   0.0   0.0   0.0
 2008 257   160  15.9  15.8  15.7  15.8  16.1  16.4  16.7   0.0   0.0   0.0
 2008 258   161  15.8  15.6  15.6  15.7  16.0  16.4  16.7   0.0   0.0   0.0
 2008 259   162  15.5  15.4  15.4  15.6  15.8  16.3  16.6   0.0   0.0   0.0
 2008 260   163  15.1  15.0  15.1  15.4  15.7  16.1  16.6   0.0   0.0   0.0
 2008 261   164  15.3  15.2  15.3  15.5  15.8  16.2  16.6   0.0   0.0   0.0
 2008 262   165  15.9  15.8  15.7  15.8  16.0  16.3  16.7   0.0   0.0   0.0
 2008 263   166  16.8  16.5  16.3  16.2  16.3  16.5  16.8   0.0   0.0   0.0
 2008 264   167  17.3  16.9  16.6  16.5  16.5  16.7  16.9   0.0   0.0   0.0
 2008 265   168  17.5  17.1  16.7  16.5  16.5  16.7  16.9   0.0   0.0   0.0
 2008 266   169  17.8  17.4  17.0  16.7  16.7  16.8  16.9   0.0   0.0   0.0
 2008 267   170  17.8  17.4  16.9  16.7  16.7  16.8  16.9   0.0   0.0   0.0
 2008 268   171  17.8  17.4  16.9  16.7  16.6  16.7  16.9   0.0   0.0   0.0
 2008 269   172  18.0  17.5  17.0  16.8  16.7  16.8  16.9   0.0   0.0   0.0
 2008 270   173  19.0  18.4  17.7  17.3  17.1  17.0  17.1   0.0   0.0   0.0
 2008 271   174  19.5  18.8  18.1  17.5  17.2  17.1  17.1   0.0   0.0   0.0
 2008 272   175  20.2  19.5  18.6  17.9  17.5  17.3  17.2   0.0   0.0   0.0
 2008 273   176  20.2  19.5  18.5  17.9  17.5  17.3  17.2   0.0   0.0   0.0
 2008 274   177  20.5  19.7  18.7  18.0  17.6  17.3  17.2   0.0   0.0   0.0
 2008 275   178  20.7  19.9  18.9  18.1  17.7  17.4  17.3   0.0   0.0   0.0
 2008 276   179  20.5  19.7  18.7  18.0  17.6  17.3  17.2   0.0   0.0   0.0
 2008 277   180  20.7  19.9  18.8  18.1  17.6  17.3  17.2   0.0   0.0   0.0
 2008 278   181  20.3  19.6  18.6  17.9  17.5  17.2  17.2   0.0   0.0   0.0
 2008 279   182  19.8  19.1  18.2  17.6  17.3  17.1  17.1   0.0   0.0   0.0
 2008 280   183  19.8  19.1  18.2  17.6  17.2  17.1  17.1   0.0   0.0   0.0
 2008 281   184  19.0  18.4  17.7  17.2  16.9  16.9  16.9   0.0   0.0   0.0
 2008 282   185  17.8  17.3  16.8  16.5  16.4  16.5  16.7   0.0   0.0   0.0
 2008 283   186  18.4  17.8  17.2  16.8  16.6  16.7  16.8   0.0   0.0   0.0
 2008 284   187  19.2  18.5  17.7  17.2  17.0  16.9  16.9   0.0   0.0   0.0
 2008 285   188  19.8  19.1  18.2  17.5  17.2  17.0  17.0   0.0   0.0   0.0
 2008 286   189  20.7  19.9  18.8  18.0  17.5  17.2  17.1   0.0   0.0   0.0
 2008 287   190  21.3  20.4  19.2  18.3  17.8  17.4  17.2   0.0   0.0   0.0
 2008 288   191  21.1  20.2  19.1  18.2  17.7  17.3  17.2   0.0   0.0   0.0
 2008 289   192  20.2  19.4  18.4  17.7  17.3  17.1  17.0   0.0   0.0   0.0
 2008 290   193  19.3  18.6  17.8  17.2  16.9  16.8  16.9   0.0   0.0   0.0
 2008 291   194  19.0  18.4  17.6  17.1  16.8  16.7  16.8   0.0   0.0   0.0
 2008 292   195  19.4  18.7  17.9  17.3  17.0  16.8  16.9   0.0   0.0   0.0
 2008 293   196  20.1  19.3  18.3  17.6  17.2  17.0  17.0   0.0   0.0   0.0
 2008 294   197  22.1  21.1  19.7  18.7  18.0  17.5  17.3   0.0   0.0   0.0
 2008 295   198  23.7  22.5  20.8  19.5  18.6  17.9  17.5   0.0   0.0   0.0
 2008 296   199  24.2  22.9  21.1  19.7  18.8  18.0  17.6   0.0   0.0   0.0
 2008 297   200  24.5  23.2  21.4  19.9  18.9  18.1  17.6   0.0   0.0   0.0
 2008 298   201  24.9  23.5  21.6  20.1  19.1  18.2  17.7   0.0   0.0   0.0
 2008 299   202  23.3  22.1  20.6  19.3  18.5  17.8  17.4   0.0   0.0   0.0
 2008 300   203  21.6  20.6  19.4  18.4  17.8  17.3  17.1   0.0   0.0   0.0
 2008 301   204  21.3  20.4  19.2  18.2  17.7  17.2  17.1   0.0   0.0   0.0
 2008 302   205  21.2  20.2  19.1  18.1  17.6  17.2  17.1   0.0   0.0   0.0
 2008 303   206  20.9  20.0  18.9  18.0  17.5  17.1  17.0   0.0   0.0   0.0
 2008 304   207  21.1  20.2  19.0  18.1  17.5  17.1  17.0   0.0   0.0   0.0
 2008 305   208  21.7  20.7  19.5  18.4  17.8  17.3  17.1   0.0   0.0   0.0
 2008 306   209  22.0  21.0  19.7  18.6  17.9  17.4  17.2   0.0   0.0   0.0
 2008 307   210  22.5  21.4  20.0  18.8  18.1  17.5  17.2   0.0   0.0   0.0
 2008 308   211  23.0  21.9  20.4  19.1  18.3  17.6  17.3   0.0   0.0   0.0
 2008 309   212  24.4  23.1  21.3  19.8  18.8  18.0  17.5   0.0   0.0   0.0
 2008 310   213  26.0  24.4  22.4  20.6  19.4  18.3  17.7   0.0   0.0   0.0
 2008 311   214  27.5  25.8  23.4  21.4  20.0  18.7  18.0   0.0   0.0   0.0
 2008 312   215  28.1  26.3  23.9  21.7  20.3  18.9  18.1   0.0   0.0   0.0
 2008 313   216  29.0  27.1  24.5  22.2  20.6  19.1  18.2   0.0   0.0   0.0
 2008 314   217  29.0  27.1  24.5  22.2  20.6  19.1  18.2   0.0   0.0   0.0
 2008 315   218  28.4  26.5  24.1  21.9  20.4  18.9  18.1   0.0   0.0   0.0
 2008 316   219  27.8  26.0  23.6  21.6  20.1  18.8  18.0   0.0   0.0   0.0
 2008 317   220  27.9  26.1  23.7  21.6  20.1  18.8  18.0   0.0   0.0   0.0
 2008 318   221  27.2  25.5  23.2  21.2  19.9  18.6  17.9   0.0   0.0   0.0
 2008 319   222  26.9  25.3  23.0  21.1  19.8  18.5  17.8   0.0   0.0   0.0
 2008 320   223  26.4  24.8  22.7  20.8  19.6  18.4  17.8   0.0   0.0   0.0
 2008 321   224  25.4  23.9  22.0  20.3  19.2  18.1  17.6   0.0   0.0   0.0
 2008 322   225  25.0  23.6  21.7  20.1  19.0  18.0  17.5   0.0   0.0   0.0
 2008 323   226  24.6  23.2  21.4  19.9  18.8  17.9  17.4   0.0   0.0   0.0
 2008 324   227  24.0  22.7  21.0  19.6  18.6  17.8  17.3   0.0   0.0   0.0
 2008 325   228  23.7  22.5  20.9  19.5  18.5  17.7  17.3   0.0   0.0   0.0
 2008 326   229  24.4  23.1  21.3  19.8  18.8  17.9  17.4   0.0   0.0   0.0

*DSSAT Cropping System Model Ver. 4.0.2.000               Aug 12, 2016; 12:46:13

*RUN  10        : UYMZ                    
 MODEL          : MZCER040 - Maize           
 EXPERIMENT     : UYMZ0193 MZ    late to create DSS                             
 TREATMENT  1   : UYMZ                    

@YEAR DOY   DAS  TS1D  TS2D  TS3D  TS4D  TS5D  TS6D  TS7D  TS8D  TS9D  TS10
 2009 097     0  24.8  24.1  23.0  21.8  20.7  19.4  18.4   0.0   0.0   0.0
 2009 098     1  24.0  23.4  22.4  21.3  20.4  19.2  18.3   0.0   0.0   0.0
 2009 099     2  22.9  22.5  21.7  20.8  20.0  19.0  18.1   0.0   0.0   0.0
 2009 100     3  22.2  21.8  21.2  20.4  19.7  18.8  18.0   0.0   0.0   0.0
 2009 101     4  22.1  21.8  21.2  20.4  19.7  18.8  18.0   0.0   0.0   0.0
 2009 102     5  22.3  21.9  21.3  20.5  19.8  18.8  18.0   0.0   0.0   0.0
 2009 103     6  23.3  22.8  22.0  21.0  20.2  19.1  18.2   0.0   0.0   0.0
 2009 104     7  23.5  23.0  22.1  21.1  20.2  19.1  18.2   0.0   0.0   0.0
 2009 105     8  23.1  22.6  21.8  20.9  20.1  19.1  18.2   0.0   0.0   0.0
 2009 106     9  22.4  22.0  21.4  20.6  19.9  18.9  18.1   0.0   0.0   0.0
 2009 107    10  22.2  21.8  21.2  20.5  19.8  18.9  18.1   0.0   0.0   0.0
 2009 108    11  21.3  21.1  20.6  20.0  19.5  18.7  18.0   0.0   0.0   0.0
 2009 109    12  21.5  21.2  20.8  20.1  19.5  18.7  18.0   0.0   0.0   0.0
 2009 110    13  21.5  21.2  20.8  20.1  19.5  18.7  18.0   0.0   0.0   0.0
 2009 111    14  21.0  20.8  20.4  19.9  19.4  18.6  17.9   0.0   0.0   0.0
 2009 112    15  20.2  20.2  19.9  19.5  19.1  18.4  17.8   0.0   0.0   0.0
 2009 113    16  20.4  20.3  20.1  19.6  19.2  18.5  17.9   0.0   0.0   0.0
 2009 114    17  20.4  20.3  20.0  19.6  19.2  18.5  17.9   0.0   0.0   0.0
 2009 115    18  20.7  20.6  20.3  19.8  19.3  18.6  17.9   0.0   0.0   0.0
 2009 116    19  21.3  21.1  20.6  20.1  19.5  18.7  18.0   0.0   0.0   0.0
 2009 117    20  21.6  21.4  20.9  20.3  19.7  18.8  18.1   0.0   0.0   0.0
 2009 118    21  22.0  21.7  21.1  20.4  19.8  18.9  18.2   0.0   0.0   0.0
 2009 119    22  22.6  22.2  21.5  20.8  20.0  19.1  18.3   0.0   0.0   0.0
 2009 120    23  22.4  22.1  21.4  20.7  20.0  19.1  18.2   0.0   0.0   0.0
 2009 121    24  21.7  21.4  20.9  20.3  19.7  18.9  18.1   0.0   0.0   0.0

*DSSAT Cropping System Model Ver. 4.0.2.000               Aug 12, 2016; 12:46:13

*RUN  11        : UYMZ                    
 MODEL          : MZCER040 - Maize           
 EXPERIMENT     : UYMZ0193 MZ    late to create DSS                             
 TREATMENT  1   : UYMZ                    

@YEAR DOY   DAS  TS1D  TS2D  TS3D  TS4D  TS5D  TS6D  TS7D  TS8D  TS9D  TS10
 2010 097     0  20.3  20.2  19.9  19.4  18.9  18.3  17.7   0.0   0.0   0.0
 2010 098     1  20.2  20.1  19.8  19.4  18.9  18.3  17.7   0.0   0.0   0.0
 2010 099     2  20.4  20.3  20.0  19.5  19.0  18.3  17.7   0.0   0.0   0.0
 2010 100     3  20.6  20.4  20.1  19.6  19.1  18.4  17.8   0.0   0.0   0.0
 2010 101     4  21.3  21.1  20.6  20.0  19.4  18.6  17.9   0.0   0.0   0.0
 2010 102     5  22.3  21.9  21.3  20.5  19.8  18.8  18.0   0.0   0.0   0.0
 2010 103     6  23.6  23.1  22.2  21.2  20.3  19.2  18.3   0.0   0.0   0.0
 2010 104     7  24.5  23.8  22.8  21.6  20.6  19.4  18.4   0.0   0.0   0.0
 2010 105     8  23.8  23.2  22.3  21.3  20.4  19.2  18.3   0.0   0.0   0.0
 2010 106     9  23.1  22.6  21.8  20.9  20.1  19.1  18.2   0.0   0.0   0.0
 2010 107    10  22.1  21.7  21.1  20.4  19.7  18.8  18.1   0.0   0.0   0.0
 2010 108    11  22.3  22.0  21.3  20.6  19.9  18.9  18.1   0.0   0.0   0.0
 2010 109    12  22.4  22.0  21.4  20.6  19.9  18.9  18.1   0.0   0.0   0.0
 2010 110    13  23.4  22.9  22.1  21.2  20.3  19.3  18.4   0.0   0.0   0.0
 2010 111    14  23.8  23.2  22.3  21.4  20.5  19.4  18.4   0.0   0.0   0.0
 2010 112    15  23.5  22.9  22.1  21.2  20.4  19.3  18.4   0.0   0.0   0.0
 2010 113    16  20.9  20.8  20.4  19.9  19.4  18.7  18.0   0.0   0.0   0.0
 2010 114    17  19.1  19.2  19.2  19.0  18.7  18.2  17.7   0.0   0.0   0.0
 2010 115    18  18.4  18.6  18.7  18.6  18.4  18.0  17.6   0.0   0.0   0.0
 2010 116    19  17.8  18.0  18.2  18.3  18.2  17.9  17.5   0.0   0.0   0.0
 2010 117    20  17.5  17.7  18.0  18.1  18.1  17.8  17.5   0.0   0.0   0.0
 2010 118    21  18.3  18.4  18.6  18.5  18.4  18.0  17.6   0.0   0.0   0.0
 2010 119    22  18.8  18.9  19.0  18.9  18.6  18.2  17.7   0.0   0.0   0.0
 2010 120    23  19.1  19.2  19.2  19.0  18.7  18.3  17.8   0.0   0.0   0.0
 2010 121    24  19.9  19.8  19.7  19.4  19.0  18.5  17.9   0.0   0.0   0.0
 2010 122    25  20.8  20.6  20.3  19.9  19.4  18.7  18.0   0.0   0.0   0.0
 2010 123    26  20.4  20.3  20.0  19.7  19.2  18.6  18.0   0.0   0.0   0.0
 2010 124    27  20.6  20.4  20.2  19.8  19.3  18.7  18.0   0.0   0.0   0.0
 2010 125    28  20.5  20.4  20.1  19.7  19.3  18.6  18.0   0.0   0.0   0.0
 2010 126    29  19.7  19.7  19.6  19.3  19.0  18.5  17.9   0.0   0.0   0.0
 2010 127    30  18.3  18.5  18.6  18.6  18.5  18.1  17.7   0.0   0.0   0.0
 2010 128    31  18.0  18.2  18.4  18.4  18.3  18.0  17.6   0.0   0.0   0.0
 2010 129    32  17.1  17.4  17.8  18.0  18.0  17.8  17.5   0.0   0.0   0.0
 2010 130    33  16.0  16.5  17.1  17.4  17.6  17.5  17.4   0.0   0.0   0.0
 2010 131    34  15.6  16.1  16.8  17.2  17.4  17.4  17.3   0.0   0.0   0.0
 2010 132    35  16.2  16.6  17.2  17.5  17.6  17.6  17.4   0.0   0.0   0.0
 2010 133    36  16.6  16.9  17.4  17.7  17.8  17.7  17.5   0.0   0.0   0.0
 2010 134    37  17.1  17.4  17.8  18.0  18.0  17.8  17.6   0.0   0.0   0.0
 2010 135    38  18.6  18.7  18.8  18.7  18.6  18.2  17.8   0.0   0.0   0.0
 2010 136    39  18.3  18.5  18.6  18.6  18.5  18.2  17.8   0.0   0.0   0.0
 2010 137    40  17.9  18.1  18.3  18.4  18.3  18.0  17.7   0.0   0.0   0.0
 2010 138    41  17.9  18.1  18.3  18.4  18.3  18.0  17.7   0.0   0.0   0.0
 2010 139    42  18.0  18.2  18.4  18.4  18.4  18.1  17.7   0.0   0.0   0.0
 2010 140    43  17.5  17.8  18.1  18.2  18.2  18.0  17.7   0.0   0.0   0.0
 2010 141    44  18.6  18.7  18.7  18.7  18.6  18.2  17.8   0.0   0.0   0.0
 2010 142    45  19.6  19.6  19.5  19.3  19.0  18.5  18.0   0.0   0.0   0.0
 2010 143    46  20.4  20.3  20.0  19.7  19.3  18.7  18.1   0.0   0.0   0.0
 2010 144    47  20.3  20.2  19.9  19.6  19.2  18.7  18.1   0.0   0.0   0.0
 2010 145    48  19.8  19.8  19.6  19.4  19.1  18.6  18.0   0.0   0.0   0.0
 2010 146    49  18.7  18.8  18.8  18.8  18.6  18.3  17.9   0.0   0.0   0.0
 2010 147    50  17.9  18.1  18.3  18.4  18.3  18.1  17.8   0.0   0.0   0.0
 2010 148    51  17.3  17.6  17.9  18.1  18.1  17.9  17.7   0.0   0.0   0.0
 2010 149    52  16.8  17.1  17.5  17.8  17.9  17.8  17.6   0.0   0.0   0.0
 2010 150    53  16.3  16.7  17.1  17.5  17.7  17.7  17.5   0.0   0.0   0.0
 2010 151    54  15.9  16.3  16.9  17.3  17.5  17.6  17.5   0.0   0.0   0.0
 2010 152    55  15.2  15.7  16.4  16.9  17.2  17.4  17.3   0.0   0.0   0.0
 2010 153    56  14.5  15.1  15.9  16.6  17.0  17.2  17.2   0.0   0.0   0.0
 2010 154    57  14.6  15.2  15.9  16.6  17.0  17.2  17.2   0.0   0.0   0.0
 2010 155    58  15.1  15.6  16.3  16.9  17.2  17.4  17.3   0.0   0.0   0.0
 2010 156    59  15.8  16.2  16.8  17.2  17.4  17.5  17.4   0.0   0.0   0.0
 2010 157    60  16.5  16.8  17.2  17.6  17.7  17.7  17.6   0.0   0.0   0.0
 2010 158    61  16.5  16.8  17.2  17.5  17.7  17.7  17.6   0.0   0.0   0.0
 2010 159    62  15.8  16.2  16.7  17.2  17.4  17.5  17.5   0.0   0.0   0.0
 2010 160    63  14.3  14.9  15.8  16.4  16.9  17.2  17.2   0.0   0.0   0.0
 2010 161    64  13.8  14.5  15.4  16.2  16.7  17.0  17.1   0.0   0.0   0.0
 2010 162    65  13.1  13.8  14.9  15.8  16.4  16.9  17.0   0.0   0.0   0.0
 2010 163    66  13.1  13.8  14.9  15.8  16.4  16.9  17.0   0.0   0.0   0.0
 2010 164    67  13.8  14.5  15.4  16.1  16.6  17.0  17.1   0.0   0.0   0.0
 2010 165    68  15.0  15.5  16.1  16.7  17.1  17.3  17.3   0.0   0.0   0.0
 2010 166    69  15.8  16.2  16.7  17.1  17.4  17.5  17.5   0.0   0.0   0.0
 2010 167    70  15.6  16.0  16.6  17.0  17.3  17.5  17.4   0.0   0.0   0.0
 2010 168    71  15.2  15.6  16.3  16.8  17.1  17.4  17.4   0.0   0.0   0.0
 2010 169    72  14.6  15.1  15.9  16.5  16.9  17.2  17.3   0.0   0.0   0.0
 2010 170    73  14.1  14.7  15.5  16.2  16.7  17.1  17.2   0.0   0.0   0.0
 2010 171    74  13.2  13.9  14.9  15.7  16.3  16.8  17.0   0.0   0.0   0.0
 2010 172    75  12.7  13.5  14.5  15.5  16.1  16.7  17.0   0.0   0.0   0.0
 2010 173    76  12.7  13.4  14.5  15.4  16.1  16.7  17.0   0.0   0.0   0.0
 2010 174    77  13.2  13.9  14.8  15.7  16.3  16.8  17.0   0.0   0.0   0.0
 2010 175    78  13.4  14.1  15.0  15.8  16.4  16.9  17.1   0.0   0.0   0.0
 2010 176    79  13.2  13.9  14.8  15.7  16.3  16.8  17.0   0.0   0.0   0.0
 2010 177    80  13.3  14.0  14.9  15.7  16.3  16.8  17.1   0.0   0.0   0.0
 2010 178    81  13.6  14.2  15.1  15.9  16.4  16.9  17.1   0.0   0.0   0.0
 2010 179    82  13.1  13.7  14.7  15.6  16.2  16.8  17.0   0.0   0.0   0.0
 2010 180    83  12.8  13.5  14.5  15.4  16.1  16.7  17.0   0.0   0.0   0.0
 2010 181    84  13.4  14.0  14.9  15.7  16.3  16.8  17.1   0.0   0.0   0.0
 2010 182    85  14.3  14.8  15.5  16.2  16.7  17.0  17.2   0.0   0.0   0.0
 2010 183    86  15.2  15.6  16.1  16.6  17.0  17.3  17.3   0.0   0.0   0.0
 2010 184    87  16.5  16.7  17.0  17.3  17.5  17.6  17.5   0.0   0.0   0.0
 2010 185    88  18.1  18.1  18.1  18.1  18.1  18.0  17.8   0.0   0.0   0.0
 2010 186    89  19.8  19.5  19.2  19.0  18.7  18.4  18.1   0.0   0.0   0.0
 2010 187    90  20.4  20.1  19.7  19.3  19.0  18.6  18.1   0.0   0.0   0.0
 2010 188    91  19.8  19.6  19.2  19.0  18.7  18.4  18.0   0.0   0.0   0.0
 2010 189    92  18.8  18.6  18.5  18.4  18.3  18.1  17.9   0.0   0.0   0.0
 2010 190    93  17.4  17.4  17.6  17.7  17.8  17.8  17.7   0.0   0.0   0.0
 2010 191    94  15.2  15.5  16.0  16.5  16.9  17.2  17.3   0.0   0.0   0.0
 2010 192    95  14.2  14.6  15.3  16.0  16.5  16.9  17.1   0.0   0.0   0.0
 2010 193    96  13.4  13.9  14.8  15.6  16.1  16.7  17.0   0.0   0.0   0.0
 2010 194    97  12.3  12.9  14.0  14.9  15.7  16.4  16.8   0.0   0.0   0.0
 2010 195    98  11.0  11.9  13.1  14.3  15.2  16.1  16.6   0.0   0.0   0.0
 2010 196    99  10.2  11.1  12.5  13.8  14.8  15.9  16.5   0.0   0.0   0.0
 2010 197   100   9.1  10.2  11.8  13.3  14.4  15.6  16.3   0.0   0.0   0.0
 2010 198   101   8.0   9.3  11.0  12.7  14.0  15.3  16.1   0.0   0.0   0.0
 2010 199   102   8.5   9.7  11.3  12.9  14.2  15.4  16.2   0.0   0.0   0.0
 2010 200   103   9.2  10.2  11.8  13.3  14.4  15.5  16.3   0.0   0.0   0.0
 2010 201   104  10.1  11.0  12.4  13.7  14.7  15.7  16.4   0.0   0.0   0.0
 2010 202   105  10.2  11.1  12.4  13.7  14.7  15.7  16.4   0.0   0.0   0.0
 2010 203   106  10.8  11.6  12.8  14.0  14.9  15.9  16.5   0.0   0.0   0.0
 2010 204   107  10.7  11.6  12.8  14.0  14.9  15.9  16.5   0.0   0.0   0.0
 2010 205   108  10.5  11.3  12.6  13.9  14.8  15.8  16.4   0.0   0.0   0.0
 2010 206   109  10.4  11.3  12.6  13.8  14.8  15.8  16.4   0.0   0.0   0.0
 2010 207   110  11.3  12.0  13.1  14.2  15.1  16.0  16.5   0.0   0.0   0.0
 2010 208   111  12.3  12.9  13.8  14.8  15.5  16.2  16.7   0.0   0.0   0.0
 2010 209   112  13.1  13.6  14.3  15.1  15.8  16.4  16.8   0.0   0.0   0.0
 2010 210   113  13.9  14.3  14.9  15.6  16.1  16.6  16.9   0.0   0.0   0.0
 2010 211   114  14.8  15.1  15.5  16.0  16.4  16.8  17.1   0.0   0.0   0.0
 2010 212   115  14.8  15.1  15.5  16.0  16.4  16.8  17.1   0.0   0.0   0.0
 2010 213   116  14.0  14.3  14.9  15.5  16.0  16.6  16.9   0.0   0.0   0.0
 2010 214   117  12.8  13.3  14.1  14.9  15.6  16.3  16.7   0.0   0.0   0.0
 2010 215   118  11.5  12.2  13.2  14.2  15.1  15.9  16.5   0.0   0.0   0.0
 2010 216   119  10.0  10.9  12.2  13.5  14.5  15.6  16.3   0.0   0.0   0.0
 2010 217   120   9.7  10.6  11.9  13.2  14.3  15.5  16.2   0.0   0.0   0.0
 2010 218   121  10.1  10.9  12.2  13.5  14.5  15.6  16.3   0.0   0.0   0.0
