*PLANT N OUTPUT FILE

*DSSAT Cropping System Model Ver. 4.0.2.000               Aug 03, 2016; 12:24:35

*RUN   1        : UYMZ                    
 MODEL          : MZCER040 - Maize           
 EXPERIMENT     : UYMZ0109 MZ    late to create DSS                             
 TREATMENT  1   : UYMZ                    

@YEAR DOY   DAS   DAP   CNAD   GNAD   VNAD   GN%D   VN%D   NUPC   LNAD   SNAD   LN%D   SN%D   RN%D   SNN0C   SNN1C
 1990 194     3     0    0.0    0.0    0.0   0.00   0.00    0.0    0.0    0.0    0.0   0.00   0.00    0.00    0.00
 1990 195     4     1    0.0    0.0    0.0   0.00   0.00    0.0    0.0    0.0    0.0   0.00   0.00    0.00    0.00
 1990 196     5     2    0.0    0.0    0.0   0.00   0.00    0.0    0.0    0.0    0.0   0.00   0.00    0.00    0.00
 1990 197     6     3    0.0    0.0    0.0   0.00   0.00    0.0    0.0    0.0    0.0   0.00   0.00    0.00    0.00
 1990 198     7     4    0.0    0.0    0.0   0.00   0.00    0.0    0.0    0.0    0.0   0.00   0.00    0.00    0.00
 1990 199     8     5    0.0    0.0    0.0   0.00   0.00    0.0    0.0    0.0    0.0   0.00   0.00    0.00    0.00
 1990 200     9     6    0.0    0.0    0.0   0.00   0.00    0.0    0.0    0.0    0.0   0.00   0.00    0.00    0.00
 1990 201    10     7    0.0    0.0    0.0   0.00   0.00    0.0    0.0    0.0    0.0   0.00   0.00    0.00    0.00
 1990 202    11     8    0.0    0.0    0.0   0.00   0.00    0.0    0.0    0.0    0.0   0.00   0.00    0.00    0.00
 1990 203    12     9    0.0    0.0    0.0   0.00   0.00    0.0    0.0    0.0    0.0   0.00   0.00    0.00    0.00
 1990 204    13    10    0.0    0.0    0.0   0.00   0.00    0.0    0.0    0.0    0.0   0.00   0.00    0.00    0.00
 1990 205    14    11    0.0    0.0    0.0   0.00   0.00    0.0    0.0    0.0    0.0   0.00   0.00    0.00    0.00
 1990 206    15    12    0.0    0.0    0.0   0.00   0.00    0.0    0.0    0.0    0.0   0.00   0.00    0.00    0.00
 1990 207    16    13    0.0    0.0    0.0   0.00   0.00    0.0    0.0    0.0    0.0   0.00   0.00    0.00    0.00
 1990 208    17    14    0.0    0.0    0.0   0.00   0.00    0.0    0.0    0.0    0.0   0.00   0.00    0.00    0.00
 1990 209    18    15    0.0    0.0    0.0   0.00   0.00    0.0    0.0    0.0    0.0   0.00   0.00    0.00    0.00
 1990 210    19    16    0.0    0.0    0.0   0.00   0.00    0.0    0.0    0.0    0.0   0.00   0.00    0.00    0.00
 1990 211    20    17    0.0    0.0    0.0   0.00   0.00    0.0    0.0    0.0    0.0   0.00   0.00    0.00    0.00
 1990 212    21    18    0.0    0.0    0.0   0.00   0.00    0.0    0.0    0.0    0.0   0.00   0.00    0.00    0.00
 1990 213    22    19    0.0    0.0    0.0   0.00   0.00    0.0    0.0    0.0    0.0   0.00   0.00    0.00    0.00
 1990 214    23    20    0.0    0.0    0.0   0.00   0.00    0.0    0.0    0.0    0.0   0.00   0.00    0.00    0.00
 1990 215    24    21    0.0    0.0    0.0   0.00   0.00    0.0    0.0    0.0    0.0   0.00   0.00    0.00    0.00
 1990 216    25    22    0.0    0.0    0.0   0.00   0.00    0.0    0.0    0.0    0.0   0.00   0.00    0.00    0.00
 1990 217    26    23    0.0    0.0    0.0   0.00   0.00    0.0    0.0    0.0    0.0   0.00   0.00    0.00    0.00
 1990 218    27    24    1.2    0.0    1.2   0.00   4.40    0.0    0.6    0.6    4.4   4.40   0.00    0.00    0.00
 1990 219    28    25    1.3    0.0    1.3   0.00   4.52    0.2    0.6    0.6    4.5   4.52   1.10    0.00    0.00
 1990 220    29    26    1.3    0.0    1.3   0.00   4.49    0.2    0.6    0.6    4.5   4.49   1.11    0.00    0.00
 1990 221    30    27    1.3    0.0    1.3   0.00   4.47    0.2    0.6    0.6    4.5   4.47   1.14    0.00    0.00
 1990 222    31    28    1.2    0.0    1.2   0.00   4.45    0.2    0.6    0.6    4.4   4.45   1.16    0.00    0.00
 1990 223    32    29    1.2    0.0    1.2   0.00   4.41    0.2    0.6    0.6    4.4   4.41   1.17    0.00    0.00
 1990 224    33    30    1.2    0.0    1.2   0.00   4.38    0.3    0.6    0.6    4.4   4.38   1.18    0.00    0.00
 1990 225    34    31    1.2    0.0    1.2   0.00   4.33    0.3    0.6    0.6    4.3   4.33   1.23    0.00    0.01
 1990 226    35    32    1.2    0.0    1.2   0.00   3.50    0.3    0.7    0.5    3.5   3.50   1.21    0.00    0.01
 1990 227    36    33    1.5    0.0    1.5   0.00   3.96    0.6    0.9    0.6    4.0   3.96   1.17    0.00    0.01
 1990 228    37    34    1.6    0.0    1.6   0.00   3.88    0.8    1.1    0.5    3.9   3.88   1.29    0.00    0.01
 1990 229    38    35    1.8    0.0    1.8   0.00   3.80    1.1    1.3    0.5    3.8   3.80   1.29    0.00    0.01
 1990 230    39    36    2.0    0.0    2.0   0.00   3.86    1.5    1.5    0.5    3.9   3.86   1.27    0.00    0.01
 1990 231    40    37    2.2    0.0    2.2   0.00   3.75    1.7    1.7    0.5    3.8   3.75   1.20    0.00    0.02
 1990 232    41    38    2.5    0.0    2.5   0.00   3.73    2.2    1.9    0.5    3.7   3.73   1.26    0.00    0.02
 1990 233    42    39    2.8    0.0    2.8   0.00   3.83    2.6    2.2    0.5    3.8   3.83   1.23    0.00    0.03
 1990 234    43    40    3.0    0.0    3.0   0.00   3.86    3.0    2.5    0.5    3.9   3.86   1.21    0.00    0.03
 1990 235    44    41    3.3    0.0    3.3   0.00   4.03    3.6    2.7    0.6    4.0   4.03   1.32    0.00    0.04
 1990 236    45    42    3.4    0.0    3.4   0.00   3.98    3.7    2.8    0.6    4.0   3.98   1.19    0.00    0.05
 1990 237    46    43    3.5    0.0    3.5   0.00   3.63    3.9    3.0    0.5    3.6   3.63   1.15    0.00    0.05
 1990 238    47    44    4.0    0.0    4.0   0.00   3.54    4.6    3.5    0.5    3.5   3.54   1.18    0.00    0.06
 1990 239    48    45    4.7    0.0    4.7   0.00   3.92    5.2    4.1    0.5    3.9   3.92   1.13    0.00    0.07
 1990 240    49    46    4.9    0.0    4.9   0.00   4.11    6.0    4.3    0.6    4.1   4.11   1.46    0.00    0.08
 1990 241    50    47    4.9    0.0    4.9   0.00   4.05    6.0    4.3    0.6    4.0   4.05   1.37    0.00    0.08
 1990 242    51    48    4.9    0.0    4.9   0.00   3.79    6.0    4.3    0.5    3.8   3.79   1.31    0.00    0.08
 1990 243    52    49    4.9    0.0    4.9   0.00   3.76    6.0    4.3    0.5    3.8   3.76   1.31    0.00    0.08
 1990 244    53    50    5.3    0.0    5.3   0.00   4.09    6.1    4.7    0.6    4.1   4.09   1.14    0.00    0.09
 1990 245    54    51    5.3    0.0    5.3   0.00   4.08    6.2    4.7    0.6    4.1   4.08   1.15    0.00    0.10
 1990 246    55    52    5.3    0.0    5.3   0.00   3.93    6.2    4.8    0.6    3.9   3.93   1.15    0.00    0.10
 1990 247    56    53    5.5    0.0    5.5   0.00   3.89    6.2    5.0    0.5    3.9   3.89   1.07    0.00    0.11
 1990 248    57    54    5.7    0.0    5.7   0.00   4.00    6.4    5.2    0.6    4.0   4.00   1.07    0.00    0.12
 1990 249    58    55    5.8    0.0    5.8   0.00   3.96    6.5    5.2    0.6    4.0   3.96   1.07    0.00    0.13
 1990 250    59    56    5.9    0.0    5.9   0.00   3.94    6.6    5.3    0.6    3.9   3.94   1.07    0.00    0.14
 1990 251    60    57    6.0    0.0    6.0   0.00   3.95    6.7    5.5    0.6    3.9   3.95   1.07    0.00    0.15
 1990 252    61    58    6.1    0.0    6.1   0.00   3.55    6.8    5.6    0.5    3.6   3.55   1.08    0.00    0.16
 1990 253    62    59    6.8    0.0    6.8   0.00   3.54    7.6    6.3    0.5    3.5   3.54   1.09    0.00    0.17
 1990 254    63    60    7.6    0.0    7.6   0.00   3.63    8.4    7.1    0.5    3.6   3.63   1.08    0.00    0.18
 1990 255    64    61    8.3    0.0    8.3   0.00   3.62    9.2    7.8    0.5    3.6   3.62   1.12    0.00    0.19
 1990 256    65    62    9.0    0.0    9.0   0.00   3.71   10.0    8.5    0.5    3.7   3.71   1.14    0.00    0.20
 1990 257    66    63    9.5    0.0    9.5   0.00   3.62   10.5    9.0    0.5    3.6   3.62   1.14    0.00    0.21
 1990 258    67    64   10.4    0.0   10.4   0.00   3.48   11.4    9.9    0.5    3.5   3.48   1.12    0.00    0.22
 1990 259    68    65   11.7    0.0   11.7   0.00   3.62   12.9   11.1    0.5    3.6   3.62   1.13    0.00    0.23
 1990 260    69    66   12.6    0.0   12.6   0.00   3.66   13.7   12.0    0.5    3.7   3.66   1.10    0.00    0.25
 1990 261    70    67   13.3    0.0   13.3   0.00   3.90   14.8   12.8    0.5    3.9   3.90   1.15    0.00    0.26
 1990 262    71    68   13.3    0.0   13.3   0.00   3.64   14.9   12.8    0.5    3.6   3.64   1.14    0.00    0.27
 1990 263    72    69   14.0    0.0   14.0   0.00   3.61   15.5   13.5    0.5    3.6   3.61   1.08    0.00    0.28
 1990 264    73    70   15.5    0.0   15.5   0.00   3.78   17.0   14.9    0.5    3.8   3.78   1.08    0.00    0.30
 1990 265    74    71   16.1    0.0   16.1   0.00   3.68   18.6   15.6    0.5    3.7   3.68   1.23    0.00    0.31
 1990 266    75    72   16.4    0.0   16.4   0.00   3.66   19.4   15.9    0.5    3.7   3.66   1.32    0.00    0.33
 1990 267    76    73   16.7    0.0   16.7   0.00   3.65   20.3   16.2    0.5    3.6   3.65   1.34    0.00    0.35
 1990 268    77    74   17.1    0.0   17.1   0.00   3.63   21.1   16.6    0.5    3.6   3.63   1.29    0.00    0.38
 1990 269    78    75   17.9    0.0   17.9   0.00   3.56   22.1   17.4    0.5    3.6   3.56   1.20    0.00    0.40
 1990 270    79    76   19.5    0.0   19.5   0.00   3.53   24.1   19.0    0.5    3.5   3.53   1.16    0.00    0.43
 1990 271    80    77   20.9    0.0   20.9   0.00   3.50   25.0   20.4    0.5    3.5   3.50   1.07    0.00    0.46
 1990 272    81    78   22.5    0.0   22.5   0.00   3.47   27.7   21.9    0.6    3.5   3.47   1.17    0.00    0.48
 1990 273    82    79   24.3    0.0   24.3   0.00   3.44   30.0   23.6    0.7    3.4   3.44   1.17    0.00    0.52
 1990 274    83    80   27.4    0.0   27.4   0.00   3.41   33.7   26.5    0.8    3.4   3.41   1.16    0.00    0.55
 1990 275    84    81   29.9    0.0   29.9   0.00   3.37   37.4   28.9    1.0    3.4   3.37   1.20    0.00    0.59
 1990 276    85    82   33.0    0.0   33.0   0.00   3.34   41.1   31.7    1.3    3.3   3.34   1.16    0.00    0.63
 1990 277    86    83   37.3    0.0   37.3   0.00   3.29   45.4   35.4    1.9    3.3   3.29   1.11    0.00    0.68
 1990 278    87    84   39.6    0.0   39.6   0.00   3.26   47.4   37.4    2.3    3.3   3.26   1.07    0.00    0.72
 1990 279    88    85   43.0    0.0   43.0   0.00   3.23   50.8   40.1    2.9    3.2   3.23   1.07    0.00    0.77
 1990 280    89    86   45.5    0.0   45.5   0.00   3.19   53.3   42.1    3.4    3.2   3.19   1.07    0.00    0.81
 1990 281    90    87   48.0    0.0   48.0   0.00   3.16   56.6   44.0    4.0    3.2   3.16   1.11    0.00    0.86
 1990 282    91    88   50.4    0.0   50.4   0.00   3.14   61.4   45.8    4.6    3.1   3.14   1.21    0.00    0.91
 1990 283    92    89   53.2    0.0   53.2   0.00   3.12   65.1   47.8    5.4    3.1   3.12   1.18    0.00    0.97
 1990 284    93    90   56.6    0.0   56.6   0.00   3.09   67.4   50.2    6.4    3.1   3.09   1.07    0.00    1.03
 1990 285    94    91   58.9    0.0   58.9   0.00   3.07   73.1   51.8    7.1    3.1   3.07   1.21    0.00    1.09
 1990 286    95    92   61.1    0.0   61.1   0.00   3.05   77.2   53.2    7.9    3.0   3.05   1.20    0.00    1.17
 1990 287    96    93   64.3    0.0   64.3   0.00   3.02   81.6   55.3    9.0    3.0   3.02   1.17    0.00    1.25
 1990 288    97    94   66.6    0.0   66.6   0.00   3.00   85.9   56.7    9.9    3.0   3.00   1.17    0.00    1.35
 1990 289    98    95   68.5    0.0   68.5   0.00   2.99   89.9   57.9   10.6    3.0   2.99   1.17    0.00    1.45
 1990 290    99    96   71.1    0.0   71.1   0.00   2.97   92.1   59.5   11.7    3.0   2.97   1.11    0.00    1.56
 1990 291   100    97   75.4    0.0   75.4   0.00   2.94   98.2   61.9   13.5    2.9   2.94   1.13    0.00    1.67
 1990 292   101    98   79.9    0.0   79.9   0.00   2.90  102.5   64.3   15.6    2.9   2.90   1.10    0.00    1.79
 1990 293   102    99   84.4    0.0   84.4   0.00   2.86  107.3   66.6   17.9    2.9   2.86   1.09    0.00    1.91
 1990 294   103   100   87.4    0.0   87.4   0.00   2.78  111.2   67.6   19.8    2.8   2.78   1.08    0.00    2.03
 1990 295   104   101   89.8    0.0   89.8   0.00   2.68  114.5   68.1   21.7    2.7   2.68   1.06    0.00    2.15
 1990 296   105   102   92.1    0.0   92.1   0.00   2.58  117.2   68.4   23.8    2.6   2.58   1.05    0.00    2.28
 1990 297   106   103   94.0    0.0   94.0   0.00   2.50  119.6   68.5   25.6    2.5   2.50   1.03    0.00    2.41
 1990 298   107   104   95.8    0.0   95.8   0.00   2.41  121.5   68.4   27.4    2.4   2.41   1.03    0.00    2.54
 1990 299   108   105   97.4    0.0   97.4   0.00   2.21  123.2   68.0   29.4    2.2   2.21   1.03    0.00    2.68
 1990 300   109   106   98.9    0.0   98.9   0.00   2.08  124.7   67.2   31.7    2.1   2.08   1.03    0.00    2.81
 1990 301   110   107  100.1    0.0  100.1   0.00   2.05  126.0   67.1   33.0    2.0   2.05   1.03    0.00    2.94
 1990 302   111   108  101.2    0.0  101.2   0.00   1.98  127.1   66.6   34.6    2.0   1.98   1.03    0.00    3.08
 1990 303   112   109  102.1    0.0  102.1   0.00   1.88  128.1   65.1   37.0    1.9   1.88   1.01    0.00    3.21
 1990 304   113   110  102.9    0.0  102.9   0.00   1.81  129.1   64.2   38.7    1.8   1.81   0.97    0.00    3.35
 1990 305   114   111  103.6    0.0  103.6   0.00   1.75  129.8   63.2   40.4    1.8   1.75   0.94    0.00    3.48
 1990 306   115   112  105.1    0.0  105.1   0.00   1.70  131.4   62.7   42.3    1.7   1.70   0.93    0.00    3.62
 1990 307   116   113  106.7    0.0  106.7   0.00   1.68  133.2   62.6   44.1    1.7   1.68   0.94    0.00    3.75
 1990 308   117   114  108.1    0.0  108.1   0.00   1.66  134.8   62.6   45.5    1.7   1.66   0.91    0.00    3.89
 1990 309   118   115  109.1    0.0  109.1   0.00   1.65  136.0   62.7   46.4    1.7   1.65   0.86    0.00    4.03
 1990 310   119   116  110.2    0.0  110.2   0.00   1.63  137.3   62.6   47.6    1.6   1.63   0.84    0.00    4.17
 1990 311   120   117  111.3    0.0  111.3   0.00   1.61  138.6   62.3   49.0    1.6   1.61   0.82    0.00    4.31
 1990 312   121   118  112.2    0.0  112.2   0.00   1.59  139.6   62.2   50.0    1.6   1.59   0.83    0.00    4.45
 1990 313   122   119  113.1    0.0  113.1   0.00   1.56  140.7   61.8   51.3    1.6   1.56   0.82    0.00    4.59
 1990 314   123   120  113.9    0.0  113.9   0.00   1.53  141.7   61.4   52.6    1.5   1.53   0.81    0.00    4.73
 1990 315   124   121  114.7    0.0  114.7   0.00   1.49  142.6   60.8   53.9    1.5   1.49   0.79    0.00    4.87
 1990 316   125   122  115.5    0.0  115.5   0.00   1.47  143.5   60.4   55.1    1.5   1.47   0.80    0.00    5.01
 1990 317   126   123  116.2    0.0  116.2   0.00   1.42  144.4   59.6   56.6    1.4   1.42   0.79    0.00    5.16
 1990 318   127   124  117.0    0.0  117.0   0.00   1.55  145.3   64.3   52.7    1.5   1.55   0.79    0.00    5.30
 1990 319   128   125  117.8    0.0  117.8   0.00   1.56  146.2   64.1   53.7    1.6   1.56   0.80    0.00    5.45
 1990 320   129   126  118.4    0.0  118.4   0.00   1.57  147.0   63.7   54.7    1.6   1.57   0.79    0.00    5.59
 1990 321   130   127  118.9    0.0  118.9   0.00   1.57  147.7   63.2   55.8    1.6   1.57   0.76    0.00    5.74
 1990 322   131   128  119.7    0.0  119.7   0.00   1.58  148.8   62.5   57.2    1.6   1.58   0.75    0.00    5.89
 1990 323   132   129  120.6    0.0  120.6   0.00   1.58  150.0   61.7   59.0    1.6   1.58   0.74    0.00    6.04
 1990 324   133   130  121.5    0.0  121.5   0.00   1.59  151.3   61.2   60.4    1.6   1.59   0.76    0.00    6.19
 1990 325   134   131  122.3    0.0  122.3   0.00   1.60  152.4   60.3   61.9    1.6   1.60   0.74    0.00    6.34
 1990 326   135   132  134.1    0.0  134.1   0.00   1.75  171.1   64.9   69.2    1.8   1.75   0.88    0.00    6.49
 1990 327   136   133  137.9    0.0  137.9   0.00   1.80  178.1   65.5   72.5    1.8   1.80   0.93    0.00    6.68
 1990 328   137   134  139.4    0.0  139.4   0.00   1.82  181.0   64.7   74.7    1.8   1.82   0.94    0.00    6.88
 1990 329   138   135  140.4    4.6  135.8   1.70   1.77  182.7   63.0   72.7    1.8   1.77   0.96    0.00    7.09
 1990 330   139   136  141.1    8.4  132.7   1.69   1.73  183.8   61.6   71.1    1.7   1.73   0.96    0.00    7.31
 1990 331   140   137  141.7   10.4  131.3   1.68   1.71  184.8   61.0   70.4    1.7   1.71   0.94    0.00    7.52
 1990 332   141   138  142.3   12.8  129.5   1.68   1.69  185.7   60.1   69.4    1.7   1.69   0.93    0.00    7.74
 1990 333   142   139  142.8   16.3  126.5   1.67   1.65  186.6   58.7   67.8    1.6   1.65   0.92    0.00    7.96
 1990 334   143   140  143.4   20.2  123.2   1.67   1.61  187.5   57.2   66.0    1.6   1.61   0.93    0.00    8.18
 1990 335   144   141  143.9   23.9  120.0   1.66   1.56  188.3   55.7   64.3    1.6   1.56   0.93    0.00    8.40
 1990 336   145   142  144.4   26.9  117.5   1.65   1.54  189.1   54.7   62.8    1.5   1.54   0.94    0.00    8.63
 1990 337   146   143  145.0   29.4  115.6   1.65   1.51  189.9   53.7   62.0    1.5   1.51   0.93    0.00    8.85
 1990 338   147   144  145.5   32.5  113.0   1.64   1.47  190.7   52.4   60.5    1.5   1.47   0.92    0.00    9.08
 1990 339   148   145  146.1   36.9  109.2   1.63   1.42  191.5   50.7   58.5    1.4   1.42   0.93    0.00    9.31
 1990 340   149   146  146.7   40.7  105.9   1.63   1.38  192.3   49.2   56.7    1.4   1.38   0.94    0.00    9.54
 1990 341   150   147  147.1   44.2  102.9   1.62   1.34  193.0   47.8   55.1    1.3   1.34   0.93    0.00    9.77
 1990 342   151   148  147.6   47.0  100.6   1.61   1.31  193.7   46.7   53.9    1.3   1.31   0.92    0.00   10.00
 1990 343   152   149  148.1   49.1   99.0   1.60   1.29  194.5   46.0   53.0    1.3   1.29   0.93    0.00   10.23
 1990 344   153   150  148.4   51.6   96.9   1.59   1.26  194.8   45.0   51.9    1.3   1.26   0.94    0.00   10.46
 1990 345   154   151  148.8   54.6   94.1   1.58   1.23  195.3   43.7   50.4    1.2   1.23   0.93    0.00   10.69
 1990 346   155   152  149.2   56.5   92.7   1.58   1.21  195.9   43.0   49.7    1.2   1.21   0.93    0.00   10.93
 1990 347   156   153  149.7   59.3   90.4   1.57   1.18  196.5   42.0   48.4    1.2   1.18   0.94    0.00   11.16
 1990 348   157   154  150.2   61.1   89.1   1.56   1.16  197.3   41.4   47.7    1.2   1.16   0.93    0.00   11.40
 1990 349   158   155  150.8   63.8   87.0   1.55   1.13  198.1   40.4   46.6    1.1   1.13   0.92    0.00   11.63
 1990 350   159   156  151.4   67.3   84.1   1.54   1.10  198.9   39.0   45.0    1.1   1.10   0.92    0.00   11.87
 1990 351   160   157  152.0   71.0   81.1   1.53   1.06  199.7   37.8   43.3    1.1   1.06   0.92    0.00   12.11
 1990 352   161   158  152.6   74.2   78.4   1.52   1.02  200.5   36.4   42.0    1.0   1.02   0.92    0.00   12.35
 1990 353   162   159  153.1   76.9   76.1   1.51   0.99  201.1   35.3   40.8    1.0   0.99   0.92    0.00   12.59
 1990 354   163   160  153.7   79.8   74.0   1.49   0.96  202.0   34.3   39.6    1.0   0.96   0.91    0.00   12.83
 1990 355   164   161  154.4   83.1   71.4   1.48   0.93  202.9   33.1   38.2    0.9   0.93   0.91    0.00   13.07
 1990 356   165   162  155.0   86.3   68.8   1.47   0.91  203.7   32.4   36.4    0.9   0.91   0.92    0.00   13.31
 1990 357   166   163  155.5   89.4   66.1   1.45   0.87  204.3   31.1   35.0    0.9   0.87   0.93    0.00   13.55
 1990 358   167   164  155.9   91.8   64.1   1.44   0.85  204.8   30.2   33.9    0.8   0.85   0.93    0.00   13.79
 1990 359   168   165  156.4   94.0   62.4   1.43   0.81  205.5   29.0   33.4    0.8   0.81   0.93    0.00   14.04
 1990 360   169   166  157.3   96.9   60.4   1.42   0.79  206.6   28.0   32.4    0.8   0.79   0.93    0.00   14.28
 1990 361   170   167  158.0   99.7   58.3   1.40   0.76  207.5   27.1   31.3    0.8   0.76   0.93    0.00   14.53
 1990 362   171   168  158.9  101.2   57.7   1.39   0.75  208.6   26.8   30.9    0.8   0.75   0.92    0.00   14.77
 1990 363   172   169  159.6  102.5   57.1   1.38   0.74  209.5   26.5   30.6    0.7   0.74   0.92    0.00   15.02
 1990 364   173   170  160.3  104.5   55.8   1.37   0.73  210.4   25.9   29.9    0.7   0.73   0.92    0.00   15.27
 1990 365   174   171  161.0  107.0   54.0   1.36   0.70  211.3   25.0   28.9    0.7   0.70   0.92    0.00   15.52
 1991 001   175   172  161.6  109.5   52.1   1.35   0.68  212.1   24.2   27.9    0.7   0.68   0.93    0.00   15.77
 1991 002   176   173  162.3  112.0   50.4   1.33   0.66  213.0   23.4   27.0    0.7   0.66   0.94    0.00   16.02
 1991 003   177   174  163.0  114.3   48.7   1.32   0.64  213.8   22.6   26.1    0.6   0.64   0.94    0.00   16.27
 1991 004   178   175  163.7  116.2   47.5   1.30   0.62  214.7   22.0   25.4    0.6   0.62   0.95    0.00   16.52
 1991 005   179   176  164.5  118.1   46.3   1.29   0.60  215.6   21.5   24.8    0.6   0.60   0.95    0.00   16.78
 1991 006   180   177  165.2  120.1   45.1   1.28   0.59  216.4   20.9   24.1    0.6   0.59   0.96    0.00   17.03
 1991 007   181   178  165.8  122.1   43.7   1.26   0.57  217.2   20.4   23.4    0.6   0.57   0.96    0.00   17.28
 1991 008   182   179  165.8  122.1   43.7   1.26   0.57  218.0   20.4   23.4    0.6   0.57   0.96    0.00   17.28
 1991 009   183   180  165.8  122.1   43.7   1.26   0.57  218.8   20.4   23.4    0.6   0.57   0.96    0.00   17.28
 1991 010   184   181  165.8  122.1   43.7   1.26   0.57  219.6   20.4   23.4    0.6   0.57   0.96    0.00   17.28

*DSSAT Cropping System Model Ver. 4.0.2.000               Aug 03, 2016; 12:24:35

*RUN   2        : UYMZ                    
 MODEL          : MZCER040 - Maize           
 EXPERIMENT     : UYMZ0109 MZ    late to create DSS                             
 TREATMENT  1   : UYMZ                    

@YEAR DOY   DAS   DAP   CNAD   GNAD   VNAD   GN%D   VN%D   NUPC   LNAD   SNAD   LN%D   SN%D   RN%D   SNN0C   SNN1C
 1991 194     3     0    0.0    0.0    0.0   0.00   0.00    0.0    0.0    0.0    0.0   0.00   0.00    0.00    0.00
 1991 195     4     1    0.0    0.0    0.0   0.00   0.00    0.0    0.0    0.0    0.0   0.00   0.00    0.00    0.00
 1991 196     5     2    0.0    0.0    0.0   0.00   0.00    0.0    0.0    0.0    0.0   0.00   0.00    0.00    0.00
 1991 197     6     3    0.0    0.0    0.0   0.00   0.00    0.0    0.0    0.0    0.0   0.00   0.00    0.00    0.00
 1991 198     7     4    0.0    0.0    0.0   0.00   0.00    0.0    0.0    0.0    0.0   0.00   0.00    0.00    0.00
 1991 199     8     5    0.0    0.0    0.0   0.00   0.00    0.0    0.0    0.0    0.0   0.00   0.00    0.00    0.00
 1991 200     9     6    0.0    0.0    0.0   0.00   0.00    0.0    0.0    0.0    0.0   0.00   0.00    0.00    0.00
 1991 201    10     7    0.0    0.0    0.0   0.00   0.00    0.0    0.0    0.0    0.0   0.00   0.00    0.00    0.00
 1991 202    11     8    0.0    0.0    0.0   0.00   0.00    0.0    0.0    0.0    0.0   0.00   0.00    0.00    0.00
 1991 203    12     9    0.0    0.0    0.0   0.00   0.00    0.0    0.0    0.0    0.0   0.00   0.00    0.00    0.00
 1991 204    13    10    0.0    0.0    0.0   0.00   0.00    0.0    0.0    0.0    0.0   0.00   0.00    0.00    0.00
 1991 205    14    11    0.0    0.0    0.0   0.00   0.00    0.0    0.0    0.0    0.0   0.00   0.00    0.00    0.00
 1991 206    15    12    0.0    0.0    0.0   0.00   0.00    0.0    0.0    0.0    0.0   0.00   0.00    0.00    0.00
 1991 207    16    13    0.0    0.0    0.0   0.00   0.00    0.0    0.0    0.0    0.0   0.00   0.00    0.00    0.00
 1991 208    17    14    0.0    0.0    0.0   0.00   0.00    0.0    0.0    0.0    0.0   0.00   0.00    0.00    0.00
 1991 209    18    15    1.2    0.0    1.2   0.00   4.40    0.0    0.6    0.6    4.4   4.40   0.00    0.00    0.00
 1991 210    19    16    1.3    0.0    1.3   0.00   4.51    0.2    0.6    0.6    4.5   4.51   1.09    0.00    0.00
 1991 211    20    17    1.3    0.0    1.3   0.00   4.51    0.2    0.6    0.6    4.5   4.51   1.08    0.00    0.00
 1991 212    21    18    1.3    0.0    1.3   0.00   4.49    0.2    0.6    0.6    4.5   4.49   1.14    0.00    0.00
 1991 213    22    19    1.3    0.0    1.3   0.00   4.49    0.2    0.6    0.6    4.5   4.49   1.15    0.00    0.00
 1991 214    23    20    1.3    0.0    1.3   0.00   4.49    0.2    0.6    0.6    4.5   4.49   1.17    0.00    0.00
 1991 215    24    21    1.3    0.0    1.3   0.00   4.49    0.2    0.6    0.6    4.5   4.49   1.17    0.00    0.00
 1991 216    25    22    1.3    0.0    1.3   0.00   4.49    0.2    0.6    0.6    4.5   4.49   1.18    0.00    0.00
 1991 217    26    23    1.3    0.0    1.3   0.00   4.49    0.2    0.6    0.6    4.5   4.49   1.17    0.00    0.00
 1991 218    27    24    1.3    0.0    1.3   0.00   4.49    0.2    0.6    0.6    4.5   4.49   1.18    0.00    0.00
 1991 219    28    25    1.3    0.0    1.3   0.00   4.49    0.2    0.6    0.6    4.5   4.49   1.18    0.00    0.00
 1991 220    29    26    1.3    0.0    1.3   0.00   4.49    0.2    0.6    0.6    4.5   4.49   1.18    0.00    0.00
 1991 221    30    27    1.3    0.0    1.3   0.00   4.49    0.2    0.6    0.6    4.5   4.49   1.17    0.00    0.00
 1991 222    31    28    1.3    0.0    1.3   0.00   4.49    0.2    0.6    0.6    4.5   4.49   1.17    0.00    0.00
 1991 223    32    29    1.3    0.0    1.3   0.00   4.49    0.2    0.6    0.6    4.5   4.49   1.17    0.00    0.00
 1991 224    33    30    1.3    0.0    1.3   0.00   4.49    0.2    0.6    0.6    4.5   4.49   1.14    0.00    0.00
 1991 225    34    31    1.3    0.0    1.3   0.00   4.49    0.2    0.6    0.6    4.5   4.49   1.12    0.00    0.00
 1991 226    35    32    1.3    0.0    1.3   0.00   4.49    0.2    0.6    0.6    4.5   4.49   1.06    0.00    0.00
 1991 227    36    33    1.3    0.0    1.3   0.00   4.49    0.2    0.6    0.6    4.5   4.49   1.01    0.00    0.00
 1991 228    37    34    1.2    0.0    1.2   0.00   4.14    0.2    0.6    0.6    4.1   4.14   1.18    0.00    0.00
 1991 229    38    35    1.3    0.0    1.3   0.00   3.55    0.3    0.8    0.5    3.6   3.55   1.21    0.00    0.00
 1991 230    39    36    1.5    0.0    1.5   0.00   3.56    0.5    1.0    0.5    3.6   3.56   1.12    0.00    0.00
 1991 231    40    37    1.8    0.0    1.8   0.00   3.55    0.9    1.3    0.5    3.6   3.55   1.23    0.00    0.01
 1991 232    41    38    2.2    0.0    2.2   0.00   3.55    1.3    1.7    0.5    3.5   3.55   1.16    0.00    0.01
 1991 233    42    39    2.5    0.0    2.5   0.00   3.54    1.8    2.1    0.5    3.5   3.54   1.31    0.00    0.01
 1991 234    43    40    3.0    0.0    3.0   0.00   3.46    2.4    2.5    0.5    3.5   3.46   1.27    0.00    0.01
 1991 235    44    41    3.6    0.0    3.6   0.00   3.59    3.2    3.1    0.5    3.6   3.59   1.35    0.00    0.02
 1991 236    45    42    4.1    0.0    4.1   0.00   3.71    4.0    3.6    0.5    3.7   3.71   1.32    0.00    0.02
 1991 237    46    43    4.5    0.0    4.5   0.00   3.57    4.6    4.0    0.5    3.6   3.57   1.24    0.00    0.03
 1991 238    47    44    5.2    0.0    5.2   0.00   3.77    5.1    4.7    0.5    3.8   3.77   1.12    0.00    0.03
 1991 239    48    45    5.6    0.0    5.6   0.00   3.82    5.6    5.1    0.5    3.8   3.82   1.13    0.00    0.04
 1991 240    49    46    5.9    0.0    5.9   0.00   3.63    6.2    5.4    0.5    3.6   3.63   1.20    0.00    0.04
 1991 241    50    47    6.6    0.0    6.6   0.00   3.54    7.0    6.1    0.5    3.5   3.54   1.18    0.00    0.05
 1991 242    51    48    7.4    0.0    7.4   0.00   3.47    7.8    7.0    0.5    3.5   3.47   1.10    0.00    0.06
 1991 243    52    49    8.5    0.0    8.5   0.00   3.73    9.0    8.0    0.5    3.7   3.73   1.13    0.00    0.07
 1991 244    53    50    9.1    0.0    9.1   0.00   3.79    9.9    8.5    0.5    3.8   3.79   1.24    0.00    0.08
 1991 245    54    51    9.5    0.0    9.5   0.00   3.69   10.2    9.0    0.5    3.7   3.69   1.12    0.00    0.09
 1991 246    55    52   10.1    0.0   10.1   0.00   3.51   11.1    9.6    0.5    3.5   3.51   1.17    0.00    0.10
 1991 247    56    53   11.2    0.0   11.2   0.00   3.43   13.0   10.8    0.5    3.4   3.43   1.27    0.00    0.11
 1991 248    57    54   12.7    0.0   12.7   0.00   3.59   15.2   12.2    0.5    3.6   3.59   1.28    0.00    0.12
 1991 249    58    55   13.8    0.0   13.8   0.00   3.55   15.8   13.3    0.5    3.5   3.55   1.09    0.00    0.14
 1991 250    59    56   14.8    0.0   14.8   0.00   3.54   17.0   14.3    0.5    3.5   3.54   1.10    0.00    0.16
 1991 251    60    57   16.9    0.0   16.9   0.00   3.81   19.3   16.4    0.5    3.8   3.81   1.12    0.00    0.17
 1991 252    61    58   17.5    0.0   17.5   0.00   3.68   21.0   17.0    0.5    3.7   3.68   1.25    0.00    0.19
 1991 253    62    59   18.5    0.0   18.5   0.00   3.58   22.8   18.0    0.5    3.6   3.58   1.24    0.00    0.22
 1991 254    63    60   20.3    0.0   20.3   0.00   3.54   25.7   19.8    0.5    3.5   3.54   1.24    0.00    0.24
 1991 255    64    61   22.6    0.0   22.6   0.00   3.50   28.7   22.1    0.6    3.5   3.50   1.21    0.00    0.28
 1991 256    65    62   25.7    0.0   25.7   0.00   3.45   31.9   25.0    0.7    3.5   3.45   1.14    0.00    0.31
 1991 257    66    63   26.9    0.0   26.9   0.00   3.43   33.0   26.2    0.7    3.4   3.43   1.10    0.00    0.35
 1991 258    67    64   28.1    0.0   28.1   0.00   3.50   34.4   27.3    0.8    3.5   3.50   1.12    0.00    0.39
 1991 259    68    65   30.0    0.0   30.0   0.00   3.39   36.8   29.1    0.9    3.4   3.39   1.12    0.00    0.42
 1991 260    69    66   32.4    0.0   32.4   0.00   3.36   38.8   31.3    1.1    3.4   3.36   1.07    0.00    0.46
 1991 261    70    67   33.5    0.0   33.5   0.00   3.24   41.1   32.2    1.3    3.2   3.24   1.09    0.00    0.50
 1991 262    71    68   34.8    0.0   34.8   0.00   3.23   43.8   33.3    1.4    3.2   3.23   1.10    0.00    0.54
 1991 263    72    69   36.4    0.0   36.4   0.00   3.18   46.0   34.7    1.7    3.2   3.18   1.09    0.00    0.60
 1991 264    73    70   38.1    0.0   38.1   0.00   3.03   47.8   36.0    2.1    3.0   3.03   1.08    0.00    0.65
 1991 265    74    71   39.1    0.0   39.1   0.00   2.94   49.3   36.7    2.4    2.9   2.94   1.01    0.00    0.70
 1991 266    75    72   39.8    0.0   39.8   0.00   2.92   50.5   37.3    2.5    2.9   2.92   0.96    0.00    0.76
 1991 267    76    73   42.4    0.0   42.4   0.00   3.01   55.1   39.5    2.8    3.0   3.01   1.02    0.00    0.82
 1991 268    77    74   45.7    0.0   45.7   0.00   3.08   60.5   42.3    3.3    3.1   3.08   1.08    0.00    0.89
 1991 269    78    75   48.5    0.0   48.5   0.00   3.10   65.2   44.6    3.9    3.1   3.10   1.11    0.00    0.97
 1991 270    79    76   51.8    0.0   51.8   0.00   3.03   69.0   47.0    4.8    3.0   3.03   1.10    0.00    1.06
 1991 271    80    77   53.7    0.0   53.7   0.00   3.05   72.3   48.4    5.3    3.0   3.05   1.10    0.00    1.15
 1991 272    81    78   55.2    0.0   55.2   0.00   3.04   75.1   49.5    5.7    3.0   3.04   1.09    0.00    1.25
 1991 273    82    79   56.7    0.0   56.7   0.00   2.98   77.5   50.4    6.3    3.0   2.98   1.07    0.00    1.35
 1991 274    83    80   57.8    0.0   57.8   0.00   2.94   79.4   51.1    6.7    2.9   2.94   1.05    0.00    1.46
 1991 275    84    81   58.7    0.0   58.7   0.00   2.91   81.1   51.6    7.1    2.9   2.91   1.02    0.00    1.58
 1991 276    85    82   59.5    0.0   59.5   0.00   2.86   82.6   52.0    7.5    2.9   2.86   0.99    0.00    1.69
 1991 277    86    83   60.2    0.0   60.2   0.00   2.78   83.8   52.2    8.1    2.8   2.78   0.97    0.00    1.81
 1991 278    87    84   61.0    0.0   61.0   0.00   2.75   84.9   52.6    8.5    2.8   2.75   0.98    0.00    1.94
 1991 279    88    85   61.7    0.0   61.7   0.00   2.75   85.9   53.0    8.7    2.7   2.75   0.98    0.00    2.06
 1991 280    89    86   62.2    0.0   62.2   0.00   2.73   86.8   53.3    8.9    2.7   2.73   0.97    0.00    2.19
 1991 281    90    87   62.6    0.0   62.6   0.00   2.70   87.4   53.3    9.2    2.7   2.70   0.94    0.00    2.32
 1991 282    91    88   63.0    0.0   63.0   0.00   2.62   88.1   53.2    9.8    2.6   2.62   0.91    0.00    2.45
 1991 283    92    89   63.4    0.0   63.4   0.00   2.52   88.8   53.0   10.4    2.5   2.52   0.88    0.00    2.58
 1991 284    93    90   63.7    0.0   63.7   0.00   2.41   89.3   52.5   11.2    2.4   2.41   0.85    0.00    2.71
 1991 285    94    91   64.1    0.0   64.1   0.00   2.26   89.9   51.8   12.3    2.3   2.26   0.83    0.00    2.84
 1991 286    95    92   64.6    0.0   64.6   0.00   2.06   90.5   50.5   14.0    2.1   2.06   0.83    0.00    2.97
 1991 287    96    93   65.1    0.0   65.1   0.00   1.96   91.2   49.9   15.1    2.0   1.96   0.83    0.00    3.11
 1991 288    97    94   65.6    0.0   65.6   0.00   1.90   91.8   49.7   15.9    1.9   1.90   0.84    0.00    3.24
 1991 289    98    95   65.8    0.0   65.8   0.00   1.85   92.1   49.3   16.5    1.8   1.85   0.84    0.00    3.38
 1991 290    99    96   66.1    0.0   66.1   0.00   1.82   92.4   49.1   16.9    1.8   1.82   0.83    0.00    3.52
 1991 291   100    97   66.5    0.0   66.5   0.00   1.77   93.0   48.8   17.6    1.8   1.77   0.80    0.00    3.65
 1991 292   101    98   67.0    0.0   67.0   0.00   1.63   93.6   48.8   18.2    1.6   1.63   0.79    0.00    3.79
 1991 293   102    99   67.5    0.0   67.5   0.00   1.54   94.2   48.2   19.3    1.5   1.54   0.78    0.00    3.93
 1991 294   103   100   68.0    0.0   68.0   0.00   1.45   94.9   47.4   20.6    1.5   1.45   0.77    0.00    4.06
 1991 295   104   101   68.6    0.0   68.6   0.00   1.38   95.5   46.4   22.2    1.4   1.38   0.77    0.00    4.20
 1991 296   105   102   69.2    0.0   69.2   0.00   1.36   96.3   46.3   22.9    1.4   1.36   0.78    0.00    4.34
 1991 297   106   103   69.7    0.0   69.7   0.00   1.35   96.9   46.3   23.5    1.3   1.35   0.78    0.00    4.48
 1991 298   107   104   70.4    0.0   70.4   0.00   1.33   97.6   46.2   24.2    1.3   1.33   0.78    0.00    4.62
 1991 299   108   105   70.9    0.0   70.9   0.00   1.29   98.3   45.7   25.2    1.3   1.29   0.77    0.00    4.76
 1991 300   109   106   72.2    0.0   72.2   0.00   1.28   99.8   45.9   26.3    1.3   1.28   0.78    0.00    4.90
 1991 301   110   107   73.5    0.0   73.5   0.00   1.28  101.3   46.2   27.3    1.3   1.28   0.78    0.00    5.04
 1991 302   111   108   74.8    0.0   74.8   0.00   1.28  102.7   46.5   28.3    1.3   1.28   0.79    0.00    5.19
 1991 303   112   109   75.9    0.0   75.9   0.00   1.27  104.1   46.7   29.2    1.3   1.27   0.80    0.00    5.33
 1991 304   113   110   76.9    0.0   76.9   0.00   1.26  105.2   46.8   30.1    1.3   1.26   0.80    0.00    5.47
 1991 305   114   111   77.9    0.0   77.9   0.00   1.25  106.3   46.8   31.1    1.3   1.25   0.79    0.00    5.62
 1991 306   115   112   78.9    0.0   78.9   0.00   1.24  107.5   46.9   32.0    1.2   1.24   0.77    0.00    5.76
 1991 307   116   113   79.8    0.0   79.8   0.00   1.23  108.6   46.9   32.9    1.2   1.23   0.76    0.00    5.91
 1991 308   117   114   80.6    0.0   80.6   0.00   1.22  109.6   46.8   33.8    1.2   1.22   0.74    0.00    6.06
 1991 309   118   115   81.4    0.0   81.4   0.00   1.20  110.6   46.7   34.8    1.2   1.20   0.73    0.00    6.21
 1991 310   119   116   82.2    0.0   82.2   0.00   1.19  111.6   46.5   35.7    1.2   1.19   0.73    0.00    6.36
 1991 311   120   117   82.9    0.0   82.9   0.00   1.17  112.4   46.4   36.5    1.2   1.17   0.72    0.00    6.51
 1991 312   121   118   83.7    0.0   83.7   0.00   1.17  113.4   46.5   37.3    1.2   1.17   0.71    0.00    6.66
 1991 313   122   119   84.4    0.0   84.4   0.00   1.16  114.2   46.5   37.9    1.2   1.16   0.69    0.00    6.81
 1991 314   123   120   85.1    0.0   85.1   0.00   1.26  115.1   50.1   34.9    1.3   1.26   0.69    0.00    6.96
 1991 315   124   121   85.6    0.0   85.6   0.00   1.28  115.8   50.1   35.6    1.3   1.28   0.68    0.00    7.11
 1991 316   125   122   86.2    0.0   86.2   0.00   1.29  116.6   50.0   36.2    1.3   1.29   0.66    0.00    7.27
 1991 317   126   123   86.7    0.0   86.7   0.00   1.30  117.3   49.9   36.8    1.3   1.30   0.65    0.00    7.42
 1991 318   127   124   87.2    0.0   87.2   0.00   1.31  117.9   49.7   37.5    1.3   1.31   0.66    0.00    7.58
 1991 319   128   125   87.6    0.0   87.6   0.00   1.32  118.6   49.3   38.3    1.3   1.32   0.66    0.00    7.73
 1991 320   129   126   88.1    0.0   88.1   0.00   1.32  119.2   49.0   39.1    1.3   1.32   0.66    0.00    7.89
 1991 321   130   127   88.8    0.0   88.8   0.00   1.34  120.3   48.8   40.1    1.3   1.34   0.65    0.00    8.05
 1991 322   131   128   89.6    0.0   89.6   0.00   1.35  121.4   48.5   41.2    1.3   1.35   0.65    0.00    8.21
 1991 323   132   129   90.4    0.0   90.4   0.00   1.36  122.6   48.2   42.2    1.4   1.36   0.64    0.00    8.37
 1991 324   133   130   91.0    0.0   91.0   0.00   1.37  123.6   47.8   43.2    1.4   1.37   0.64    0.00    8.53
 1991 325   134   131   91.8    0.0   91.8   0.00   1.38  124.7   47.3   44.4    1.4   1.38   0.63    0.00    8.69
 1991 326   135   132  103.3    0.0  103.3   0.00   1.56  143.3   52.2   51.1    1.6   1.56   0.75    0.00    8.86
 1991 327   136   133  107.6    0.0  107.6   0.00   1.61  150.3   53.0   54.6    1.6   1.61   0.80    0.00    9.06
 1991 328   137   134  109.3    0.0  109.3   0.00   1.64  153.2   52.9   56.3    1.6   1.64   0.83    0.00    9.28
 1991 329   138   135  109.9    0.0  109.9   0.00   1.66  154.5   52.3   57.6    1.7   1.66   0.84    0.00    9.50
 1991 330   139   136  110.5    0.0  110.5   0.00   1.68  155.6   51.6   58.9    1.7   1.68   0.85    0.00    9.72
 1991 331   140   137  111.0    2.0  109.0   1.58   1.65  156.5   50.9   58.1    1.7   1.65   0.85    0.00    9.95
 1991 332   141   138  111.4    5.1  106.3   1.57   1.61  157.2   49.6   56.7    1.6   1.61   0.85    0.00   10.18
 1991 333   142   139  111.8    8.3  103.5   1.57   1.57  158.0   48.3   55.2    1.6   1.57   0.86    0.00   10.41
 1991 334   143   140  112.3   11.6  100.7   1.56   1.53  158.8   47.0   53.7    1.5   1.53   0.86    0.00   10.64
 1991 335   144   141  112.9   14.4   98.5   1.55   1.49  159.8   46.0   52.5    1.5   1.49   0.86    0.00   10.87
 1991 336   145   142  113.6   17.6   96.0   1.54   1.46  160.9   44.8   51.2    1.5   1.46   0.86    0.00   11.11
 1991 337   146   143  114.3   20.7   93.6   1.54   1.42  162.1   43.7   49.9    1.4   1.42   0.87    0.00   11.35
 1991 338   147   144  115.0   23.9   91.1   1.53   1.38  163.1   42.5   48.6    1.4   1.38   0.87    0.00   11.59
 1991 339   148   145  115.6   26.9   88.7   1.52   1.35  164.1   41.4   47.3    1.3   1.35   0.88    0.00   11.83
 1991 340   149   146  116.1   30.0   86.1   1.52   1.31  165.0   40.2   45.9    1.3   1.31   0.88    0.00   12.07
 1991 341   150   147  116.9   33.0   83.9   1.51   1.27  166.1   39.2   44.7    1.3   1.27   0.89    0.00   12.31
 1991 342   151   148  117.6   36.0   81.6   1.50   1.24  167.2   38.1   43.5    1.2   1.24   0.89    0.00   12.56
 1991 343   152   149  118.2   38.6   79.7   1.49   1.22  168.1   37.4   42.3    1.2   1.22   0.90    0.00   12.81
 1991 344   153   150  118.7   41.5   77.2   1.49   1.17  168.8   36.0   41.2    1.2   1.17   0.90    0.00   13.06
 1991 345   154   151  119.3   44.3   75.0   1.48   1.14  169.7   35.0   40.0    1.1   1.14   0.91    0.00   13.31
 1991 346   155   152  120.0   46.6   73.3   1.47   1.12  170.6   34.4   39.0    1.1   1.12   0.92    0.00   13.56
 1991 347   156   153  120.6   49.2   71.3   1.46   1.08  171.4   33.3   38.0    1.1   1.08   0.91    0.00   13.81
 1991 348   157   154  121.1   51.2   69.8   1.45   1.06  172.2   32.7   37.2    1.1   1.06   0.92    0.00   14.06
 1991 349   158   155  121.5   53.4   68.1   1.45   1.04  172.8   32.1   36.1    1.0   1.04   0.93    0.00   14.32
 1991 350   159   156  122.0   56.0   66.0   1.44   1.00  173.4   30.9   35.2    1.0   1.00   0.93    0.00   14.57
 1991 351   160   157  122.6   58.6   64.0   1.43   0.97  174.3   29.9   34.1    1.0   0.97   0.93    0.00   14.83
 1991 352   161   158  123.3   61.2   62.1   1.42   0.94  175.2   29.0   33.1    0.9   0.94   0.93    0.00   15.09
 1991 353   162   159  123.9   63.7   60.2   1.41   0.91  175.9   28.1   32.1    0.9   0.91   0.94    0.00   15.34
 1991 354   163   160  124.4   66.1   58.2   1.40   0.88  176.6   27.2   31.1    0.9   0.88   0.94    0.00   15.60
 1991 355   164   161  125.2   68.6   56.6   1.39   0.86  177.7   26.4   30.2    0.9   0.86   0.94    0.00   15.86
 1991 356   165   162  126.0   70.9   55.1   1.38   0.84  178.7   26.0   29.1    0.8   0.84   0.95    0.00   16.12
 1991 357   166   163  126.7   73.3   53.4   1.37   0.81  179.6   25.0   28.4    0.8   0.81   0.95    0.00   16.39
 1991 358   167   164  127.3   75.6   51.7   1.36   0.79  180.4   24.1   27.6    0.8   0.79   0.96    0.00   16.65
 1991 359   168   165  128.1   77.6   50.5   1.35   0.77  181.4   23.6   26.9    0.8   0.77   0.96    0.00   16.91
 1991 360   169   166  128.9   79.0   50.0   1.34   0.76  182.5   23.3   26.6    0.8   0.76   0.96    0.00   17.18
 1991 361   170   167  129.6   80.5   49.2   1.33   0.75  183.4   22.9   26.2    0.7   0.75   0.96    0.00   17.44
 1991 362   171   168  130.6   82.3   48.3   1.32   0.73  184.5   22.5   25.7    0.7   0.73   0.97    0.00   17.71
 1991 363   172   169  131.3   84.3   47.0   1.31   0.71  185.4   21.9   25.1    0.7   0.71   0.97    0.00   17.97
 1991 364   173   170  132.1   86.4   45.7   1.30   0.69  186.4   21.3   24.4    0.7   0.69   0.97    0.00   18.24
 1991 365   174   171  132.8   88.4   44.4   1.29   0.68  187.3   20.8   23.6    0.7   0.68   0.98    0.00   18.51
 1992 001   175   172  133.6   90.4   43.3   1.28   0.67  188.3   20.6   22.7    0.7   0.67   0.99    0.00   18.78
 1992 002   176   173  134.3   92.2   42.1   1.27   0.66  189.1   20.1   22.0    0.7   0.66   1.00    0.00   19.05
 1992 003   177   174  134.3   92.2   42.1   1.27   0.66  190.0   20.1   22.0    0.7   0.66   1.00    0.00   19.05
 1992 004   178   175  134.3   92.2   42.1   1.27   0.66  190.9   20.1   22.0    0.7   0.66   1.00    0.00   19.05
 1992 005   179   176  134.3   92.2   42.1   1.27   0.66  191.8   20.1   22.0    0.7   0.66   1.00    0.00   19.05
 1992 006   180   177  134.3   92.2   42.1   1.27   0.66  192.6   20.1   22.0    0.7   0.66   1.00    0.00   19.05

*DSSAT Cropping System Model Ver. 4.0.2.000               Aug 03, 2016; 12:24:35

*RUN   3        : UYMZ                    
 MODEL          : MZCER040 - Maize           
 EXPERIMENT     : UYMZ0109 MZ    late to create DSS                             
 TREATMENT  1   : UYMZ                    

@YEAR DOY   DAS   DAP   CNAD   GNAD   VNAD   GN%D   VN%D   NUPC   LNAD   SNAD   LN%D   SN%D   RN%D   SNN0C   SNN1C
 1992 194     3     0    0.0    0.0    0.0   0.00   0.00    0.0    0.0    0.0    0.0   0.00   0.00    0.00    0.00
 1992 195     4     1    0.0    0.0    0.0   0.00   0.00    0.0    0.0    0.0    0.0   0.00   0.00    0.00    0.00
 1992 196     5     2    0.0    0.0    0.0   0.00   0.00    0.0    0.0    0.0    0.0   0.00   0.00    0.00    0.00
 1992 197     6     3    0.0    0.0    0.0   0.00   0.00    0.0    0.0    0.0    0.0   0.00   0.00    0.00    0.00
 1992 198     7     4    0.0    0.0    0.0   0.00   0.00    0.0    0.0    0.0    0.0   0.00   0.00    0.00    0.00
 1992 199     8     5    0.0    0.0    0.0   0.00   0.00    0.0    0.0    0.0    0.0   0.00   0.00    0.00    0.00
 1992 200     9     6    0.0    0.0    0.0   0.00   0.00    0.0    0.0    0.0    0.0   0.00   0.00    0.00    0.00
 1992 201    10     7    0.0    0.0    0.0   0.00   0.00    0.0    0.0    0.0    0.0   0.00   0.00    0.00    0.00
 1992 202    11     8    0.0    0.0    0.0   0.00   0.00    0.0    0.0    0.0    0.0   0.00   0.00    0.00    0.00
 1992 203    12     9    0.0    0.0    0.0   0.00   0.00    0.0    0.0    0.0    0.0   0.00   0.00    0.00    0.00
 1992 204    13    10    0.0    0.0    0.0   0.00   0.00    0.0    0.0    0.0    0.0   0.00   0.00    0.00    0.00
 1992 205    14    11    0.0    0.0    0.0   0.00   0.00    0.0    0.0    0.0    0.0   0.00   0.00    0.00    0.00
 1992 206    15    12    0.0    0.0    0.0   0.00   0.00    0.0    0.0    0.0    0.0   0.00   0.00    0.00    0.00
 1992 207    16    13    0.0    0.0    0.0   0.00   0.00    0.0    0.0    0.0    0.0   0.00   0.00    0.00    0.00
 1992 208    17    14    0.0    0.0    0.0   0.00   0.00    0.0    0.0    0.0    0.0   0.00   0.00    0.00    0.00
 1992 209    18    15    0.0    0.0    0.0   0.00   0.00    0.0    0.0    0.0    0.0   0.00   0.00    0.00    0.00
 1992 210    19    16    0.0    0.0    0.0   0.00   0.00    0.0    0.0    0.0    0.0   0.00   0.00    0.00    0.00
 1992 211    20    17    0.0    0.0    0.0   0.00   0.00    0.0    0.0    0.0    0.0   0.00   0.00    0.00    0.00
 1992 212    21    18    0.0    0.0    0.0   0.00   0.00    0.0    0.0    0.0    0.0   0.00   0.00    0.00    0.00
 1992 213    22    19    0.0    0.0    0.0   0.00   0.00    0.0    0.0    0.0    0.0   0.00   0.00    0.00    0.00
 1992 214    23    20    0.0    0.0    0.0   0.00   0.00    0.0    0.0    0.0    0.0   0.00   0.00    0.00    0.00
 1992 215    24    21    0.0    0.0    0.0   0.00   0.00    0.0    0.0    0.0    0.0   0.00   0.00    0.00    0.00
 1992 216    25    22    0.0    0.0    0.0   0.00   0.00    0.0    0.0    0.0    0.0   0.00   0.00    0.00    0.00
 1992 217    26    23    0.0    0.0    0.0   0.00   0.00    0.0    0.0    0.0    0.0   0.00   0.00    0.00    0.00
 1992 218    27    24    0.0    0.0    0.0   0.00   0.00    0.0    0.0    0.0    0.0   0.00   0.00    0.00    0.00
 1992 219    28    25    0.0    0.0    0.0   0.00   0.00    0.0    0.0    0.0    0.0   0.00   0.00    0.00    0.00
 1992 220    29    26    0.0    0.0    0.0   0.00   0.00    0.0    0.0    0.0    0.0   0.00   0.00    0.00    0.00
 1992 221    30    27    0.0    0.0    0.0   0.00   0.00    0.0    0.0    0.0    0.0   0.00   0.00    0.00    0.00
 1992 222    31    28    0.0    0.0    0.0   0.00   0.00    0.0    0.0    0.0    0.0   0.00   0.00    0.00    0.00
 1992 223    32    29    0.0    0.0    0.0   0.00   0.00    0.0    0.0    0.0    0.0   0.00   0.00    0.00    0.00
 1992 224    33    30    0.0    0.0    0.0   0.00   0.00    0.0    0.0    0.0    0.0   0.00   0.00    0.00    0.00
 1992 225    34    31    0.0    0.0    0.0   0.00   0.00    0.0    0.0    0.0    0.0   0.00   0.00    0.00    0.00
 1992 226    35    32    0.0    0.0    0.0   0.00   0.00    0.0    0.0    0.0    0.0   0.00   0.00    0.00    0.00
 1992 227    36    33    0.0    0.0    0.0   0.00   0.00    0.0    0.0    0.0    0.0   0.00   0.00    0.00    0.00
 1992 228    37    34    1.2    0.0    1.2   0.00   4.40    0.0    0.6    0.6    4.4   4.40   0.00    0.00    0.00
 1992 229    38    35    1.3    0.0    1.3   0.00   4.55    0.2    0.6    0.6    4.5   4.55   1.08    0.00    0.00
 1992 230    39    36    1.3    0.0    1.3   0.00   4.55    0.2    0.6    0.6    4.5   4.55   1.06    0.00    0.00
 1992 231    40    37    1.3    0.0    1.3   0.00   4.51    0.2    0.6    0.6    4.5   4.51   1.11    0.00    0.00
 1992 232    41    38    1.3    0.0    1.3   0.00   4.49    0.2    0.6    0.6    4.5   4.49   1.12    0.00    0.00
 1992 233    42    39    1.3    0.0    1.3   0.00   4.48    0.2    0.6    0.6    4.5   4.48   1.13    0.00    0.00
 1992 234    43    40    1.2    0.0    1.2   0.00   4.45    0.2    0.6    0.6    4.5   4.45   1.16    0.00    0.00
 1992 235    44    41    1.2    0.0    1.2   0.00   4.45    0.2    0.6    0.6    4.5   4.45   1.11    0.00    0.00
 1992 236    45    42    1.2    0.0    1.2   0.00   4.41    0.3    0.6    0.6    4.4   4.41   1.18    0.00    0.00
 1992 237    46    43    1.2    0.0    1.2   0.00   4.39    0.3    0.6    0.6    4.4   4.39   1.19    0.00    0.01
 1992 238    47    44    1.2    0.0    1.2   0.00   4.38    0.3    0.6    0.6    4.4   4.38   1.19    0.00    0.01
 1992 239    48    45    1.2    0.0    1.2   0.00   4.36    0.4    0.6    0.6    4.4   4.36   1.21    0.00    0.01
 1992 240    49    46    1.2    0.0    1.2   0.00   4.34    0.4    0.6    0.6    4.3   4.34   1.22    0.00    0.01
 1992 241    50    47    1.2    0.0    1.2   0.00   3.87    0.4    0.7    0.5    3.9   3.87   1.15    0.00    0.01
 1992 242    51    48    1.3    0.0    1.3   0.00   3.58    0.6    0.8    0.5    3.6   3.58   1.16    0.00    0.02
 1992 243    52    49    1.6    0.0    1.6   0.00   3.60    0.9    1.1    0.5    3.6   3.60   1.09    0.00    0.02
 1992 244    53    50    1.9    0.0    1.9   0.00   4.01    1.2    1.3    0.6    4.0   4.01   1.17    0.00    0.02
 1992 245    54    51    2.0    0.0    2.0   0.00   4.08    1.4    1.4    0.6    4.1   4.08   1.20    0.00    0.02
 1992 246    55    52    2.1    0.0    2.1   0.00   4.01    1.4    1.5    0.6    4.0   4.01   1.14    0.00    0.03
 1992 247    56    53    2.2    0.0    2.2   0.00   3.93    1.7    1.7    0.5    3.9   3.93   1.30    0.00    0.03
 1992 248    57    54    2.4    0.0    2.4   0.00   3.87    2.1    1.8    0.5    3.9   3.87   1.31    0.00    0.03
 1992 249    58    55    2.6    0.0    2.6   0.00   3.80    2.5    2.0    0.5    3.8   3.80   1.26    0.00    0.04
 1992 250    59    56    2.8    0.0    2.8   0.00   3.81    2.9    2.3    0.5    3.8   3.81   1.25    0.00    0.04
 1992 251    60    57    3.1    0.0    3.1   0.00   3.72    3.4    2.6    0.5    3.7   3.72   1.22    0.00    0.05
 1992 252    61    58    3.4    0.0    3.4   0.00   3.66    3.6    2.9    0.5    3.7   3.66   1.09    0.00    0.06
 1992 253    62    59    3.9    0.0    3.9   0.00   3.66    4.2    3.4    0.5    3.7   3.66   1.15    0.00    0.06
 1992 254    63    60    4.4    0.0    4.4   0.00   3.61    4.9    3.8    0.5    3.6   3.61   1.17    0.00    0.07
 1992 255    64    61    4.9    0.0    4.9   0.00   3.58    5.5    4.4    0.5    3.6   3.58   1.12    0.00    0.08
 1992 256    65    62    5.6    0.0    5.6   0.00   3.66    6.7    5.1    0.5    3.7   3.66   1.23    0.00    0.09
 1992 257    66    63    6.2    0.0    6.2   0.00   3.81    7.3    5.6    0.5    3.8   3.81   1.17    0.00    0.10
 1992 258    67    64    6.5    0.0    6.5   0.00   3.75    8.2    6.0    0.5    3.8   3.75   1.22    0.00    0.11
 1992 259    68    65    7.0    0.0    7.0   0.00   3.65    9.2    6.5    0.5    3.6   3.65   1.23    0.00    0.13
 1992 260    69    66    7.6    0.0    7.6   0.00   3.56    9.8    7.1    0.5    3.6   3.56   1.15    0.00    0.14
 1992 261    70    67    8.5    0.0    8.5   0.00   3.40   11.0    8.0    0.5    3.4   3.40   1.15    0.00    0.16
 1992 262    71    68    9.9    0.0    9.9   0.00   3.72   13.3    9.3    0.5    3.7   3.72   1.25    0.00    0.18
 1992 263    72    69   10.4    0.0   10.4   0.00   3.71   14.5    9.9    0.5    3.7   3.71   1.24    0.00    0.20
 1992 264    73    70   11.0    0.0   11.0   0.00   3.55   15.7   10.5    0.5    3.5   3.55   1.20    0.00    0.23
 1992 265    74    71   12.0    0.0   12.0   0.00   3.57   17.5   11.5    0.5    3.6   3.57   1.19    0.00    0.26
 1992 266    75    72   13.1    0.0   13.1   0.00   3.78   18.2   12.6    0.5    3.8   3.78   1.11    0.00    0.29
 1992 267    76    73   13.3    0.0   13.3   0.00   3.60   19.2   12.8    0.5    3.6   3.60   1.17    0.00    0.32
 1992 268    77    74   15.0    0.0   15.0   0.00   3.90   20.6   14.4    0.5    3.9   3.90   1.10    0.00    0.36
 1992 269    78    75   14.6    0.0   14.6   0.00   3.75   21.9   14.1    0.5    3.7   3.75   1.30    0.00    0.39
 1992 270    79    76   14.6    0.0   14.6   0.00   3.67   22.2   14.1    0.5    3.7   3.67   1.27    0.00    0.44
 1992 271    80    77   15.0    0.0   15.0   0.00   3.58   22.6   14.5    0.5    3.6   3.58   1.16    0.00    0.48
 1992 272    81    78   16.0    0.0   16.0   0.00   3.55   24.3   15.5    0.5    3.6   3.55   1.16    0.00    0.52
 1992 273    82    79   17.2    0.0   17.2   0.00   3.53   26.3   16.7    0.5    3.5   3.53   1.16    0.00    0.57
 1992 274    83    80   19.1    0.0   19.1   0.00   3.49   28.8   18.5    0.5    3.5   3.49   1.14    0.00    0.62
 1992 275    84    81   21.0    0.0   21.0   0.00   3.45   30.5   20.4    0.6    3.5   3.45   1.10    0.00    0.68
 1992 276    85    82   22.6    0.0   22.6   0.00   3.42   32.5   22.0    0.6    3.4   3.42   1.10    0.00    0.73
 1992 277    86    83   24.1    0.0   24.1   0.00   3.40   35.1   23.4    0.7    3.4   3.40   1.14    0.00    0.79
 1992 278    87    84   26.3    0.0   26.3   0.00   3.36   37.9   25.4    0.9    3.4   3.36   1.13    0.00    0.85
 1992 279    88    85   28.0    0.0   28.0   0.00   3.34   39.1   27.0    1.0    3.3   3.34   1.08    0.00    0.91
 1992 280    89    86   29.3    0.0   29.3   0.00   3.37   43.0   28.2    1.1    3.4   3.37   1.21    0.00    0.97
 1992 281    90    87   30.1    0.0   30.1   0.00   3.37   44.5   28.9    1.2    3.4   3.37   1.20    0.00    1.05
 1992 282    91    88   30.9    0.0   30.9   0.00   3.32   46.4   29.6    1.3    3.3   3.32   1.18    0.00    1.12
 1992 283    92    89   32.3    0.0   32.3   0.00   3.29   48.8   30.9    1.4    3.3   3.29   1.15    0.00    1.21
 1992 284    93    90   34.6    0.0   34.6   0.00   3.26   52.2   32.8    1.7    3.3   3.26   1.15    0.00    1.29
 1992 285    94    91   37.3    0.0   37.3   0.00   3.23   54.9   35.2    2.2    3.2   3.23   1.11    0.00    1.39
 1992 286    95    92   40.2    0.0   40.2   0.00   3.20   59.3   37.5    2.7    3.2   3.20   1.13    0.00    1.48
 1992 287    96    93   42.8    0.0   42.8   0.00   3.17   63.6   39.6    3.2    3.2   3.17   1.14    0.00    1.58
 1992 288    97    94   46.5    0.0   46.5   0.00   3.14   68.2   42.4    4.0    3.1   3.14   1.13    0.00    1.69
 1992 289    98    95   49.0    0.0   49.0   0.00   3.09   69.5   44.2    4.8    3.1   3.09   1.07    0.00    1.81
 1992 290    99    96   52.2    0.0   52.2   0.00   3.06   72.8   46.5    5.7    3.1   3.06   1.07    0.00    1.91
 1992 291   100    97   55.0    0.0   55.0   0.00   3.04   78.3   48.4    6.6    3.0   3.04   1.13    0.00    2.02
 1992 292   101    98   57.1    0.0   57.1   0.00   3.02   82.5   49.8    7.3    3.0   3.02   1.15    0.00    2.14
 1992 293   102    99   59.7    0.0   59.7   0.00   3.00   83.7   51.4    8.2    3.0   3.00   1.08    0.00    2.28
 1992 294   103   100   61.9    0.0   61.9   0.00   2.98   88.9   52.8    9.0    3.0   2.98   1.14    0.00    2.40
 1992 295   104   101   63.9    0.0   63.9   0.00   2.96   93.0   54.1    9.8    3.0   2.96   1.14    0.00    2.54
 1992 296   105   102   66.8    0.0   66.8   0.00   2.94   97.2   55.9   11.0    2.9   2.94   1.13    0.00    2.69
 1992 297   106   103   71.2    0.0   71.2   0.00   2.91  102.6   58.4   12.8    2.9   2.91   1.11    0.00    2.85
 1992 298   107   104   77.0    0.0   77.0   0.00   2.87  109.0   61.5   15.5    2.9   2.87   1.10    0.00    3.01
 1992 299   108   105   80.3    0.0   80.3   0.00   2.83  111.2   63.1   17.2    2.8   2.83   1.07    0.00    3.17
 1992 300   109   106   85.7    0.0   85.7   0.00   2.77  118.5   65.5   20.2    2.8   2.77   1.10    0.00    3.33
 1992 301   110   107   90.9    0.0   90.9   0.00   2.56  123.5   70.9   19.9    2.6   2.56   1.08    0.00    3.50
 1992 302   111   108   95.0    0.0   95.0   0.00   2.59  127.4   73.9   21.1    2.6   2.59   1.08    0.00    3.67
 1992 303   112   109   97.5    0.0   97.5   0.00   2.52  130.6   74.7   22.8    2.5   2.52   1.05    0.00    3.84
 1992 304   113   110   99.6    0.0   99.6   0.00   2.44  133.2   75.0   24.6    2.4   2.44   1.03    0.00    4.01
 1992 305   114   111  101.2    0.0  101.2   0.00   2.36  135.4   74.7   26.5    2.4   2.36   1.00    0.00    4.18
 1992 306   115   112  102.7    0.0  102.7   0.00   2.25  137.2   73.8   28.8    2.3   2.25   0.98    0.00    4.35
 1992 307   116   113  103.9    0.0  103.9   0.00   2.13  138.6   72.3   31.6    2.1   2.13   0.96    0.00    4.53
 1992 308   117   114  105.0    0.0  105.0   0.00   2.08  139.9   71.9   33.1    2.1   2.08   0.94    0.00    4.71
 1992 309   118   115  105.7    0.0  105.7   0.00   2.07  140.9   72.0   33.7    2.1   2.07   0.92    0.00    4.89
 1992 310   119   116  106.4    0.0  106.4   0.00   2.06  141.8   72.0   34.4    2.1   2.06   0.90    0.00    5.07
 1992 311   120   117  107.0    0.0  107.0   0.00   2.03  142.7   71.7   35.3    2.0   2.03   0.87    0.00    5.25
 1992 312   121   118  107.5    0.0  107.5   0.00   1.99  143.4   71.1   36.4    2.0   1.99   0.84    0.00    5.43
 1992 313   122   119  107.9    0.0  107.9   0.00   1.93  144.0   70.1   37.8    1.9   1.93   0.82    0.00    5.61
 1992 314   123   120  108.3    0.0  108.3   0.00   1.86  144.5   68.8   39.5    1.9   1.86   0.80    0.00    5.80
 1992 315   124   121  108.8    0.0  108.8   0.00   1.82  145.2   68.2   40.6    1.8   1.82   0.80    0.00    5.98
 1992 316   125   122  109.3    0.0  109.3   0.00   1.75  145.8   66.8   42.5    1.7   1.75   0.80    0.00    6.17
 1992 317   126   123  109.8    0.0  109.8   0.00   1.68  146.5   65.5   44.3    1.7   1.68   0.78    0.00    6.35
 1992 318   127   124  110.8    0.0  110.8   0.00   1.64  147.8   64.8   46.0    1.6   1.64   0.77    0.00    6.54
 1992 319   128   125  111.8    0.0  111.8   0.00   1.59  149.1   64.0   47.8    1.6   1.59   0.77    0.00    6.73
 1992 320   129   126  112.8    0.0  112.8   0.00   1.55  150.4   63.4   49.4    1.5   1.55   0.77    0.00    6.91
 1992 321   130   127  113.6    0.0  113.6   0.00   1.53  151.4   63.2   50.4    1.5   1.53   0.75    0.00    7.11
 1992 322   131   128  114.5    0.0  114.5   0.00   1.52  152.7   63.2   51.4    1.5   1.52   0.73    0.00    7.30
 1992 323   132   129  115.2    0.0  115.2   0.00   1.50  153.7   63.0   52.3    1.5   1.50   0.71    0.00    7.49
 1992 324   133   130  115.9    0.0  115.9   0.00   1.47  154.7   62.5   53.4    1.5   1.47   0.70    0.00    7.69
 1992 325   134   131  116.6    0.0  116.6   0.00   1.44  155.6   61.9   54.7    1.4   1.44   0.70    0.00    7.88
 1992 326   135   132  130.6    0.0  130.6   0.00   1.75  173.9   74.5   56.1    1.7   1.75   0.78    0.00    8.08
 1992 327   136   133  134.9    0.0  134.9   0.00   1.81  180.6   76.3   58.7    1.8   1.81   0.80    0.00    8.30
 1992 328   137   134  136.5    0.0  136.5   0.00   1.83  183.2   76.5   60.0    1.8   1.83   0.80    0.00    8.53
 1992 329   138   135  137.3    0.0  137.3   0.00   1.84  184.5   76.0   61.4    1.8   1.84   0.79    0.00    8.76
 1992 330   139   136  137.8    0.0  137.8   0.00   1.84  185.4   75.2   62.7    1.8   1.84   0.79    0.00    9.00
 1992 331   140   137  138.2    0.0  138.2   0.00   1.84  186.0   74.2   63.9    1.8   1.84   0.79    0.00    9.24
 1992 332   141   138  138.5    0.0  138.5   0.00   1.84  186.6   73.3   65.2    1.8   1.84   0.78    0.00    9.48
 1992 333   142   139  138.8    0.0  138.8   0.00   1.85  187.3   72.2   66.6    1.8   1.85   0.78    0.00    9.72
 1992 334   143   140  139.1    0.0  139.1   0.00   1.84  188.0   71.0   68.1    1.8   1.84   0.78    0.00    9.96
 1992 335   144   141  139.5    0.0  139.5   0.00   1.84  188.7   69.8   69.7    1.8   1.84   0.78    0.00   10.21
 1992 336   145   142  139.7    0.0  139.7   0.00   1.85  189.4   68.7   71.0    1.8   1.85   0.77    0.00   10.46
 1992 337   146   143  140.0    0.0  140.0   0.00   1.85  190.5   67.8   72.2    1.9   1.85   0.77    0.00   10.71
 1992 338   147   144  140.2    0.0  140.2   0.00   1.86  191.4   66.6   73.5    1.9   1.86   0.76    0.00   10.96
 1992 339   148   145  140.3    0.0  140.3   0.00   1.86  192.4   65.3   75.0    1.9   1.86   0.76    0.00   11.22
 1992 340   149   146  140.4    0.0  140.4   0.00   1.86  193.3   63.9   76.5    1.9   1.86   0.77    0.00   11.48
 1992 341   150   147  140.6    4.7  135.9   1.70   1.80  194.2   61.9   74.0    1.8   1.80   0.78    0.00   11.74
 1992 342   151   148  140.8    8.8  132.0   1.70   1.75  194.9   60.1   71.9    1.7   1.75   0.78    0.00   12.01
 1992 343   152   149  141.2   13.1  128.1   1.70   1.70  196.0   58.3   69.7    1.7   1.70   0.79    0.00   12.28
 1992 344   153   150  141.5   17.4  124.1   1.69   1.64  196.8   56.5   67.6    1.6   1.64   0.80    0.00   12.56
 1992 345   154   151  141.8   22.0  119.9   1.68   1.59  197.7   54.6   65.3    1.6   1.59   0.80    0.00   12.83
 1992 346   155   152  142.2   25.9  116.3   1.67   1.54  198.6   53.0   63.3    1.5   1.54   0.81    0.00   13.11
 1992 347   156   153  142.6   29.5  113.1   1.66   1.50  199.4   51.5   61.6    1.5   1.50   0.81    0.00   13.39
 1992 348   157   154  143.0   33.9  109.1   1.64   1.45  200.2   49.7   59.4    1.4   1.45   0.81    0.00   13.68
 1992 349   158   155  143.4   38.0  105.4   1.63   1.40  201.0   48.0   57.4    1.4   1.40   0.81    0.00   13.96
 1992 350   159   156  143.8   40.9  102.9   1.62   1.36  201.8   46.8   56.0    1.4   1.36   0.81    0.00   14.25
 1992 351   160   157  144.1   44.6   99.5   1.61   1.32  202.3   45.3   54.2    1.3   1.32   0.81    0.00   14.54
 1992 352   161   158  144.6   48.6   96.0   1.59   1.27  203.3   43.7   52.3    1.3   1.27   0.82    0.00   14.83
 1992 353   162   159  145.0   52.5   92.5   1.58   1.23  204.0   42.1   50.4    1.2   1.23   0.82    0.00   15.12
 1992 354   163   160  145.5   56.4   89.1   1.56   1.18  204.8   40.6   48.5    1.2   1.18   0.83    0.00   15.41
 1992 355   164   161  146.0   60.2   85.8   1.55   1.14  205.6   39.1   46.7    1.1   1.14   0.83    0.00   15.71
 1992 356   165   162  146.5   63.9   82.6   1.53   1.09  206.4   37.6   45.0    1.1   1.09   0.83    0.00   16.00
 1992 357   166   163  146.8   67.4   79.4   1.52   1.06  207.0   36.6   42.8    1.1   1.06   0.84    0.00   16.30
 1992 358   167   164  147.3   70.9   76.4   1.50   1.04  207.7   35.6   40.7    1.0   1.04   0.84    0.00   16.60
 1992 359   168   165  147.9   74.3   73.6   1.49   0.99  208.8   33.9   39.7    1.0   0.99   0.85    0.00   16.90
 1992 360   169   166  148.3   77.4   70.9   1.48   0.94  209.4   32.4   38.5    0.9   0.94   0.85    0.00   17.20
 1992 361   170   167  149.0   80.0   68.9   1.46   0.91  210.4   31.4   37.5    0.9   0.91   0.85    0.00   17.51
 1992 362   171   168  149.5   82.6   66.9   1.45   0.89  211.1   30.5   36.4    0.9   0.89   0.85    0.00   17.81
 1992 363   172   169  150.0   85.6   64.4   1.43   0.85  211.9   29.3   35.1    0.9   0.85   0.85    0.00   18.12
 1992 364   173   170  150.5   88.6   62.0   1.42   0.84  212.7   28.8   33.2    0.8   0.84   0.86    0.00   18.42
 1992 365   174   171  151.0   91.1   59.9   1.40   0.82  213.5   28.3   31.6    0.8   0.82   0.87    0.00   18.73
 1992 366   175   172  151.5   93.3   58.1   1.39   0.81  214.1   27.8   30.4    0.8   0.81   0.88    0.00   19.04
 1993 001   176   173  151.7   95.6   56.0   1.37   0.79  214.4   27.2   28.9    0.8   0.79   0.88    0.00   19.35
 1993 002   177   174  151.9   97.9   54.0   1.36   0.77  214.8   26.6   27.4    0.8   0.77   0.89    0.00   19.66
 1993 003   178   175  152.1  100.2   51.9   1.35   0.76  215.1   26.0   25.9    0.8   0.76   0.89    0.00   19.97
 1993 004   179   176  152.4  102.9   49.5   1.33   0.73  215.5   25.2   24.3    0.7   0.73   0.90    0.00   20.28
 1993 005   180   177  152.8  105.5   47.3   1.32   0.70  216.1   24.0   23.3    0.7   0.70   0.91    0.00   20.59
 1993 006   181   178  153.4  108.0   45.4   1.31   0.67  217.0   23.0   22.5    0.7   0.67   0.91    0.00   20.90
 1993 007   182   179  154.0  110.4   43.6   1.29   0.65  217.7   22.5   21.1    0.7   0.65   0.92    0.00   21.22
 1993 008   183   180  154.4  112.6   41.8   1.28   0.64  218.3   21.9   19.9    0.6   0.64   0.92    0.00   21.53
 1993 009   184   181  154.8  114.6   40.2   1.26   0.61  218.8   21.0   19.2    0.6   0.61   0.93    0.00   21.85
 1993 010   185   182  155.5  116.7   38.8   1.25   0.59  219.8   20.3   18.5    0.6   0.59   0.94    0.00   22.16
 1993 011   186   183  156.5  118.7   37.8   1.23   0.58  220.8   19.9   18.0    0.6   0.58   0.94    0.00   22.48
 1993 012   187   184  157.8  120.6   37.1   1.22   0.57  221.9   19.7   17.5    0.6   0.57   0.94    0.00   22.79
 1993 013   188   185  157.8  120.6   37.1   1.22   0.57  223.0   19.7   17.5    0.6   0.57   0.94    0.00   22.79
 1993 014   189   186  157.8  120.6   37.1   1.22   0.57  224.2   19.7   17.5    0.6   0.57   0.94    0.00   22.79
 1993 015   190   187  157.8  120.6   37.1   1.22   0.57  225.3   19.7   17.5    0.6   0.57   0.94    0.00   22.79
