*GROWTH ASPECTS OUTPUT FILE

*DSSAT Cropping System Model Ver. 4.0.2.000               Aug 03, 2016; 12:24:35

*RUN   1        : UYMZ                    
 MODEL          : MZCER040 - Maize           
 EXPERIMENT     : UYMZ0109 MZ    late to create DSS                             
 TREATMENT  1   : UYMZ                    

@YEAR DOY   DAS   DAP   L#SD   GSTD   LAID   LWAD   SWAD   GWAD   RWAD   CWAD   G#AD   GWGD   HIAD   PWAD   P#AD   WSPD   WSGD   NSTD   EWSD   LN%D   SH%D   HIPD   PWDD   PWTD     SLAD   CHTD   CWID   RDPD   RL1D   RL2D   RL3D   RL4D   RL5D   RL6D   RL7D   RL8D   RL9D   RL10   CDAD   LDAD   SDAD   SNW0C   SNW1C
 1990 194     3     0    0.0      0   0.00      0      0      0      0      0      0    0.0  0.000      0      0  0.000  0.000  0.000  0.000   0.00   0.00   0.00      0      0      0.0   0.00   0.00   0.03   0.00   0.00   0.00   0.00   0.00   0.00   0.00   0.00   0.00   0.00      0      0      0       0       0
 1990 195     4     1    0.0      0   0.00      0      0      0      0      0      0    0.0  0.000      0      0  0.000  0.000  0.000  0.000   0.00   0.00   0.00      0      0      0.0   0.00   0.00   0.03   0.00   0.00   0.00   0.00   0.00   0.00   0.00   0.00   0.00   0.00      0      0      0       0       0
 1990 196     5     2    0.0      0   0.00      0      0      0      0      0      0    0.0  0.000      0      0  0.000  0.000  0.000  0.000   0.00   0.00   0.00      0      0      0.0   0.00   0.00   0.04   0.00   0.00   0.00   0.00   0.00   0.00   0.00   0.00   0.00   0.00      0      0      0       0       0
 1990 197     6     3    0.0      0   0.00      0      0      0      0      0      0    0.0  0.000      0      0  0.000  0.000  0.000  0.000   0.00   0.00   0.00      0      0      0.0   0.00   0.00   0.05   0.00   0.00   0.00   0.00   0.00   0.00   0.00   0.00   0.00   0.00      0      0      0       0       0
 1990 198     7     4    0.0      0   0.00      0      0      0      0      0      0    0.0  0.000      0      0  0.000  0.000  0.000  0.000   0.00   0.00   0.00      0      0      0.0   0.00   0.00   0.06   0.00   0.00   0.00   0.00   0.00   0.00   0.00   0.00   0.00   0.00      0      0      0       0       0
 1990 199     8     5    0.0      0   0.00      0      0      0      0      0      0    0.0  0.000      0      0  0.000  0.000  0.000  0.000   0.00   0.00   0.00      0      0      0.0   0.00   0.00   0.06   0.00   0.00   0.00   0.00   0.00   0.00   0.00   0.00   0.00   0.00      0      0      0       0       0
 1990 200     9     6    0.0      0   0.00      0      0      0      0      0      0    0.0  0.000      0      0  0.000  0.000  0.000  0.000   0.00   0.00   0.00      0      0      0.0   0.00   0.00   0.06   0.00   0.00   0.00   0.00   0.00   0.00   0.00   0.00   0.00   0.00      0      0      0       0       0
 1990 201    10     7    0.0      0   0.00      0      0      0      0      0      0    0.0  0.000      0      0  0.000  0.000  0.000  0.000   0.00   0.00   0.00      0      0      0.0   0.00   0.00   0.06   0.00   0.00   0.00   0.00   0.00   0.00   0.00   0.00   0.00   0.00      0      0      0       0       0
 1990 202    11     8    0.0      0   0.00      0      0      0      0      0      0    0.0  0.000      0      0  0.000  0.000  0.000  0.000   0.00   0.00   0.00      0      0      0.0   0.00   0.00   0.06   0.00   0.00   0.00   0.00   0.00   0.00   0.00   0.00   0.00   0.00      0      0      0       0       0
 1990 203    12     9    0.0      0   0.00      0      0      0      0      0      0    0.0  0.000      0      0  0.000  0.000  0.000  0.000   0.00   0.00   0.00      0      0      0.0   0.00   0.00   0.06   0.00   0.00   0.00   0.00   0.00   0.00   0.00   0.00   0.00   0.00      0      0      0       0       0
 1990 204    13    10    0.0      0   0.00      0      0      0      0      0      0    0.0  0.000      0      0  0.000  0.000  0.000  0.000   0.00   0.00   0.00      0      0      0.0   0.00   0.00   0.06   0.00   0.00   0.00   0.00   0.00   0.00   0.00   0.00   0.00   0.00      0      0      0       0       0
 1990 205    14    11    0.0      0   0.00      0      0      0      0      0      0    0.0  0.000      0      0  0.000  0.000  0.000  0.000   0.00   0.00   0.00      0      0      0.0   0.00   0.00   0.06   0.00   0.00   0.00   0.00   0.00   0.00   0.00   0.00   0.00   0.00      0      0      0       0       0
 1990 206    15    12    0.0      0   0.00      0      0      0      0      0      0    0.0  0.000      0      0  0.000  0.000  0.000  0.000   0.00   0.00   0.00      0      0      0.0   0.00   0.00   0.06   0.00   0.00   0.00   0.00   0.00   0.00   0.00   0.00   0.00   0.00      0      0      0       0       0
 1990 207    16    13    0.0      0   0.00      0      0      0      0      0      0    0.0  0.000      0      0  0.000  0.000  0.000  0.000   0.00   0.00   0.00      0      0      0.0   0.00   0.00   0.06   0.00   0.00   0.00   0.00   0.00   0.00   0.00   0.00   0.00   0.00      0      0      0       0       0
 1990 208    17    14    0.0      0   0.00      0      0      0      0      0      0    0.0  0.000      0      0  0.000  0.000  0.000  0.000   0.00   0.00   0.00      0      0      0.0   0.00   0.00   0.07   0.00   0.00   0.00   0.00   0.00   0.00   0.00   0.00   0.00   0.00      0      0      0       0       0
 1990 209    18    15    0.0      0   0.00      0      0      0      0      0      0    0.0  0.000      0      0  0.000  0.000  0.000  0.000   0.00   0.00   0.00      0      0      0.0   0.00   0.00   0.07   0.00   0.00   0.00   0.00   0.00   0.00   0.00   0.00   0.00   0.00      0      0      0       0       0
 1990 210    19    16    0.0      0   0.00      0      0      0      0      0      0    0.0  0.000      0      0  0.000  0.000  0.000  0.000   0.00   0.00   0.00      0      0      0.0   0.00   0.00   0.07   0.00   0.00   0.00   0.00   0.00   0.00   0.00   0.00   0.00   0.00      0      0      0       0       0
 1990 211    20    17    0.0      0   0.00      0      0      0      0      0      0    0.0  0.000      0      0  0.000  0.000  0.000  0.000   0.00   0.00   0.00      0      0      0.0   0.00   0.00   0.07   0.00   0.00   0.00   0.00   0.00   0.00   0.00   0.00   0.00   0.00      0      0      0       0       0
 1990 212    21    18    0.0      0   0.00      0      0      0      0      0      0    0.0  0.000      0      0  0.000  0.000  0.000  0.000   0.00   0.00   0.00      0      0      0.0   0.00   0.00   0.07   0.00   0.00   0.00   0.00   0.00   0.00   0.00   0.00   0.00   0.00      0      0      0       0       0
 1990 213    22    19    0.0      0   0.00      0      0      0      0      0      0    0.0  0.000      0      0  0.000  0.000  0.000  0.000   0.00   0.00   0.00      0      0      0.0   0.00   0.00   0.08   0.00   0.00   0.00   0.00   0.00   0.00   0.00   0.00   0.00   0.00      0      0      0       0       0
 1990 214    23    20    0.0      0   0.00      0      0      0      0      0      0    0.0  0.000      0      0  0.000  0.000  0.000  0.000   0.00   0.00   0.00      0      0      0.0   0.00   0.00   0.08   0.00   0.00   0.00   0.00   0.00   0.00   0.00   0.00   0.00   0.00      0      0      0       0       0
 1990 215    24    21    0.0      0   0.00      0      0      0      0      0      0    0.0  0.000      0      0  0.000  0.000  0.000  0.000   0.00   0.00   0.00      0      0      0.0   0.00   0.00   0.09   0.00   0.00   0.00   0.00   0.00   0.00   0.00   0.00   0.00   0.00      0      0      0       0       0
 1990 216    25    22    0.0      0   0.00      0      0      0      0      0      0    0.0  0.000      0      0  0.000  0.000  0.000  0.000   0.00   0.00   0.00      0      0      0.0   0.00   0.00   0.10   0.00   0.00   0.00   0.00   0.00   0.00   0.00   0.00   0.00   0.00      0      0      0       0       0
 1990 217    26    23    0.0      0   0.00      0      0      0      0      0      0    0.0  0.000      0      0  0.000  0.000  0.000  0.000   0.00   0.00   0.00      0      0      0.0   0.00   0.00   0.12   0.00   0.00   0.00   0.00   0.00   0.00   0.00   0.00   0.00   0.00      0      0      0       0       0
 1990 218    27    24    1.0      1   0.00     14     14      0     14     28      0    0.0  0.000      0      0  0.000  0.000  0.012  0.000   4.40   0.00   0.00      0      0     21.0   0.00   0.00   0.13   0.28   0.10   0.00   0.00   0.00   0.00   0.00   0.00   0.00   0.00      0      0      0       0       0
 1990 219    28    25    2.0      1   0.01     14     14      0     14     28      0    0.0  0.000      0      0  0.000  0.000  0.014  0.000   4.52   0.00   0.00      0      0     42.6   0.00   0.00   0.14   0.28   0.10   0.00   0.00   0.00   0.00   0.00   0.00   0.00   0.00      0      0      0       0       0
 1990 220    29    26    2.0      1   0.01     14     14      0     15     28      0    0.0  0.000      0      0  0.000  0.000  0.000  0.000   4.49   0.00   0.00      0      0     64.3   0.00   0.00   0.15   0.29   0.11   0.00   0.00   0.00   0.00   0.00   0.00   0.00   0.00      0      0      0       0       0
 1990 221    30    27    3.0      1   0.01     14     14      0     16     28      0    0.0  0.000      0      0  0.000  0.000  0.000  0.000   4.47   0.00   0.00      0      0     80.2   0.00   0.00   0.16   0.29   0.13   0.00   0.00   0.00   0.00   0.00   0.00   0.00   0.00      0      0      0       0       0
 1990 222    31    28    3.0      1   0.01     14     14      0     18     28      0    0.0  0.000      0      0  0.000  0.000  0.000  0.000   4.45   0.00   0.00      0      0     98.0   0.00   0.00   0.17   0.31   0.14   0.00   0.00   0.00   0.00   0.00   0.00   0.00   0.00      0      0      0       0       0
 1990 223    32    29    3.0      1   0.02     14     14      0     19     28      0    0.0  0.000      0      0  0.000  0.000  0.000  0.000   4.41   0.00   0.00      0      0    128.1   0.00   0.00   0.18   0.32   0.16   0.01   0.00   0.00   0.00   0.00   0.00   0.00   0.00      0      0      0       0       0
 1990 224    33    30    4.0      1   0.03     14     14      0     22     28      0    0.0  0.000      0      0  0.000  0.000  0.000  0.000   4.38   0.00   0.00      0      0    230.1   0.00   0.00   0.20   0.34   0.19   0.02   0.00   0.00   0.00   0.00   0.00   0.00   0.00      0      0      0       0       0
 1990 225    34    31    4.0      1   0.05     14     14      0     26     28      0    0.0  0.000      0      0  0.000  0.000  0.000  0.000   4.33   0.00   0.00      0      0    342.7   0.00   0.00   0.21   0.37   0.23   0.03   0.00   0.00   0.00   0.00   0.00   0.00   0.00      0      0      0       0       1
 1990 226    35    32    4.0      1   0.07     21     14      0     26     35      0    0.0  0.000      0      0  0.000  0.000  0.000  0.000   3.50   0.00   0.00      0      0    317.0   0.00   0.00   0.22   0.37   0.23   0.03   0.00   0.00   0.00   0.00   0.00   0.00   0.00      0      0      0       0       1
 1990 227    36    33    5.0      1   0.07     24     14      0     28     38      0    0.0  0.000      0      0  0.000  0.000  0.000  0.000   3.96   0.00   0.00      0      0    308.3   0.00   0.00   0.23   0.37   0.25   0.04   0.00   0.00   0.00   0.00   0.00   0.00   0.00      0      0      0       0       1
 1990 228    37    34    5.0      1   0.08     28     14      0     35     42      0    0.0  0.000      0      0  0.000  0.000  0.000  0.000   3.88   0.00   0.00      0      0    298.8   0.00   0.00   0.23   0.40   0.31   0.08   0.00   0.00   0.00   0.00   0.00   0.00   0.00      0      0      0       0       1
 1990 229    38    35    5.0      1   0.10     33     14      0     44     47      0    0.0  0.000      0      0  0.000  0.000  0.000  0.000   3.80   0.00   0.00      0      0    288.6   0.00   0.00   0.24   0.44   0.39   0.14   0.00   0.00   0.00   0.00   0.00   0.00   0.00      0      0      0       0       1
 1990 230    39    36    5.0      1   0.11     38     14      0     55     52      0    0.0  0.000      0      0  0.000  0.000  0.000  0.000   3.86   0.00   0.00      0      0    280.7   0.00   0.00   0.25   0.49   0.48   0.20   0.00   0.00   0.00   0.00   0.00   0.00   0.00      0      0      0       0       1
 1990 231    40    37    5.0      1   0.12     44     14      0     63     58      0    0.0  0.000      0      0  0.000  0.000  0.000  0.000   3.75   0.00   0.00      0      0    271.5   0.00   0.00   0.26   0.52   0.54   0.25   0.00   0.00   0.00   0.00   0.00   0.00   0.00      0      0      0       0       1
 1990 232    41    38    5.0      1   0.14     52     14      0     77     66      0    0.0  0.000      0      0  0.000  0.000  0.000  0.000   3.73   0.00   0.00      0      0    262.9   0.00   0.00   0.26   0.58   0.64   0.34   0.00   0.00   0.00   0.00   0.00   0.00   0.00      0      0      0       0       2
 1990 233    42    39    6.0      1   0.15     58     14      0     90     72      0    0.0  0.000      0      0  0.000  0.000  0.000  0.000   3.83   0.00   0.00      0      0    256.8   0.00   0.00   0.27   0.64   0.75   0.43   0.00   0.00   0.00   0.00   0.00   0.00   0.00      0      0      0       0       2
 1990 234    43    40    6.0      1   0.16     64     14      0    102     78      0    0.0  0.000      0      0  0.000  0.000  0.000  0.000   3.86   0.00   0.00      0      0    251.6   0.00   0.00   0.28   0.69   0.83   0.51   0.00   0.00   0.00   0.00   0.00   0.00   0.00      0      0      0       0       3
 1990 235    44    41    6.0      1   0.16     67     14      0    115     81      0    0.0  0.000      0      0  0.000  0.000  0.000  0.000   4.03   0.00   0.00      0      0    243.1   0.00   0.00   0.28   0.74   0.92   0.60   0.00   0.00   0.00   0.00   0.00   0.00   0.00      0      0      0       0       3
 1990 236    45    42    6.0      1   0.16     71     14      0    124     85      0    0.0  0.000      0      0  0.000  0.000  0.000  0.000   3.98   0.00   0.00      0      0    228.2   0.00   0.00   0.28   0.79   0.99   0.66   0.00   0.00   0.00   0.00   0.00   0.00   0.00      0      0      0       0       4
 1990 237    46    43    6.0      1   0.19     83     14      0    135     97      0    0.0  0.000      0      0  0.000  0.000  0.000  0.000   3.63   0.00   0.00      0      0    223.7   0.00   0.00   0.29   0.83   1.06   0.74   0.00   0.00   0.00   0.00   0.00   0.00   0.00      0      0      0       0       4
 1990 238    47    44    7.0      1   0.22     99     14      0    152    113      0    0.0  0.000      0      0  0.000  0.000  0.000  0.000   3.54   0.00   0.00      0      0    218.5   0.00   0.00   0.30   0.90   1.16   0.86   0.00   0.00   0.00   0.00   0.00   0.00   0.00      0      0      0       0       5
 1990 239    48    45    7.0      1   0.23    105     14      0    158    119      0    0.0  0.000      0      0  0.000  0.000  0.000  0.000   3.92   0.00   0.00      0      0    216.3   0.00   0.00   0.31   0.88   1.15   0.87   0.00   0.00   0.00   0.00   0.00   0.00   0.00      0      0      0       0       6
 1990 240    49    46    7.0      1   0.19    105     14      0    162    119      0    0.0  0.000      0      0  0.000  0.000  0.000  0.000   4.11   0.00   0.00      0      0    181.7   0.00   0.00   0.31   0.85   1.13   0.88   0.00   0.00   0.00   0.00   0.00   0.00   0.00      0      0      0       0       7
 1990 241    50    47    7.0      1   0.09    106     14      0    172    120      0    0.0  0.000      0      0  0.000  0.000  0.000  0.189   4.05   0.00   0.00      0      0     87.5   0.00   0.00   0.31   0.85   1.17   0.94   0.00   0.00   0.00   0.00   0.00   0.00   0.00      0      0      0       0       7
 1990 242    51    48    7.0      1   0.10    114     14      0    180    128      0    0.0  0.000      0      0  0.000  0.000  0.000  0.080   3.79   0.00   0.00      0      0     85.2   0.00   0.00   0.31   0.86   1.21   1.00   0.00   0.00   0.00   0.00   0.00   0.00   0.00      0      0      0       0       7
 1990 243    52    49    7.0      1   0.10    116     14      0    180    130      0    0.0  0.000      0      0  0.000  0.000  0.006  0.035   3.76   0.00   0.00      0      0     86.0   0.00   0.00   0.31   0.85   1.21   1.00   0.00   0.00   0.00   0.00   0.00   0.00   0.00      0      0      0       0       7
 1990 244    53    50    7.0      1   0.07    116     14      0    180    130      0    0.0  0.000      0      0  0.000  0.000  0.040  0.000   4.09   0.00   0.00      0      0     62.8   0.00   0.00   0.31   0.85   1.21   1.00   0.00   0.00   0.00   0.00   0.00   0.00   0.00      0      0      0       0       7
 1990 245    54    51    7.0      1   0.02    116     14      0    181    130      0    0.0  0.000      0      0  0.000  0.000  0.000  0.000   4.08   0.00   0.00      0      0     19.7   0.00   0.00   0.31   0.85   1.21   1.00   0.00   0.00   0.00   0.00   0.00   0.00   0.00      0      0      0       0       8
 1990 246    55    52    7.0      1   0.03    121     14      0    181    135      0    0.0  0.000      0      0  0.000  0.000  0.000  0.000   3.93   0.00   0.00      0      0     22.9   0.00   0.00   0.31   0.84   1.21   1.00   0.00   0.00   0.00   0.00   0.00   0.00   0.00      0      0      0       0       8
 1990 247    56    53    7.0      1   0.04    127     14      0    180    141      0    0.0  0.000      0      0  0.000  0.000  0.000  0.000   3.89   0.00   0.00      0      0     30.8   0.00   0.00   0.32   0.84   1.20   1.00   0.00   0.00   0.00   0.00   0.00   0.00   0.00      0      0      0       0       9
 1990 248    57    54    7.0      1   0.06    129     14      0    180    143      0    0.0  0.000      0      0  0.000  0.000  0.000  0.000   4.00   0.00   0.00      0      0     48.5   0.00   0.00   0.32   0.84   1.20   1.00   0.00   0.00   0.00   0.00   0.00   0.00   0.00      0      0      0       0      10
 1990 249    58    55    7.0      1   0.07    132     14      0    179    146      0    0.0  0.000      0      0  0.000  0.000  0.000  0.000   3.96   0.00   0.00      0      0     51.6   0.00   0.00   0.33   0.83   1.20   1.00   0.00   0.00   0.00   0.00   0.00   0.00   0.00      0      0      0       0      11
 1990 250    59    56    8.0      1   0.07    136     14      0    179    150      0    0.0  0.000      0      0  0.000  0.000  0.000  0.000   3.94   0.00   0.00      0      0     55.0   0.00   0.00   0.33   0.83   1.20   1.00   0.00   0.00   0.00   0.00   0.00   0.00   0.00      0      0      0       0      12
 1990 251    60    57    8.0      1   0.08    138     14      0    179    152      0    0.0  0.000      0      0  0.000  0.000  0.000  0.000   3.95   0.00   0.00      0      0     57.6   0.00   0.00   0.34   0.79   1.14   0.95   0.00   0.00   0.00   0.00   0.00   0.00   0.00      0      0      0       0      13
 1990 252    61    58    8.0      1   0.12    158     14      0    182    172      0    0.0  0.000      0      0  0.000  0.000  0.000  0.150   3.55   0.00   0.00      0      0     73.2   0.00   0.00   0.35   0.77   1.12   0.95   0.01   0.00   0.00   0.00   0.00   0.00   0.00      0      0      0       0      14
 1990 253    62    59    8.0      1   0.15    179     14      0    184    193      0    0.0  0.000      0      0  0.000  0.000  0.000  0.133   3.54   0.00   0.00      0      0     85.8   0.00   0.00   0.37   0.77   1.12   0.96   0.01   0.00   0.00   0.00   0.00   0.00   0.00      0      0      0       0      15
 1990 254    63    60    8.0      1   0.18    195     14      0    187    209      0    0.0  0.000      0      0  0.000  0.000  0.000  0.278   3.63   0.00   0.00      0      0     93.7   0.00   0.00   0.38   0.72   1.07   0.92   0.01   0.00   0.00   0.00   0.00   0.00   0.00      0      0      0       0      16
 1990 255    64    61    8.0      1   0.21    214     14      0    189    228      0    0.0  0.000      0      0  0.000  0.000  0.000  0.188   3.62   0.00   0.00      0      0    100.1   0.00   0.00   0.38   0.70   1.04   0.91   0.02   0.00   0.00   0.00   0.00   0.00   0.00      0      0      0       0      16
 1990 256    65    62    9.0      1   0.21    228     14      0    191    242      0    0.0  0.000      0      0  0.000  0.000  0.000  0.114   3.71   0.00   0.00      0      0     93.1   0.00   0.00   0.38   0.69   1.03   0.91   0.02   0.00   0.00   0.00   0.00   0.00   0.00      0      0      0       0      17
 1990 257    66    63    9.0      1   0.17    250     14      0    194    264      0    0.0  0.000      0      0  0.000  0.000  0.000  0.039   3.62   0.00   0.00      0      0     69.4   0.00   0.00   0.39   0.68   1.04   0.93   0.03   0.00   0.00   0.00   0.00   0.00   0.00      0      0      0       0      18
 1990 258    67    64    9.0      1   0.18    284     14      0    200    298      0    0.0  0.000      0      0  0.000  0.000  0.000  0.000   3.48   0.00   0.00      0      0     63.3   0.00   0.00   0.39   0.69   1.07   0.98   0.04   0.00   0.00   0.00   0.00   0.00   0.00      0      0      0       0      19
 1990 259    68    65    9.0      1   0.22    308     14      0    213    322      0    0.0  0.000      0      0  0.000  0.000  0.000  0.000   3.62   0.00   0.00      0      0     70.2   0.00   0.00   0.40   0.71   1.13   1.07   0.07   0.00   0.00   0.00   0.00   0.00   0.00      0      0      0       0      20
 1990 260    69    66    9.0      1   0.25    329     14      0    218    343      0    0.0  0.000      0      0  0.000  0.000  0.000  0.000   3.66   0.00   0.00      0      0     75.2   0.00   0.00   0.41   0.72   1.15   1.11   0.08   0.00   0.00   0.00   0.00   0.00   0.00      0      0      0       0      21
 1990 261    70    67    9.0      2   0.29    328     14      0    234    342      0    0.0  0.000      0      0  0.000  0.000  0.000  0.000   3.90   0.00   0.00      0      0     87.5   0.00   0.00   0.42   0.69   1.15   1.16   0.12   0.00   0.00   0.00   0.00   0.00   0.00      0      0      0       0      23
 1990 262    71    68    9.0      2   0.32    352     14      0    249    366      0    0.0  0.000      0      0  0.000  0.000  0.002  0.000   3.64   0.00   0.00      0      0     92.3   0.00   0.00   0.43   0.67   1.17   1.23   0.16   0.00   0.00   0.00   0.00   0.00   0.00      0      0      0       0      24
 1990 263    72    69   10.0      2   0.36    373     14      0    251    387      0    0.0  0.000      0      0  0.000  0.000  0.000  0.135   3.61   0.00   0.00      0      0     95.8   0.00   0.00   0.44   0.66   1.16   1.24   0.16   0.00   0.00   0.00   0.00   0.00   0.00      0      0      0       0      25
 1990 264    73    70   10.0      2   0.39    395     14      0    255    409      0    0.0  0.000      0      0  0.000  0.000  0.000  0.067   3.78   0.00   0.00      0      0     99.2   0.00   0.00   0.45   0.65   1.16   1.25   0.17   0.00   0.00   0.00   0.00   0.00   0.00      0      0      0       0      26
 1990 265    74    71   10.0      3   0.43    424     14      0    298    438      0    0.0  0.000      0      0  0.000  0.000  0.022  0.000   3.68   0.00   0.00      0      0    101.0   0.00   0.00   0.46   0.69   1.32   1.54   0.30   0.01   0.00   0.00   0.00   0.00   0.00      0      0      0       0      27
 1990 266    75    72   10.0      3   0.44    433     14      0    323    447      0    0.0  0.000      0      0  0.000  0.000  0.022  0.000   3.66   0.00   0.00      0      0    101.6   0.00   0.00   0.46   0.71   1.40   1.71   0.38   0.01   0.00   0.00   0.00   0.00   0.00      0      0      0       0      29
 1990 267    76    73   10.0      3   0.42    444     14      0    357    459      0    0.0  0.000      0      0  0.000  0.000  0.022  0.000   3.65   0.00   0.00      0      0     94.7   0.00   0.00   0.46   0.75   1.52   1.94   0.48   0.02   0.00   0.00   0.00   0.00   0.00      0      0      0       0      31
 1990 268    77    74   10.0      3   0.40    458     14      0    397    473      0    0.0  0.000      0      0  0.000  0.000  0.022  0.000   3.63   0.00   0.00      0      0     88.2   0.00   0.00   0.47   0.80   1.65   2.20   0.60   0.03   0.00   0.00   0.00   0.00   0.00      0      0      0       0      32
 1990 269    78    75   10.0      3   0.44    489     14      0    451    503      0    0.0  0.000      0      0  0.000  0.000  0.022  0.000   3.56   0.00   0.00      0      0     91.0   0.00   0.00   0.48   0.87   1.84   2.55   0.76   0.05   0.00   0.00   0.00   0.00   0.00      0      0      0       0      34
 1990 270    79    76   11.0      3   0.51    538     15      0    493    553      0    0.0  0.000      0      0  0.000  0.000  0.022  0.001   3.53   0.00   0.00      0      0     95.6   0.00   0.00   0.49   0.94   1.98   2.81   0.88   0.08   0.00   0.00   0.00   0.00   0.00      0      0      0       0      37
 1990 271    80    77   11.0      3   0.58    582     16      0    493    598      0    0.0  0.000      0      0  0.000  0.000  0.022  0.001   3.50   0.00   0.00      0      0     98.8   0.00   0.00   0.50   0.93   1.97   2.80   0.88   0.08   0.00   0.00   0.00   0.00   0.00      0      0      0       0      39
 1990 272    81    78   11.0      3   0.64    631     17      0    543    648      0    0.0  0.000      0      0  0.000  0.000  0.022  0.000   3.47   0.00   0.00      0      0    101.6   0.00   0.00   0.51   1.01   2.13   3.11   1.02   0.13   0.00   0.00   0.00   0.00   0.00      0      0      0       0      42
 1990 273    82    79   11.0      3   0.71    685     19      0    596    705      0    0.0  0.000      0      0  0.000  0.000  0.022  0.000   3.44   0.00   0.00      0      0    104.1   0.00   0.00   0.52   1.10   2.31   3.44   1.17   0.19   0.00   0.00   0.00   0.00   0.00      0      0      0       0      44
 1990 274    83    80   12.0      3   0.84    779     25      0    646    804      0    0.0  0.000      0      0  0.000  0.000  0.022  0.000   3.41   0.00   0.00      0      0    107.3   0.00   0.00   0.54   1.18   2.47   3.74   1.31   0.27   0.00   0.00   0.00   0.00   0.00      0      0      0       0      47
 1990 275    84    81   12.0      3   0.93    855     30      0    729    886      0    0.0  0.000      0      0  0.000  0.000  0.022  0.000   3.37   0.00   0.00      0      0    109.1   0.00   0.00   0.55   1.31   2.73   4.00   1.55   0.41   0.00   0.00   0.00   0.00   0.00      0      0      0       0      50
 1990 276    85    82   12.0      3   1.05    949     40      0    798    988      0    0.0  0.000      0      0  0.000  0.000  0.022  0.000   3.34   0.00   0.00      0      0    110.7   0.00   0.00   0.56   1.42   2.94   4.00   1.75   0.54   0.00   0.00   0.00   0.00   0.00      0      0      0       0      54
 1990 277    86    83   13.0      3   1.20   1075     57      0    831   1132      0    0.0  0.000      0      0  0.000  0.000  0.022  0.000   3.29   0.00   0.00      0      0    112.1   0.00   0.00   0.58   1.46   3.03   4.00   1.85   0.62   0.00   0.00   0.00   0.00   0.00      0      0      0       0      58
 1990 278    87    84   13.0      3   1.29   1147     69      0    832   1216      0    0.0  0.000      0      0  0.000  0.000  0.022  0.000   3.26   0.00   0.00      0      0    112.5   0.00   0.00   0.60   1.46   3.03   4.00   1.85   0.63   0.00   0.00   0.00   0.00   0.00      0      0      0       0      62
 1990 279    88    85   13.0      3   1.40   1244     89      0    834   1333      0    0.0  0.000      0      0  0.000  0.000  0.022  0.000   3.23   0.00   0.00      0      0    112.8   0.00   0.00   0.61   1.46   3.03   4.00   1.86   0.64   0.00   0.00   0.00   0.00   0.00      0      0      0       0      66
 1990 280    89    86   13.0      3   1.49   1319    107      0    835   1426      0    0.0  0.000      0      0  0.000  0.000  0.022  0.000   3.19   0.00   0.00      0      0    112.9   0.00   0.00   0.62   1.44   3.00   3.97   1.85   0.65   0.00   0.00   0.00   0.00   0.00      0      0      0       0      71
 1990 281    90    87   14.0      3   1.57   1391    127      0    870   1517      0    0.0  0.000      0      0  0.000  0.000  0.022  0.114   3.16   0.00   0.00      0      0    112.9   0.00   0.00   0.64   1.35   2.89   3.91   1.86   0.72   0.01   0.00   0.00   0.00   0.00      0      0      0       0      75
 1990 282    91    88   14.0      3   1.64   1459    147      0   1000   1606      0    0.0  0.000      0      0  0.000  0.000  0.022  0.052   3.14   0.00   0.00      0      0    112.7   0.00   0.00   0.64   1.31   3.00   4.00   2.20   1.09   0.05   0.00   0.00   0.00   0.00      0      0      0       0      79
 1990 283    92    89   14.0      3   1.73   1535    173      0   1107   1708      0    0.0  0.000      0      0  0.000  0.000  0.022  0.022   3.12   0.00   0.00      0      0    112.6   0.00   0.00   0.65   1.29   3.08   4.00   2.50   1.42   0.09   0.00   0.00   0.00   0.00      0      0      0       0      84
 1990 284    93    90   14.0      3   1.83   1625    207      0   1111   1832      0    0.0  0.000      0      0  0.000  0.000  0.022  0.013   3.09   0.00   0.00      0      0    112.4   0.00   0.00   0.67   1.26   3.03   3.95   2.47   1.42   0.09   0.00   0.00   0.00   0.00      0      0      0       0      90
 1990 285    94    91   15.0      3   1.89   1688    233      0   1268   1921      0    0.0  0.000      0      0  0.000  0.000  0.022  0.085   3.07   0.00   0.00      0      0    112.1   0.00   0.00   0.67   1.20   2.96   4.00   2.83   1.91   0.19   0.00   0.00   0.00   0.00      0      0      0       0      95
 1990 286    95    92   15.0      3   1.95   1747    259      0   1435   2006      0    0.0  0.000      0      0  0.000  0.000  0.022  0.061   3.05   0.00   0.00      0      0    111.8   0.00   0.00   0.68   1.17   2.94   4.00   3.30   2.51   0.33   0.00   0.00   0.00   0.00      0      0      0       0     102
 1990 287    96    93   15.0      3   2.04   1828    298      0   1574   2127      0    0.0  0.000      0      0  0.000  0.000  0.022  0.034   3.02   0.00   0.00      0      0    111.5   0.00   0.00   0.69   1.17   2.92   4.00   3.71   3.05   0.47   0.00   0.00   0.00   0.00      0      0      0       0     109
 1990 288    97    94   15.0      3   2.10   1887    329      0   1738   2216      0    0.0  0.000      0      0  0.000  0.000  0.022  0.011   3.00   0.00   0.00      0      0    111.2   0.00   0.00   0.70   1.18   2.91   4.00   4.00   3.74   0.68   0.00   0.00   0.00   0.00      0      0      0       0     117
 1990 289    98    95   15.0      3   2.13   1936    355      0   1919   2291      0    0.0  0.000      0      0  0.000  0.000  0.022  0.009   2.99   0.00   0.00      0      0    110.1   0.00   0.00   0.70   1.21   2.91   4.00   4.00   4.00   0.93   0.00   0.00   0.00   0.00      0      0      0       0     125
 1990 290    99    96   15.0      3   2.20   2001    393      0   1988   2394      0    0.0  0.000      0      0  0.000  0.000  0.022  0.009   2.97   0.00   0.00      0      0    109.8   0.00   0.00   0.71   1.22   2.89   4.00   4.00   4.00   1.04   0.00   0.00   0.00   0.00      0      0      0       0     135
 1990 291   100    97   16.0      3   2.30   2106    461      0   2106   2567      0    0.0  0.000      0      0  0.000  0.000  0.022  0.006   2.94   0.00   0.00      0      0    109.4   0.00   0.00   0.73   1.25   2.90   4.00   4.00   4.00   1.25   0.00   0.00   0.00   0.00      0      0      0       0     145
 1990 292   101    98   16.0      3   2.41   2215    538      0   2155   2752      0    0.0  0.000      0      0  0.000  0.000  0.022  0.002   2.90   0.00   0.00      0      0    109.0   0.00   0.00   0.74   1.26   2.91   4.00   4.00   4.00   1.37   0.00   0.00   0.00   0.00      0      0      0       0     155
 1990 293   102    99   16.0      3   2.53   2325    624      0   2194   2949      0    0.0  0.000      0      0  0.000  0.000  0.022  0.000   2.86   0.00   0.00      0      0    108.6   0.00   0.00   0.75   1.27   2.91   4.00   4.00   4.00   1.47   0.00   0.00   0.00   0.00      0      0      0       0     166
 1990 294   103   100   17.0      3   2.63   2431    713      0   2287   3144      0    0.0  0.000      0      0  0.000  0.000  0.022  0.000   2.78   0.00   0.00      0      0    108.2   0.00   0.00   0.76   1.32   2.95   4.00   4.00   4.00   1.72   0.00   0.00   0.00   0.00      0      0      0       0     177
 1990 295   104   101   17.0      3   2.73   2536    810      0   2424   3346      0    0.0  0.000      0      0  0.000  0.000  0.022  0.000   2.68   0.00   0.00      0      0    107.7   0.00   0.00   0.78   1.41   3.04   4.00   4.00   4.00   2.12   0.00   0.00   0.00   0.00      0      0      0       0     189
 1990 296   105   102   17.0      3   2.84   2646    920      0   2498   3565      0    0.0  0.000      0      0  0.000  0.000  0.022  0.000   2.58   0.00   0.00      0      0    107.3   0.00   0.00   0.79   1.48   3.09   4.00   4.00   4.00   2.37   0.00   0.00   0.00   0.00      0      0      0       0     201
 1990 297   106   103   17.0      3   2.93   2743   1024      0   2579   3767      0    0.0  0.000      0      0  0.000  0.000  0.022  0.000   2.50   0.00   0.00      0      0    106.8   0.00   0.00   0.80   1.57   3.18   4.00   4.00   4.00   2.66   0.00   0.00   0.00   0.00      0      0      0       0     213
 1990 298   107   104   18.0      3   3.02   2843   1138      0   2594   3981      0    0.0  0.000      0      0  0.000  0.000  0.026  0.000   2.41   0.00   0.00      0      0    106.3   0.00   0.00   0.81   1.61   3.20   4.00   4.00   4.00   2.75   0.00   0.00   0.00   0.00      0      0      0       0     226
 1990 299   108   105   18.0      3   3.25   3075   1332      0   2604   4407      0    0.0  0.000      0      0  0.000  0.000  0.028  0.000   2.21   0.00   0.00      0      0    105.5   0.00   0.00   0.83   1.64   3.23   4.00   4.00   4.00   2.81   0.00   0.00   0.00   0.00      0      0      0       0     239
 1990 300   109   106   18.0      3   3.38   3224   1520      0   2610   4743      0    0.0  0.000      0      0  0.000  0.000  0.032  0.000   2.08   0.00   0.00      0      0    104.9   0.00   0.00   0.84   1.68   3.26   4.00   3.99   4.00   2.86   0.00   0.00   0.00   0.00      0      0      0       0     252
 1990 301   110   107   19.0      3   3.42   3282   1611      0   2605   4893      0    0.0  0.000      0      0  0.000  0.000  0.042  0.000   2.05   0.00   0.00      0      0    104.2   0.00   0.00   0.86   1.69   3.27   4.00   3.98   3.99   2.87   0.00   0.00   0.00   0.00      0      0      0       0     265
 1990 302   111   108   19.0      3   3.47   3355   1745      0   2604   5100      0    0.0  0.000      0      0  0.000  0.000  0.050  0.000   1.98   0.00   0.00      0      0    103.4   0.00   0.00   0.88   1.72   3.29   4.00   3.98   3.98   2.87   0.00   0.00   0.00   0.00      0      0      0       0     278
 1990 303   112   109   20.0      3   3.55   3463   1969      0   2674   5432      0    0.0  0.000      0      0  0.000  0.000  0.051  0.000   1.88   0.00   0.00      0      0    102.6   0.00   0.00   0.89   2.03   3.59   4.00   4.00   4.00   2.95   0.00   0.00   0.00   0.00      0      0      0       0     291
 1990 304   113   110   20.0      3   3.60   3538   2135      0   2791   5673      0    0.0  0.000      0      0  0.000  0.000  0.055  0.000   1.81   0.00   0.00      0      0    101.8   0.00   0.00   0.91   2.51   4.00   4.00   4.00   4.00   3.10   0.00   0.00   0.00   0.00      0      0      0       0     304
 1990 305   114   111   20.0      3   3.64   3611   2310      0   2870   5921      0    0.0  0.000      0      0  0.000  0.000  0.064  0.000   1.75   0.00   0.00      0      0    100.9   0.00   0.00   0.92   2.76   4.00   4.00   4.00   4.00   3.16   0.24   0.00   0.00   0.00      0      0      0       0     318
 1990 306   115   112   21.0      3   3.68   3680   2485      0   2921   6165      0    0.0  0.000      0      0  0.000  0.000  0.069  0.000   1.70   0.00   0.00      0      0    100.0   0.00   0.00   0.93   2.91   4.00   4.00   4.00   4.00   3.20   0.48   0.00   0.00   0.00      0      0      0       0     333
 1990 307   116   113   21.0      3   3.70   3733   2629      0   2917   6363      0    0.0  0.000      0      0  0.000  0.000  0.071  0.000   1.68   0.00   0.00      0      0     99.0   0.00   0.00   0.95   2.92   4.00   4.00   3.99   3.99   3.19   0.52   0.00   0.00   0.00      0      0      0       0     347
 1990 308   117   114   21.0      3   3.70   3775   2745      0   3019   6520      0    0.0  0.000      0      0  0.000  0.000  0.075  0.000   1.66   0.00   0.00      0      0     98.1   0.00   0.00   0.96   3.17   4.00   4.00   4.00   4.00   3.26   1.04   0.00   0.00   0.00      0      0      0       0     362
 1990 309   118   115   21.0      3   3.69   3797   2812      0   3226   6609      0    0.0  0.000      0      0  0.000  0.000  0.078  0.000   1.65   0.00   0.00      0      0     97.1   0.00   0.00   0.96   3.66   4.00   4.00   4.00   4.00   3.40   2.00   0.00   0.00   0.00      0      0      0       0     377
 1990 310   119   116   21.0      3   3.68   3832   2912      0   3304   6744      0    0.0  0.000      0      0  0.000  0.000  0.080  0.012   1.63   0.00   0.00      0      0     96.1   0.00   0.00   0.97   3.86   4.00   4.00   4.00   4.00   3.45   2.38   0.00   0.00   0.00      0      0      0       0     393
 1990 311   120   117   21.0      3   3.69   3880   3053      0   3409   6933      0    0.0  0.000      0      0  0.000  0.000  0.079  0.000   1.61   0.00   0.00      0      0     95.2   0.00   0.00   0.98   4.00   4.00   4.00   4.00   4.00   3.53   2.88   0.00   0.00   0.00      0      0      0       0     410
 1990 312   121   118   21.0      3   3.68   3911   3145      0   3408   7056      0    0.0  0.000      0      0  0.000  0.000  0.080  0.000   1.59   0.00   0.00      0      0     94.2   0.00   0.00   0.98   4.00   4.00   4.00   4.00   3.99   3.52   2.93   0.00   0.00   0.00      0      0      0       0     427
 1990 313   122   119   21.0      3   3.69   3960   3287      0   3444   7246      0    0.0  0.000      0      0  0.000  0.000  0.083  0.000   1.56   0.00   0.00      0      0     93.3   0.00   0.00   0.99   4.00   4.00   4.00   4.00   4.00   3.54   3.11   0.00   0.00   0.00      0      0      0       0     444
 1990 314   123   120   21.0      3   3.70   4011   3436      0   3522   7447      0    0.0  0.000      0      0  0.000  0.000  0.083  0.000   1.53   0.00   0.00      0      0     92.3   0.00   0.00   1.01   4.00   4.00   4.00   4.00   4.00   3.60   3.43   0.00   0.00   0.00      0      0      0       0     461
 1990 315   124   121   21.0      3   3.72   4071   3609      0   3605   7680      0    0.0  0.000      0      0  0.000  0.000  0.085  0.000   1.49   0.00   0.00      0      0     91.4   0.00   0.00   1.02   4.00   4.00   4.00   4.00   4.00   3.67   3.74   0.00   0.00   0.00      0      0      0       0     479
 1990 316   125   122   21.0      3   3.73   4123   3758      0   3598   7881      0    0.0  0.000      0      0  0.000  0.000  0.088  0.000   1.47   0.00   0.00      0      0     90.4   0.00   0.00   1.03   4.00   4.00   4.00   3.99   3.99   3.66   3.76   0.00   0.00   0.00      0      0      0       0     497
 1990 317   126   123   21.0      3   3.76   4207   3999      0   3662   8206      0    0.0  0.000      0      0  0.000  0.000  0.091  0.000   1.42   0.00   0.00      0      0     89.5   0.00   0.00   1.05   4.00   4.00   4.00   4.00   4.00   3.72   3.95   0.00   0.00   0.00      0      0      0       0     515
 1990 318   127   124   21.0      4   3.72   4162   3408      0   3655   8429      0    0.0  0.000    859      0  0.000  0.000  0.092  0.000   1.55   0.00   0.10      0    859     89.4   0.00   0.00   1.06   4.00   4.00   4.00   3.99   3.99   3.71   3.95   0.00   0.00   0.00      0      0      0       0     533
 1990 319   128   125   21.0      4   3.68   4114   3449      0   3643   8525      0    0.0  0.000    962      0  0.000  0.000  0.096  0.000   1.56   0.00   0.11      0    962     89.3   0.00   0.00   1.08   4.00   4.00   4.00   3.98   3.98   3.69   3.94   0.00   0.00   0.00      0      0      0       0     551
 1990 320   129   126   21.0      4   3.64   4065   3495      0   3709   8638      0    0.0  0.000   1078      0  0.000  0.000  0.071  0.000   1.57   0.00   0.12      0   1078     89.6   0.00   0.00   1.09   4.00   4.00   4.00   4.00   4.00   3.77   3.99   0.00   0.00   0.00      0      0      0       0     569
 1990 321   130   127   21.0      4   3.61   4014   3545      0   3872   8761      0    0.0  0.000   1202      0  0.000  0.000  0.067  0.000   1.57   0.00   0.14      0   1202     90.0   0.00   0.00   1.09   4.00   4.00   4.00   4.00   4.00   3.94   4.00   0.11   0.00   0.00      0      0      0       0     588
 1990 322   131   128   21.0      4   3.58   3959   3623      0   3977   8981      0    0.0  0.000   1399      0  0.000  0.000  0.062  0.008   1.58   0.00   0.16      0   1399     90.5   0.00   0.00   1.10   4.00   4.00   4.00   4.00   4.00   4.00   4.00   0.24   0.00   0.00      0      0      0       0     607
 1990 323   132   129   21.0      4   3.56   3900   3727      0   4032   9286      0    0.0  0.000   1658      0  0.000  0.000  0.056  0.000   1.58   0.00   0.18      0   1658     91.2   0.00   0.00   1.12   4.00   4.00   4.00   4.00   4.00   4.00   4.00   0.35   0.00   0.00      0      0      0       0     627
 1990 324   133   130   21.0      4   3.54   3838   3788      0   4021   9437      0    0.0  0.000   1810      0  0.000  0.000  0.052  0.000   1.59   0.00   0.19      0   1810     92.1   0.00   0.00   1.13   4.00   4.00   4.00   3.99   3.99   3.99   3.99   0.36   0.00   0.00      0      0      0       0     647
 1990 325   134   131   21.0      4   3.51   3773   3873      0   4143   9670      0    0.0  0.000   2024      0  0.000  0.000  0.048  0.000   1.60   0.00   0.21      0   2024     93.1   0.00   0.00   1.14   4.00   4.00   4.00   4.00   4.00   4.00   4.00   0.65   0.00   0.00      0      0      0       0     667
 1990 326   135   132   21.0      4   3.50   3705   3948      0   4260   9864      0    0.0  0.000   2211      0  0.000  0.000  0.044  0.000   1.75   0.00   0.22      0   2211     94.3   0.00   0.00   1.15   4.00   4.00   4.00   4.00   4.00   3.99   3.99   0.68   0.00   0.00      0      0      0       0     688
 1990 327   136   133   21.0      4   3.48   3634   4024      0   4396  10057      0    0.0  0.000   2399      0  0.000  0.000  0.029  0.000   1.80   0.00   0.24      0   2399     95.8   0.00   0.00   1.16   4.00   4.00   4.00   4.00   4.00   3.99   3.98   0.73   0.00   0.00      0      0      0       0     710
 1990 328   137   134   21.0      4   3.47   3561   4109      0   4474  10283      0    0.0  0.000   2613      0  0.000  0.000  0.023  0.000   1.82   0.00   0.25      0   2613     97.5   0.00   0.00   1.17   4.00   4.00   4.00   4.00   4.00   3.99   3.98   0.77   0.00   0.00      0      0      0       0     731
 1990 329   138   135   21.0      5   3.47   3561   4109    272   4483  10556   3633    7.5  0.026   2886      7  0.000  0.000  0.000  0.000   1.77   9.44   0.27      0   2886     97.5   0.00   0.00   1.18   4.00   4.00   4.00   4.00   4.00   3.99   3.97   0.81   0.00   0.00      0      0      0       0     754
 1990 330   139   136   21.0      5   3.47   3561   4109    497   4518  10780   3633   13.7  0.046   3111      7  0.000  0.000  0.006  0.000   1.73  15.99   0.29      0   3111     97.5   0.00   0.00   1.19   4.00   4.00   4.00   4.00   4.00   4.00   3.99   0.92   0.00   0.00      0      0      0       0     776
 1990 331   140   137   21.0      5   3.46   3561   4109    617   4615  10900   3633   17.0  0.057   3230      7  0.000  0.000  0.013  0.000   1.71  19.10   0.30      0   3230     97.3   0.00   0.00   1.19   4.00   4.00   4.00   4.00   4.00   4.00   4.00   1.15   0.00   0.00      0      0      0       0     799
 1990 332   141   138   21.0      5   3.46   3561   4109    763   4708  11046   3633   21.0  0.069   3376      7  0.000  0.000  0.013  0.000   1.69  22.60   0.31      0   3376     97.1   0.00   0.00   1.20   4.00   4.00   4.00   4.00   4.00   4.00   4.00   1.36   0.00   0.00      0      0      0       0     822
 1990 333   142   139   21.0      5   3.45   3561   4109    973   4784  11256   3633   26.8  0.086   3586      7  0.000  0.000  0.014  0.000   1.65  27.12   0.32      0   3586     97.0   0.00   0.00   1.21   4.00   4.00   4.00   4.00   4.00   4.00   4.00   1.52   0.00   0.00      0      0      0       0     845
 1990 334   143   140   21.0      5   3.44   3561   4109   1209   4774  11492   3633   33.3  0.105   3822      7  0.000  0.000  0.018  0.000   1.61  31.62   0.33      0   3822     96.7   0.00   0.00   1.21   4.00   4.00   4.00   4.00   4.00   3.99   3.99   1.53   0.00   0.00      0      0      0       0     869
 1990 335   144   141   21.0      5   3.43   3561   4109   1438   4807  11721   3633   39.6  0.123   4051      7  0.000  0.000  0.024  0.000   1.56  35.49   0.35      0   4051     96.5   0.00   0.00   1.22   4.00   4.00   4.00   4.00   4.00   4.00   4.00   1.60   0.00   0.00      0      0      0       0     893
 1990 336   145   142   21.0      5   3.42   3561   4092   1628   4783  11894   3633   44.8  0.137   4242      7  0.000  0.000  0.031  0.000   1.54  38.39   0.36      0   4242     96.1   0.00   0.00   1.22   4.00   4.00   4.00   4.00   4.00   4.00   4.00   1.60   0.00   0.00      0      0      0       0     917
 1990 337   146   143   21.0      5   3.40   3561   4109   1782   4864  12065   3633   49.1  0.148   4396      7  0.000  0.000  0.037  0.000   1.51  40.55   0.36      0   4396     95.6   0.00   0.00   1.23   4.00   4.00   4.00   4.00   4.00   4.00   4.00   1.68   0.00   0.00      0      0      0       0     941
 1990 338   147   144   21.0      5   3.39   3561   4109   1983   4927  12266   3633   54.6  0.162   4596      7  0.000  0.000  0.037  0.000   1.47  43.14   0.37      0   4596     95.2   0.00   0.00   1.24   4.00   4.00   4.00   4.00   4.00   4.00   4.00   1.72   0.00   0.00      0      0      0       0     966
 1990 339   148   145   21.0      5   3.37   3561   4109   2255   4915  12538   3633   62.1  0.180   4869      7  0.000  0.000  0.040  0.000   1.42  46.32   0.39      0   4869     94.7   0.00   0.00   1.25   4.00   4.00   4.00   4.00   3.99   3.99   3.99   1.72   0.00   0.00      0      0      0       0     990
 1990 340   149   146   21.0      5   3.35   3561   4109   2507   4906  12790   3633   69.0  0.196   5120      7  0.000  0.000  0.050  0.000   1.38  48.96   0.40      0   5120     94.1   0.00   0.00   1.25   4.00   4.00   4.00   4.00   4.00   3.99   3.98   1.71   0.00   0.00      0      0      0       0    1015
 1990 341   150   147   21.0      5   3.33   3561   4109   2737   4950  13020   3633   75.3  0.210   5350      7  0.000  0.000  0.058  0.000   1.34  51.16   0.41      0   5350     93.4   0.00   0.00   1.25   4.00   4.00   4.00   4.00   4.00   4.00   4.00   1.73   0.00   0.00      0      0      0       0    1039
 1990 342   151   148   21.0      5   3.30   3561   4109   2921   5019  13204   3633   80.4  0.221   5534      7  0.000  0.000  0.067  0.062   1.31  52.78   0.42      0   5534     92.7   0.00   0.00   1.25   4.00   4.00   4.00   4.00   4.00   4.00   4.00   1.76   0.00   0.00      0      0      0       0    1064
 1990 343   152   149   21.0      5   3.27   3561   4109   3071   4998  13354   3633   84.5  0.230   5684      7  0.000  0.000  0.073  0.086   1.29  54.02   0.43      0   5684     91.8   0.00   0.00   1.25   3.99   3.99   3.99   3.98   3.98   3.98   3.98   1.75   0.00   0.00      0      0      0       0    1089
 1990 344   153   150   21.0      5   3.24   3561   4109   3237   4973  13520   3633   89.1  0.239   5850      7  0.000  0.000  0.076  0.436   1.26  55.33   0.43      0   5850     90.9   0.00   0.00   1.25   3.99   3.99   3.99   3.98   3.98   3.98   3.98   1.75   0.00   0.00      0      0      0       0    1114
 1990 345   154   151   21.0      5   3.21   3561   4109   3451   5007  13734   3633   95.0  0.251   6064      7  0.000  0.000  0.080  0.235   1.23  56.90   0.44      0   6064     90.0   0.00   0.00   1.25   4.00   4.00   4.00   3.99   3.98   3.97   3.95   1.74   0.00   0.00      0      0      0       0    1139
 1990 346   155   152   21.0      5   3.17   3561   4109   3585   5014  13868   3633   98.7  0.258   6198      7  0.000  0.000  0.090  0.127   1.21  57.84   0.45      0   6198     89.0   0.00   0.00   1.25   4.00   4.00   4.00   4.00   4.00   3.98   3.95   1.74   0.00   0.00      0      0      0       0    1164
 1990 347   156   153   21.0      5   3.13   3561   4109   3783   5024  14066   3633  104.1  0.269   6396      7  0.000  0.000  0.092  0.046   1.18  59.14   0.45      0   6396     88.0   0.00   0.00   1.25   4.00   4.00   4.00   4.00   4.00   4.00   3.96   1.75   0.00   0.00      0      0      0       0    1189
 1990 348   157   154   21.0      5   3.09   3561   4109   3914   5095  14197   3633  107.7  0.276   6527      7  0.000  0.000  0.100  0.004   1.16  59.96   0.46      0   6527     86.9   0.00   0.00   1.25   4.00   4.00   4.00   4.00   4.00   4.00   4.00   1.78   0.00   0.00      0      0      0       0    1214
 1990 349   158   155   21.0      5   3.06   3561   4109   4111   5160  14394   3633  113.1  0.286   6724      7  0.000  0.000  0.101  0.000   1.13  61.14   0.47      0   6724     85.8   0.00   0.00   1.25   4.00   4.00   4.00   4.00   4.00   4.00   4.00   1.80   0.00   0.00      0      0      0       0    1240
 1990 350   159   156   21.0      5   3.02   3561   4109   4371   5194  14654   3633  120.3  0.298   6984      7  0.000  0.000  0.105  0.000   1.10  62.58   0.48      0   6984     84.7   0.00   0.00   1.25   4.00   4.00   4.00   4.00   4.00   4.00   4.00   1.82   0.00   0.00      0      0      0       0    1265
 1990 351   160   157   21.0      5   2.97   3561   4085   4644   5168  14902   3633  127.8  0.312   7257      7  0.000  0.000  0.114  0.000   1.06  63.99   0.49      0   7257     83.5   0.00   0.00   1.25   4.00   4.00   4.00   4.00   4.00   4.00   4.00   1.82   0.00   0.00      0      0      0       0    1291
 1990 352   161   158   21.0      5   2.93   3561   4109   4893   5196  15176   3633  134.7  0.322   7506      7  0.000  0.000  0.125  0.000   1.02  65.18   0.49      0   7506     82.2   0.00   0.00   1.25   4.00   4.00   4.00   4.00   4.00   4.00   4.00   1.83   0.00   0.00      0      0      0       0    1317
 1990 353   162   159   21.0      5   2.88   3561   4109   5110   5247  15393   3633  140.6  0.332   7723      7  0.000  0.000  0.133  0.000   0.99  66.16   0.50      0   7723     80.8   0.00   0.00   1.25   4.00   4.00   4.00   4.00   4.00   4.00   4.00   1.85   0.00   0.00      0      0      0       0    1343
 1990 354   163   160   21.0      5   2.83   3561   4109   5339   5294  15622   3633  147.0  0.342   7952      7  0.000  0.000  0.143  0.019   0.96  67.14   0.51      0   7952     79.4   0.00   0.00   1.25   4.00   4.00   4.00   4.00   4.00   4.00   4.00   1.87   0.00   0.00      0      0      0       0    1369
 1990 355   164   161   21.0      5   2.77   3561   4109   5612   5303  15895   3633  154.5  0.353   8225      7  0.000  0.000  0.150  0.000   0.93  68.23   0.52      0   8225     77.9   0.00   0.00   1.25   4.00   4.00   4.00   4.00   4.00   4.00   4.00   1.88   0.00   0.00      0      0      0       0    1396
 1990 356   165   162   21.0      5   2.72   3561   4000   5881   5277  16055   3633  161.9  0.366   8494      7  0.000  0.000  0.160  0.000   0.91  69.23   0.53      0   8494     76.3   0.00   0.00   1.25   4.00   4.00   4.00   4.00   4.00   4.00   4.00   1.88   0.00   0.00      0      0      0       0    1422
 1990 357   166   163   21.0      5   2.66   3561   4017   6153   5259  16345   3633  169.4  0.376   8767      7  0.000  0.000  0.171  0.000   0.87  70.19   0.54      0   8767     74.7   0.00   0.00   1.25   4.00   4.00   4.00   3.99   3.99   3.99   3.99   1.87   0.00   0.00      0      0      0       0    1449
 1990 358   167   164   21.0      5   2.60   3561   4005   6369   5233  16548   3633  175.3  0.385   8983      7  0.000  0.000  0.177  0.339   0.85  70.91   0.54      0   8983     73.0   0.00   0.00   1.25   4.00   4.00   4.00   3.99   3.99   3.99   3.99   1.87   0.00   0.00      0      0      0       0    1475
 1990 359   168   165   21.0      5   2.54   3561   4109   6569   5269  16852   3633  180.8  0.390   9182      7  0.000  0.000  0.188  0.152   0.81  71.54   0.54      0   9182     71.3   0.00   0.00   1.25   4.00   4.00   4.00   4.00   4.00   4.00   4.00   1.89   0.00   0.00      0      0      0       0    1501
 1990 360   169   166   21.0      5   2.48   3561   4109   6841   5292  17124   3633  188.3  0.400   9454      7  0.000  0.000  0.193  0.045   0.79  72.36   0.55      0   9454     69.6   0.00   0.00   1.25   4.00   4.00   4.00   4.00   4.00   4.00   4.00   1.90   0.00   0.00      0      0      0       0    1528
 1990 361   170   167   21.0      5   2.41   3561   4109   7114   5311  17397   3633  195.8  0.409   9727      7  0.000  0.000  0.225  0.004   0.76  73.13   0.56      0   9727     67.8   0.00   0.00   1.25   4.00   4.00   4.00   4.00   4.00   4.00   4.00   1.90   0.00   0.00      0      0      0       0    1554
 1990 362   171   168   21.0      5   2.35   3561   4109   7268   5352  17551   3633  200.0  0.414   9881      7  0.000  0.000  0.261  0.000   0.75  73.55   0.56      0   9881     65.9   0.00   0.00   1.25   4.00   4.00   4.00   4.00   4.00   4.00   4.00   1.92   0.00   0.00      0      0      0       0    1581
 1990 363   172   169   21.0      5   2.28   3561   4109   7404   5390  17687   3633  203.8  0.419  10017      7  0.000  0.000  0.268  0.000   0.74  73.91   0.57      0  10017     64.1   0.00   0.00   1.25   4.00   4.00   4.00   4.00   4.00   4.00   4.00   1.94   0.00   0.00      0      0      0       0    1607
 1990 364   173   170   21.0      5   2.22   3561   4109   7606   5414  17889   3633  209.3  0.425  10219      7  0.000  0.000  0.271  0.000   0.73  74.43   0.57      0  10219     62.3   0.00   0.00   1.25   4.00   4.00   4.00   4.00   4.00   4.00   4.00   1.95   0.00   0.00      0      0      0       0    1634
 1990 365   174   171   21.0      5   2.15   3561   4109   7869   5422  18152   3633  216.6  0.434  10482      7  0.000  0.000  0.286  0.000   0.70  75.07   0.58      0  10482     60.5   0.00   0.00   1.25   4.00   4.00   4.00   4.00   4.00   4.00   4.00   1.95   0.00   0.00      0      0      0       0    1661
 1991 001   175   172   21.0      5   2.09   3561   4109   8142   5400  18425   3633  224.1  0.442  10755      7  0.000  0.000  0.315  0.000   0.68  75.70   0.58      0  10755     58.7   0.00   0.00   1.25   4.00   4.00   4.00   3.99   3.99   3.98   3.98   1.94   0.00   0.00      0      0      0       0    1689
 1991 002   176   173   21.0      5   2.03   3561   4109   8414   5374  18697   3633  231.6  0.450  11027      7  0.000  0.000  0.346  0.000   0.66  76.30   0.59      0  11027     56.9   0.00   0.00   1.25   3.98   3.98   3.98   3.97   3.97   3.97   3.96   1.93   0.00   0.00      0      0      0       0    1716
 1991 003   177   174   21.0      5   1.96   3561   4109   8687   5351  18970   3633  239.1  0.458  11300      7  0.000  0.000  0.379  0.000   0.64  76.87   0.60      0  11300     55.0   0.00   0.00   1.25   3.97   3.97   3.97   3.95   3.95   3.95   3.95   1.92   0.00   0.00      0      0      0       0    1742
 1991 004   178   175   21.0      5   1.89   3561   4109   8926   5343  19209   3633  245.7  0.465  11539      7  0.000  0.000  0.412  0.000   0.62  77.35   0.60      0  11539     53.2   0.00   0.00   1.25   4.00   4.00   4.00   3.96   3.96   3.95   3.94   1.92   0.00   0.00      0      0      0       0    1769
 1991 005   179   176   21.0      5   1.83   3561   4109   9165   5331  19448   3633  252.3  0.471  11778      7  0.000  0.000  0.437  0.000   0.60  77.81   0.61      0  11778     51.3   0.00   0.00   1.25   4.00   4.00   4.00   3.96   3.96   3.94   3.93   1.92   0.00   0.00      0      0      0       0    1796
 1991 006   180   177   21.0      5   1.76   3561   4109   9418   5311  19701   3633  259.2  0.478  12031      7  0.000  0.000  0.461  0.000   0.59  78.28   0.61      0  12031     49.5   0.00   0.00   1.25   4.00   4.00   4.00   3.95   3.95   3.93   3.92   1.91   0.00   0.00      0      0      0       0    1823
 1991 007   181   178   21.0      5   1.70   3561   4086   9690   5285  19950   3633  266.7  0.486  12304      7  0.000  0.000  0.486  0.000   0.57  78.76   0.62      0  12304     47.6   0.00   0.00   1.25   4.00   4.00   4.00   3.95   3.95   3.93   3.92   1.91   0.00   0.00      0      0      0       0    1849
 1991 008   182   179   21.0      5   1.70   3561   4086   9690   5285  19950   3633  266.7  0.486  12304      7  0.000  0.000  0.486  0.000   0.57  78.76   0.62      0  12304     47.6   0.00   0.00   1.25   4.00   4.00   4.00   3.95   3.95   3.93   3.92   1.91   0.00   0.00      0      0      0       0    1849
 1991 009   183   180   21.0      5   1.70   3561   4086   9690   5285  19950   3633  266.7  0.486  12304      7  0.000  0.000  0.486  0.000   0.57  78.76   0.62      0  12304     47.6   0.00   0.00   1.25   4.00   4.00   4.00   3.95   3.95   3.93   3.92   1.91   0.00   0.00      0      0      0       0    1849
 1991 010   184   181   21.0      5   1.70   3561   4086   9690   5285  19950   3633  266.7  0.486  12304      7  0.000  0.000  0.486  0.000   0.57  78.76   0.62      0  12304     47.6   0.00   0.00   1.25   4.00   4.00   4.00   3.95   3.95   3.93   3.92   1.91   0.00   0.00      0      0      0       0    1849

*DSSAT Cropping System Model Ver. 4.0.2.000               Aug 03, 2016; 12:24:35

*RUN   2        : UYMZ                    
 MODEL          : MZCER040 - Maize           
 EXPERIMENT     : UYMZ0109 MZ    late to create DSS                             
 TREATMENT  1   : UYMZ                    

@YEAR DOY   DAS   DAP   L#SD   GSTD   LAID   LWAD   SWAD   GWAD   RWAD   CWAD   G#AD   GWGD   HIAD   PWAD   P#AD   WSPD   WSGD   NSTD   EWSD   LN%D   SH%D   HIPD   PWDD   PWTD     SLAD   CHTD   CWID   RDPD   RL1D   RL2D   RL3D   RL4D   RL5D   RL6D   RL7D   RL8D   RL9D   RL10   CDAD   LDAD   SDAD   SNW0C   SNW1C
 1991 194     3     0    0.0      0   0.00      0      0      0      0      0      0    0.0  0.000      0      0  0.000  0.000  0.000  0.000   0.00   0.00   0.00      0      0      0.0   0.00   0.00   0.03   0.00   0.00   0.00   0.00   0.00   0.00   0.00   0.00   0.00   0.00      0      0      0       0       0
 1991 195     4     1    0.0      0   0.00      0      0      0      0      0      0    0.0  0.000      0      0  0.000  0.000  0.000  0.000   0.00   0.00   0.00      0      0      0.0   0.00   0.00   0.03   0.00   0.00   0.00   0.00   0.00   0.00   0.00   0.00   0.00   0.00      0      0      0       0       0
 1991 196     5     2    0.0      0   0.00      0      0      0      0      0      0    0.0  0.000      0      0  0.000  0.000  0.000  0.000   0.00   0.00   0.00      0      0      0.0   0.00   0.00   0.03   0.00   0.00   0.00   0.00   0.00   0.00   0.00   0.00   0.00   0.00      0      0      0       0       0
 1991 197     6     3    0.0      0   0.00      0      0      0      0      0      0    0.0  0.000      0      0  0.000  0.000  0.000  0.000   0.00   0.00   0.00      0      0      0.0   0.00   0.00   0.03   0.00   0.00   0.00   0.00   0.00   0.00   0.00   0.00   0.00   0.00      0      0      0       0       0
 1991 198     7     4    0.0      0   0.00      0      0      0      0      0      0    0.0  0.000      0      0  0.000  0.000  0.000  0.000   0.00   0.00   0.00      0      0      0.0   0.00   0.00   0.04   0.00   0.00   0.00   0.00   0.00   0.00   0.00   0.00   0.00   0.00      0      0      0       0       0
 1991 199     8     5    0.0      0   0.00      0      0      0      0      0      0    0.0  0.000      0      0  0.000  0.000  0.000  0.000   0.00   0.00   0.00      0      0      0.0   0.00   0.00   0.05   0.00   0.00   0.00   0.00   0.00   0.00   0.00   0.00   0.00   0.00      0      0      0       0       0
 1991 200     9     6    0.0      0   0.00      0      0      0      0      0      0    0.0  0.000      0      0  0.000  0.000  0.000  0.000   0.00   0.00   0.00      0      0      0.0   0.00   0.00   0.05   0.00   0.00   0.00   0.00   0.00   0.00   0.00   0.00   0.00   0.00      0      0      0       0       0
 1991 201    10     7    0.0      0   0.00      0      0      0      0      0      0    0.0  0.000      0      0  0.000  0.000  0.000  0.000   0.00   0.00   0.00      0      0      0.0   0.00   0.00   0.07   0.00   0.00   0.00   0.00   0.00   0.00   0.00   0.00   0.00   0.00      0      0      0       0       0
 1991 202    11     8    0.0      0   0.00      0      0      0      0      0      0    0.0  0.000      0      0  0.000  0.000  0.000  0.000   0.00   0.00   0.00      0      0      0.0   0.00   0.00   0.07   0.00   0.00   0.00   0.00   0.00   0.00   0.00   0.00   0.00   0.00      0      0      0       0       0
 1991 203    12     9    0.0      0   0.00      0      0      0      0      0      0    0.0  0.000      0      0  0.000  0.000  0.000  0.000   0.00   0.00   0.00      0      0      0.0   0.00   0.00   0.07   0.00   0.00   0.00   0.00   0.00   0.00   0.00   0.00   0.00   0.00      0      0      0       0       0
 1991 204    13    10    0.0      0   0.00      0      0      0      0      0      0    0.0  0.000      0      0  0.000  0.000  0.000  0.000   0.00   0.00   0.00      0      0      0.0   0.00   0.00   0.07   0.00   0.00   0.00   0.00   0.00   0.00   0.00   0.00   0.00   0.00      0      0      0       0       0
 1991 205    14    11    0.0      0   0.00      0      0      0      0      0      0    0.0  0.000      0      0  0.000  0.000  0.000  0.000   0.00   0.00   0.00      0      0      0.0   0.00   0.00   0.08   0.00   0.00   0.00   0.00   0.00   0.00   0.00   0.00   0.00   0.00      0      0      0       0       0
 1991 206    15    12    0.0      0   0.00      0      0      0      0      0      0    0.0  0.000      0      0  0.000  0.000  0.000  0.000   0.00   0.00   0.00      0      0      0.0   0.00   0.00   0.08   0.00   0.00   0.00   0.00   0.00   0.00   0.00   0.00   0.00   0.00      0      0      0       0       0
 1991 207    16    13    0.0      0   0.00      0      0      0      0      0      0    0.0  0.000      0      0  0.000  0.000  0.000  0.000   0.00   0.00   0.00      0      0      0.0   0.00   0.00   0.09   0.00   0.00   0.00   0.00   0.00   0.00   0.00   0.00   0.00   0.00      0      0      0       0       0
 1991 208    17    14    0.0      0   0.00      0      0      0      0      0      0    0.0  0.000      0      0  0.000  0.000  0.000  0.000   0.00   0.00   0.00      0      0      0.0   0.00   0.00   0.11   0.00   0.00   0.00   0.00   0.00   0.00   0.00   0.00   0.00   0.00      0      0      0       0       0
 1991 209    18    15    1.0      1   0.00     14     14      0     14     28      0    0.0  0.000      0      0  0.000  0.000  0.012  0.000   4.40   0.00   0.00      0      0     23.9   0.00   0.00   0.12   0.28   0.09   0.00   0.00   0.00   0.00   0.00   0.00   0.00   0.00      0      0      0       0       0
 1991 210    19    16    2.0      1   0.01     14     14      0     14     28      0    0.0  0.000      0      0  0.000  0.000  0.013  0.000   4.51   0.00   0.00      0      0     46.3   0.00   0.00   0.14   0.28   0.09   0.00   0.00   0.00   0.00   0.00   0.00   0.00   0.00      0      0      0       0       0
 1991 211    20    17    2.0      1   0.01     14     14      0     14     28      0    0.0  0.000      0      0  0.000  0.000  0.000  0.000   4.51   0.00   0.00      0      0     58.0   0.00   0.00   0.14   0.27   0.10   0.00   0.00   0.00   0.00   0.00   0.00   0.00   0.00      0      0      0       0       0
 1991 212    21    18    2.0      1   0.01     14     14      0     15     28      0    0.0  0.000      0      0  0.000  0.000  0.000  0.000   4.49   0.00   0.00      0      0     63.1   0.00   0.00   0.15   0.26   0.10   0.00   0.00   0.00   0.00   0.00   0.00   0.00   0.00      0      0      0       0       0
 1991 213    22    19    2.0      1   0.01     14     14      0     15     28      0    0.0  0.000      0      0  0.000  0.000  0.000  0.000   4.49   0.00   0.00      0      0     44.0   0.00   0.00   0.15   0.26   0.10   0.00   0.00   0.00   0.00   0.00   0.00   0.00   0.00      0      0      0       0       0
 1991 214    23    20    2.0      1   0.00     14     14      0     15     28      0    0.0  0.000      0      0  0.000  0.000  0.000  0.000   4.49   0.00   0.00      0      0     17.2   0.00   0.00   0.15   0.25   0.10   0.00   0.00   0.00   0.00   0.00   0.00   0.00   0.00      0      0      0       0       0
 1991 215    24    21    2.0      1   0.00     14     14      0     15     28      0    0.0  0.000      0      0  0.000  0.000  0.000  0.000   4.49   0.00   0.00      0      0      9.3   0.00   0.00   0.15   0.24   0.09   0.00   0.00   0.00   0.00   0.00   0.00   0.00   0.00      0      0      0       0       0
 1991 216    25    22    2.0      1   0.00     14     14      0     15     28      0    0.0  0.000      0      0  0.000  0.000  0.000  0.000   4.49   0.00   0.00      0      0      9.3   0.00   0.00   0.15   0.22   0.09   0.00   0.00   0.00   0.00   0.00   0.00   0.00   0.00      0      0      0       0       0
 1991 217    26    23    2.0      1   0.00     14     14      0     15     28      0    0.0  0.000      0      0  0.000  0.000  0.000  0.184   4.49   0.00   0.00      0      0     12.3   0.00   0.00   0.15   0.21   0.09   0.00   0.00   0.00   0.00   0.00   0.00   0.00   0.00      0      0      0       0       0
 1991 218    27    24    2.0      1   0.00     14     14      0     15     28      0    0.0  0.000      0      0  0.000  0.000  0.000  0.000   4.49   0.00   0.00      0      0     10.3   0.00   0.00   0.15   0.21   0.09   0.00   0.00   0.00   0.00   0.00   0.00   0.00   0.00      0      0      0       0       0
 1991 219    28    25    2.0      1   0.00     14     14      0     15     28      0    0.0  0.000      0      0  0.000  0.000  0.000  0.000   4.49   0.00   0.00      0      0     11.4   0.00   0.00   0.15   0.21   0.09   0.00   0.00   0.00   0.00   0.00   0.00   0.00   0.00      0      0      0       0       0
 1991 220    29    26    3.0      1   0.00     14     14      0     15     28      0    0.0  0.000      0      0  0.000  0.000  0.000  0.000   4.49   0.00   0.00      0      0     20.2   0.00   0.00   0.16   0.20   0.09   0.00   0.00   0.00   0.00   0.00   0.00   0.00   0.00      0      0      0       0       0
 1991 221    30    27    3.0      1   0.00     14     14      0     15     28      0    0.0  0.000      0      0  0.000  0.000  0.000  0.000   4.49   0.00   0.00      0      0     30.6   0.00   0.00   0.16   0.20   0.09   0.00   0.00   0.00   0.00   0.00   0.00   0.00   0.00      0      0      0       0       0
 1991 222    31    28    3.0      1   0.00     14     14      0     15     28      0    0.0  0.000      0      0  0.000  0.000  0.000  0.000   4.49   0.00   0.00      0      0     34.8   0.00   0.00   0.16   0.20   0.09   0.00   0.00   0.00   0.00   0.00   0.00   0.00   0.00      0      0      0       0       0
 1991 223    32    29    3.0      1   0.01     14     14      0     15     28      0    0.0  0.000      0      0  0.000  0.000  0.000  0.000   4.49   0.00   0.00      0      0     37.8   0.00   0.00   0.16   0.20   0.09   0.00   0.00   0.00   0.00   0.00   0.00   0.00   0.00      0      0      0       0       0
 1991 224    33    30    3.0      1   0.00     14     14      0     15     28      0    0.0  0.000      0      0  0.000  0.000  0.000  0.000   4.49   0.00   0.00      0      0     33.4   0.00   0.00   0.17   0.20   0.09   0.00   0.00   0.00   0.00   0.00   0.00   0.00   0.00      0      0      0       0       0
 1991 225    34    31    3.0      1   0.01     14     14      0     16     28      0    0.0  0.000      0      0  0.000  0.000  0.000  0.000   4.49   0.00   0.00      0      0     45.3   0.00   0.00   0.17   0.20   0.09   0.00   0.00   0.00   0.00   0.00   0.00   0.00   0.00      0      0      0       0       0
 1991 226    35    32    3.0      1   0.01     14     14      0     16     28      0    0.0  0.000      0      0  0.000  0.000  0.000  0.000   4.49   0.00   0.00      0      0     71.9   0.00   0.00   0.18   0.20   0.10   0.01   0.00   0.00   0.00   0.00   0.00   0.00   0.00      0      0      0       0       0
 1991 227    36    33    4.0      1   0.02     14     14      0     17     28      0    0.0  0.000      0      0  0.000  0.000  0.000  0.000   4.49   0.00   0.00      0      0    176.1   0.00   0.00   0.20   0.20   0.11   0.01   0.00   0.00   0.00   0.00   0.00   0.00   0.00      0      0      0       0       0
 1991 228    37    34    4.0      1   0.04     15     14      0     19     29      0    0.0  0.000      0      0  0.000  0.000  0.000  0.000   4.14   0.00   0.00      0      0    278.3   0.00   0.00   0.21   0.20   0.12   0.03   0.00   0.00   0.00   0.00   0.00   0.00   0.00      0      0      0       0       0
 1991 229    38    35    4.0      1   0.06     21     14      0     22     35      0    0.0  0.000      0      0  0.000  0.000  0.000  0.000   3.55   0.00   0.00      0      0    273.9   0.00   0.00   0.22   0.20   0.14   0.05   0.00   0.00   0.00   0.00   0.00   0.00   0.00      0      0      0       0       0
 1991 230    39    36    5.0      1   0.08     29     14      0     23     43      0    0.0  0.000      0      0  0.000  0.000  0.000  0.000   3.56   0.00   0.00      0      0    267.2   0.00   0.00   0.23   0.20   0.15   0.06   0.00   0.00   0.00   0.00   0.00   0.00   0.00      0      0      0       0       0
 1991 231    40    37    5.0      1   0.10     37     14      0     27     51      0    0.0  0.000      0      0  0.000  0.000  0.000  0.000   3.55   0.00   0.00      0      0    259.8   0.00   0.00   0.24   0.21   0.17   0.09   0.00   0.00   0.00   0.00   0.00   0.00   0.00      0      0      0       0       1
 1991 232    41    38    5.0      1   0.12     47     14      0     30     61      0    0.0  0.000      0      0  0.000  0.000  0.000  0.000   3.55   0.00   0.00      0      0    252.2   0.00   0.00   0.25   0.22   0.19   0.12   0.00   0.00   0.00   0.00   0.00   0.00   0.00      0      0      0       0       1
 1991 233    42    39    6.0      1   0.14     58     14      0     39     72      0    0.0  0.000      0      0  0.000  0.000  0.000  0.000   3.54   0.00   0.00      0      0    244.6   0.00   0.00   0.26   0.24   0.23   0.19   0.00   0.00   0.00   0.00   0.00   0.00   0.00      0      0      0       0       1
 1991 234    43    40    6.0      1   0.17     73     14      0     48     87      0    0.0  0.000      0      0  0.000  0.000  0.000  0.000   3.46   0.00   0.00      0      0    236.4   0.00   0.00   0.28   0.27   0.27   0.28   0.00   0.00   0.00   0.00   0.00   0.00   0.00      0      0      0       0       1
 1991 235    44    41    6.0      1   0.20     86     14      0     65    100      0    0.0  0.000      0      0  0.000  0.000  0.000  0.000   3.59   0.00   0.00      0      0    230.3   0.00   0.00   0.29   0.31   0.35   0.43   0.00   0.00   0.00   0.00   0.00   0.00   0.00      0      0      0       0       1
 1991 236    45    42    6.0      1   0.22     97     14      0     85    111      0    0.0  0.000      0      0  0.000  0.000  0.000  0.000   3.71   0.00   0.00      0      0    225.8   0.00   0.00   0.30   0.37   0.44   0.62   0.00   0.00   0.00   0.00   0.00   0.00   0.00      0      0      0       0       2
 1991 237    46    43    7.0      1   0.25    113     14      0    102    127      0    0.0  0.000      0      0  0.000  0.000  0.000  0.000   3.57   0.00   0.00      0      0    220.0   0.00   0.00   0.31   0.41   0.51   0.77   0.00   0.00   0.00   0.00   0.00   0.00   0.00      0      0      0       0       2
 1991 238    47    44    7.0      1   0.27    124     14      0    105    138      0    0.0  0.000      0      0  0.000  0.000  0.000  0.000   3.77   0.00   0.00      0      0    216.7   0.00   0.00   0.31   0.42   0.52   0.81   0.00   0.00   0.00   0.00   0.00   0.00   0.00      0      0      0       0       3
 1991 239    48    45    7.0      1   0.28    133     14      0    109    147      0    0.0  0.000      0      0  0.000  0.000  0.000  0.000   3.82   0.00   0.00      0      0    214.1   0.00   0.00   0.31   0.43   0.54   0.84   0.00   0.00   0.00   0.00   0.00   0.00   0.00      0      0      0       0       3
 1991 240    49    46    7.0      1   0.31    150     14      0    124    164      0    0.0  0.000      0      0  0.000  0.000  0.000  0.000   3.63   0.00   0.00      0      0    209.7   0.00   0.00   0.32   0.48   0.61   0.97   0.01   0.00   0.00   0.00   0.00   0.00   0.00      0      0      0       0       4
 1991 241    50    47    8.0      1   0.35    172     14      0    138    186      0    0.0  0.000      0      0  0.000  0.000  0.000  0.000   3.54   0.00   0.00      0      0    204.6   0.00   0.00   0.33   0.52   0.67   1.08   0.03   0.00   0.00   0.00   0.00   0.00   0.00      0      0      0       0       4
 1991 242    51    48    8.0      1   0.40    200     14      0    143    214      0    0.0  0.000      0      0  0.000  0.000  0.000  0.000   3.47   0.00   0.00      0      0    199.1   0.00   0.00   0.35   0.54   0.68   1.12   0.03   0.00   0.00   0.00   0.00   0.00   0.00      0      0      0       0       5
 1991 243    52    49    8.0      1   0.42    215     14      0    149    229      0    0.0  0.000      0      0  0.000  0.000  0.000  0.000   3.73   0.00   0.00      0      0    196.2   0.00   0.00   0.36   0.55   0.71   1.16   0.04   0.00   0.00   0.00   0.00   0.00   0.00      0      0      0       0       6
 1991 244    53    50    8.0      1   0.44    226     14      0    165    240      0    0.0  0.000      0      0  0.000  0.000  0.000  0.000   3.79   0.00   0.00      0      0    194.2   0.00   0.00   0.36   0.57   0.78   1.29   0.07   0.00   0.00   0.00   0.00   0.00   0.00      0      0      0       0       6
 1991 245    54    51    8.0      1   0.46    243     14      0    172    257      0    0.0  0.000      0      0  0.000  0.000  0.000  0.000   3.69   0.00   0.00      0      0    191.2   0.00   0.00   0.37   0.58   0.81   1.34   0.09   0.00   0.00   0.00   0.00   0.00   0.00      0      0      0       0       7
 1991 246    55    52    9.0      1   0.51    274     14      0    191    288      0    0.0  0.000      0      0  0.000  0.000  0.000  0.000   3.51   0.00   0.00      0      0    186.5   0.00   0.00   0.39   0.61   0.89   1.47   0.14   0.00   0.00   0.00   0.00   0.00   0.00      0      0      0       0       8
 1991 247    56    53    9.0      1   0.57    313     14      0    237    327      0    0.0  0.000      0      0  0.000  0.000  0.000  0.000   3.43   0.00   0.00      0      0    181.4   0.00   0.00   0.40   0.67   1.08   1.79   0.27   0.00   0.00   0.00   0.00   0.00   0.00      0      0      0       0       9
 1991 248    57    54    9.0      2   0.65    339     14      0    296    353      0    0.0  0.000      0      0  0.000  0.000  0.000  0.000   3.59   0.00   0.00      0      0    190.5   0.00   0.00   0.42   0.75   1.30   2.17   0.48   0.00   0.00   0.00   0.00   0.00   0.00      0      0      0       0      10
 1991 249    58    55   10.0      2   0.70    374     14      0    301    388      0    0.0  0.000      0      0  0.000  0.000  0.003  0.000   3.55   0.00   0.00      0      0    186.7   0.00   0.00   0.44   0.75   1.32   2.20   0.51   0.00   0.00   0.00   0.00   0.00   0.00      0      0      0       0      12
 1991 250    59    56   10.0      2   0.74    404     14      0    309    418      0    0.0  0.000      0      0  0.000  0.000  0.000  0.000   3.54   0.00   0.00      0      0    183.7   0.00   0.00   0.45   0.75   1.35   2.24   0.54   0.00   0.00   0.00   0.00   0.00   0.00      0      0      0       0      13
 1991 251    60    57   10.0      2   0.78    430     14      0    320    444      0    0.0  0.000      0      0  0.000  0.000  0.000  0.000   3.81   0.00   0.00      0      0    181.2   0.00   0.00   0.45   0.76   1.39   2.31   0.60   0.00   0.00   0.00   0.00   0.00   0.00      0      0      0       0      15
 1991 252    61    58   10.0      3   0.82    461     14      0    381    475      0    0.0  0.000      0      0  0.000  0.000  0.022  0.000   3.68   0.00   0.00      0      0    177.2   0.00   0.00   0.46   0.80   1.60   2.64   0.89   0.03   0.00   0.00   0.00   0.00   0.00      0      0      0       0      16
 1991 253    62    59   10.0      3   0.88    503     14      0    449    517      0    0.0  0.000      0      0  0.000  0.000  0.022  0.000   3.58   0.00   0.00      0      0    174.0   0.00   0.00   0.47   0.84   1.81   2.98   1.22   0.09   0.00   0.00   0.00   0.00   0.00      0      0      0       0      18
 1991 254    63    60   11.0      3   0.95    560     15      0    528    574      0    0.0  0.000      0      0  0.000  0.000  0.022  0.000   3.54   0.00   0.00      0      0    170.4   0.00   0.00   0.49   0.86   2.03   3.35   1.61   0.21   0.00   0.00   0.00   0.00   0.00      0      0      0       0      20
 1991 255    64    61   11.0      3   1.05    631     16      0    604    647      0    0.0  0.000      0      0  0.000  0.000  0.022  0.000   3.50   0.00   0.00      0      0    166.4   0.00   0.00   0.50   0.88   2.20   3.64   2.00   0.39   0.00   0.00   0.00   0.00   0.00      0      0      0       0      23
 1991 256    65    62   11.0      3   1.17    724     19      0    647    743      0    0.0  0.000      0      0  0.000  0.000  0.022  0.000   3.45   0.00   0.00      0      0    162.1   0.00   0.00   0.52   0.89   2.28   3.77   2.23   0.55   0.00   0.00   0.00   0.00   0.00      0      0      0       0      26
 1991 257    66    63   11.0      3   1.22    764     21      0    662    786      0    0.0  0.000      0      0  0.000  0.000  0.022  0.000   3.43   0.00   0.00      0      0    160.1   0.00   0.00   0.53   0.89   2.29   3.80   2.31   0.62   0.00   0.00   0.00   0.00   0.00      0      0      0       0      29
 1991 258    67    64   12.0      3   1.24    781     22      0    671    803      0    0.0  0.000      0      0  0.000  0.000  0.022  0.000   3.50   0.00   0.00      0      0    159.0   0.00   0.00   0.53   0.89   2.30   3.81   2.36   0.66   0.00   0.00   0.00   0.00   0.00      0      0      0       0      33
 1991 259    68    65   12.0      3   1.34    858     27      0    704    885      0    0.0  0.000      0      0  0.000  0.000  0.022  0.000   3.39   0.00   0.00      0      0    156.1   0.00   0.00   0.54   0.89   2.36   3.88   2.53   0.82   0.00   0.00   0.00   0.00   0.00      0      0      0       0      36
 1991 260    69    66   12.0      3   1.43    931     34      0    705    964      0    0.0  0.000      0      0  0.000  0.000  0.022  0.093   3.36   0.00   0.00      0      0    153.5   0.00   0.00   0.56   0.89   2.35   3.87   2.54   0.84   0.00   0.00   0.00   0.00   0.00      0      0      0       0      40
 1991 261    70    67   12.0      3   1.50    994     40      0    804   1034      0    0.0  0.000      0      0  0.000  0.000  0.022  0.106   3.24   0.00   0.00      0      0    151.4   0.00   0.00   0.57   0.88   2.25   3.82   2.76   1.43   0.00   0.00   0.00   0.00   0.00      0      0      0       0      43
 1991 262    71    68   12.0      3   1.55   1031     45      0    923   1076      0    0.0  0.000      0      0  0.000  0.000  0.022  0.120   3.23   0.00   0.00      0      0    150.0   0.00   0.00   0.58   0.93   2.25   3.77   3.14   2.30   0.00   0.00   0.00   0.00   0.00      0      0      0       0      47
[...]
 1992 319   128   125   21.0      3   3.43   4028   3009      0   4896   7037      0    0.0  0.000      0      0  0.000  0.000  0.075  0.000   1.59   0.00   0.00      0      0     85.2   0.00   0.00   0.95   4.00   4.00   4.00   4.00   4.00   2.95   0.86   0.00   0.00   0.00      0      0      0       0     669
 1992 320   129   126   21.0      3   3.46   4090   3189      0   4960   7279      0    0.0  0.000      0      0  0.000  0.000  0.079  0.000   1.55   0.00   0.00      0      0     84.5   0.00   0.00   0.96   4.00   4.00   4.00   4.00   4.00   3.01   1.18   0.00   0.00   0.00      0      0      0       0     693
 1992 321   130   127   21.0      3   3.46   4127   3294      0   5127   7420      0    0.0  0.000      0      0  0.000  0.000  0.085  0.000   1.53   0.00   0.00      0      0     83.7   0.00   0.00   0.97   4.00   4.00   4.00   4.00   4.00   3.15   1.85   0.00   0.00   0.00      0      0      0       0     718
 1992 322   131   128   21.0      3   3.44   4156   3379      0   5299   7536      0    0.0  0.000      0      0  0.000  0.000  0.090  0.000   1.52   0.00   0.00      0      0     82.9   0.00   0.00   0.98   4.00   4.00   4.00   4.00   4.00   3.30   2.49   0.00   0.00   0.00      0      0      0       0     744
 1992 323   132   129   21.0      3   3.44   4190   3478      0   5467   7668      0    0.0  0.000      0      0  0.000  0.000  0.092  0.000   1.50   0.00   0.00      0      0     82.0   0.00   0.00   0.98   4.00   4.00   4.00   4.00   4.00   3.45   3.07   0.00   0.00   0.00      0      0      0       0     770
 1992 324   133   130   21.0      3   3.45   4243   3628      0   5604   7871      0    0.0  0.000      0      0  0.000  0.000  0.092  0.000   1.47   0.00   0.00      0      0     81.2   0.00   0.00   1.00   4.00   4.00   4.00   4.00   4.00   3.58   3.52   0.00   0.00   0.00      0      0      0       0     797
 1992 325   134   131   21.0      3   3.46   4306   3808      0   5655   8113      0    0.0  0.000      0      0  0.000  0.000  0.092  0.000   1.44   0.00   0.00      0      0     80.5   0.00   0.00   1.01   4.00   4.00   4.00   4.00   4.00   3.63   3.70   0.00   0.00   0.00      0      0      0       0     825
 1992 326   135   132   21.0      4   3.42   4264   3213      0   5633   8216      0    0.0  0.000    739      0  0.000  0.000  0.095  0.000   1.75   0.00   0.09      0    739     80.3   0.00   0.00   1.02   4.00   3.98   3.98   3.98   3.98   3.61   3.68   0.00   0.00   0.00      0      0      0       0     854
 1992 327   136   133   21.0      4   3.39   4220   3247      0   5784   8290      0    0.0  0.000    823      0  0.000  0.000  0.072  0.000   1.81   0.00   0.10      0    823     80.4   0.00   0.00   1.02   4.00   4.00   4.00   3.99   3.99   3.62   3.70   0.00   0.00   0.00      0      0      0       0     882
 1992 328   137   134   21.0      4   3.37   4175   3278      0   5909   8354      0    0.0  0.000    901      0  0.000  0.000  0.047  0.000   1.83   0.00   0.11      0    901     80.8   0.00   0.00   1.03   4.00   4.00   4.00   4.00   4.00   3.63   3.72   0.00   0.00   0.00      0      0      0       0     911
 1992 329   138   135   21.0      4   3.35   4128   3336      0   6006   8510      0    0.0  0.000   1046      0  0.000  0.000  0.043  0.000   1.84   0.00   0.12      0   1046     81.3   0.00   0.00   1.04   4.00   4.00   4.00   4.00   4.00   3.70   3.74   0.00   0.00   0.00      0      0      0       0     940
 1992 330   139   136   21.0      4   3.34   4079   3400      0   6072   8686      0    0.0  0.000   1207      0  0.000  0.000  0.040  0.000   1.84   0.00   0.14      0   1207     81.8   0.00   0.00   1.05   4.00   4.00   4.00   4.00   4.00   3.79   3.79   0.00   0.00   0.00      0      0      0       0     970
 1992 331   140   137   21.0      4   3.32   4026   3468      0   6104   8872      0    0.0  0.000   1377      0  0.000  0.000  0.037  0.000   1.84   0.00   0.16      0   1377     82.5   0.00   0.00   1.06   4.00   4.00   4.00   4.00   4.00   3.84   3.82   0.00   0.00   0.00      0      0      0       0    1001
 1992 332   141   138   21.0      4   3.31   3972   3536      0   6242   9054      0    0.0  0.000   1546      0  0.000  0.000  0.035  0.000   1.84   0.00   0.17      0   1546     83.3   0.00   0.00   1.07   4.00   4.00   4.00   4.00   4.00   4.00   3.93   0.00   0.00   0.00      0      0      0       0    1031
 1992 333   142   139   21.0      4   3.29   3915   3607      0   6287   9246      0    0.0  0.000   1724      0  0.000  0.000  0.033  0.000   1.85   0.00   0.19      0   1724     84.1   0.00   0.00   1.09   4.00   4.00   4.00   4.00   4.00   4.00   3.97   0.00   0.00   0.00      0      0      0       0    1062
 1992 334   143   140   21.0      4   3.28   3854   3694      0   6293   9491      0    0.0  0.000   1943      0  0.000  0.000  0.030  0.000   1.84   0.00   0.20      0   1943     85.1   0.00   0.00   1.10   4.00   4.00   4.00   4.00   4.00   4.00   3.98   0.02   0.00   0.00      0      0      0       0    1094
 1992 335   144   141   21.0      4   3.27   3790   3782      0   6318   9735      0    0.0  0.000   2163      0  0.000  0.000  0.028  0.000   1.84   0.00   0.22      0   2163     86.3   0.00   0.00   1.11   4.00   4.00   4.00   4.00   4.00   4.00   4.00   0.08   0.00   0.00      0      0      0       0    1125
 1992 336   145   142   21.0      4   3.26   3724   3845      0   6460   9890      0    0.0  0.000   2320      0  0.000  0.000  0.027  0.000   1.85   0.00   0.23      0   2320     87.5   0.00   0.00   1.12   4.00   4.00   4.00   4.00   4.00   4.00   4.00   0.28   0.00   0.00      0      0      0       0    1157
 1992 337   146   143   21.0      4   3.25   3656   3896      0   6628  10000      0    0.0  0.000   2448      0  0.000  0.000  0.026  0.000   1.85   0.00   0.24      0   2448     88.8   0.00   0.00   1.12   4.00   4.00   4.00   4.00   4.00   4.00   4.00   0.53   0.00   0.00      0      0      0       0    1189
 1992 338   147   144   21.0      4   3.24   3586   3957      0   6740  10144      0    0.0  0.000   2600      0  0.000  0.000  0.024  0.000   1.86   0.00   0.26      0   2600     90.3   0.00   0.00   1.13   4.00   4.00   4.00   4.00   4.00   4.00   4.00   0.73   0.00   0.00      0      0      0       0    1222
 1992 339   148   145   21.0      4   3.23   3514   4035      0   6863  10342      0    0.0  0.000   2794      0  0.000  0.000  0.022  0.000   1.86   0.00   0.27      0   2794     91.9   0.00   0.00   1.14   4.00   4.00   4.00   4.00   4.00   4.00   4.00   0.95   0.00   0.00      0      0      0       0    1256
 1992 340   149   146   21.0      4   3.22   3438   4111      0   6877  10532      0    0.0  0.000   2983      0  0.000  0.000  0.022  0.000   1.86   0.00   0.28      0   2983     93.7   0.00   0.00   1.15   4.00   4.00   4.00   4.00   4.00   4.00   4.00   1.02   0.00   0.00      0      0      0       0    1290
 1992 341   150   147   21.0      5   3.22   3438   4111    278   6897  10810   3704    7.5  0.026   3261      7  0.000  0.000  0.000  0.000   1.80   8.52   0.30      0   3261     93.7   0.00   0.00   1.16   4.00   4.00   4.00   4.00   4.00   4.00   4.00   1.09   0.00   0.00      0      0      0       0    1325
 1992 342   151   148   21.0      5   3.22   3438   4111    519   6917  11051   3704   14.0  0.047   3503      7  0.000  0.000  0.000  0.000   1.75  14.83   0.32      0   3503     93.7   0.00   0.00   1.17   4.00   4.00   4.00   4.00   4.00   4.00   4.00   1.17   0.00   0.00      0      0      0       0    1359
 1992 343   152   149   21.0      5   3.22   3438   4111    771   6944  11303   3704   20.8  0.068   3755      7  0.000  0.000  0.002  0.000   1.70  20.54   0.33      0   3755     93.7   0.00   0.00   1.18   4.00   4.00   4.00   4.00   4.00   4.00   4.00   1.25   0.00   0.00      0      0      0       0    1394
 1992 344   153   150   21.0      5   3.22   3438   4111   1029   6947  11561   3704   27.8  0.089   4012      7  0.000  0.000  0.010  0.000   1.64  25.64   0.35      0   4012     93.6   0.00   0.00   1.19   4.00   4.00   4.00   4.00   4.00   4.00   4.00   1.29   0.00   0.00      0      0      0       0    1429
 1992 345   154   151   21.0      5   3.21   3438   4111   1307   6953  11839   3704   35.3  0.110   4290      7  0.000  0.000  0.018  0.000   1.59  30.46   0.36      0   4290     93.4   0.00   0.00   1.20   4.00   4.00   4.00   4.00   4.00   4.00   4.00   1.33   0.00   0.00      0      0      0       0    1463
 1992 346   155   152   21.0      5   3.20   3438   4111   1553   6967  12085   3704   41.9  0.128   4536      7  0.000  0.000  0.028  0.000   1.54  34.23   0.38      0   4536     93.0   0.00   0.00   1.20   4.00   4.00   4.00   4.00   4.00   4.00   4.00   1.37   0.00   0.00      0      0      0       0    1498
 1992 347   156   153   21.0      5   3.18   3438   4111   1782   7015  12314   3704   48.1  0.145   4765      7  0.000  0.000  0.036  0.000   1.50  37.40   0.39      0   4765     92.6   0.00   0.00   1.21   4.00   4.00   4.00   4.00   4.00   4.00   4.00   1.42   0.00   0.00      0      0      0       0    1533
 1992 348   157   154   21.0      5   3.17   3438   4111   2060   7056  12592   3704   55.6  0.164   5043      7  0.000  0.000  0.042  0.000   1.45  40.84   0.40      0   5043     92.1   0.00   0.00   1.22   4.00   4.00   4.00   4.00   4.00   4.00   4.00   1.46   0.00   0.00      0      0      0       0    1568
 1992 349   158   155   21.0      5   3.15   3438   4111   2328   7088  12859   3704   62.8  0.181   5311      7  0.000  0.000  0.052  0.000   1.40  43.83   0.41      0   5311     91.5   0.00   0.00   1.23   4.00   4.00   4.00   4.00   4.00   4.00   4.00   1.48   0.00   0.00      0      0      0       0    1603
 1992 350   159   156   21.0      5   3.12   3438   4111   2526   7142  13058   3704   68.2  0.193   5510      7  0.000  0.000  0.064  0.000   1.36  45.85   0.42      0   5510     90.8   0.00   0.00   1.24   4.00   4.00   4.00   4.00   4.00   4.00   4.00   1.50   0.00   0.00      0      0      0       0    1639
 1992 351   160   157   21.0      5   3.09   3438   4111   2774   7157  13306   3704   74.9  0.208   5757      7  0.000  0.000  0.069  0.000   1.32  48.18   0.43      0   5757     90.0   0.00   0.00   1.25   4.00   4.00   4.00   4.00   4.00   4.00   4.00   1.51   0.00   0.00      0      0      0       0    1674
 1992 352   161   158   21.0      5   3.06   3438   4111   3051   7140  13583   3704   82.4  0.225   6035      7  0.000  0.000  0.077  0.000   1.27  50.56   0.44      0   6035     89.1   0.00   0.00   1.25   4.00   4.00   4.00   4.00   4.00   4.00   3.99   1.51   0.00   0.00      0      0      0       0    1710
 1992 353   162   159   21.0      5   3.03   3438   4111   3328   7167  13860   3704   89.8  0.240   6311      7  0.000  0.000  0.087  0.000   1.23  52.73   0.46      0   6311     88.2   0.00   0.00   1.25   4.00   4.00   4.00   4.00   4.00   4.00   4.00   1.53   0.00   0.00      0      0      0       0    1746
 1992 354   163   160   21.0      5   2.99   3438   4111   3606   7141  14138   3704   97.3  0.255   6589      7  0.000  0.000  0.098  0.000   1.18  54.72   0.47      0   6589     87.1   0.00   0.00   1.25   4.00   4.00   4.00   3.99   3.99   3.99   3.99   1.53   0.00   0.00      0      0      0       0    1782
 1992 355   164   161   21.0      5   2.95   3438   4111   3884   7173  14416   3704  104.8  0.269   6867      7  0.000  0.000  0.106  0.000   1.14  56.56   0.48      0   6867     85.9   0.00   0.00   1.25   4.00   4.00   4.00   4.00   4.00   4.00   4.00   1.55   0.00   0.00      0      0      0       0    1817
 1992 356   165   162   21.0      5   2.91   3438   4111   4162   7177  14693   3704  112.3  0.283   7145      7  0.000  0.000  0.117  0.000   1.09  58.25   0.49      0   7145     84.7   0.00   0.00   1.25   4.00   4.00   4.00   4.00   4.00   4.00   4.00   1.55   0.00   0.00      0      0      0       0    1853
 1992 357   166   163   21.0      5   2.86   3438   4021   4439   7141  14882   3704  119.8  0.298   7423      7  0.000  0.000  0.127  0.000   1.06  59.81   0.50      0   7423     83.3   0.00   0.00   1.25   4.00   4.00   4.00   4.00   4.00   4.00   4.00   1.55   0.00   0.00      0      0      0       0    1889
 1992 358   167   164   21.0      5   2.82   3438   3929   4717   7105  15068   3704  127.3  0.313   7701      7  0.000  0.000  0.138  0.001   1.04  61.26   0.51      0   7701     81.9   0.00   0.00   1.25   4.00   4.00   4.00   4.00   4.00   4.00   4.00   1.55   0.00   0.00      0      0      0       0    1925
 1992 359   168   165   21.0      5   2.76   3438   4018   4995   7114  15434   3704  134.8  0.324   7978      7  0.000  0.000  0.144  0.000   0.99  62.61   0.52      0   7978     80.4   0.00   0.00   1.25   4.00   4.00   4.00   4.00   4.00   4.00   4.00   1.56   0.00   0.00      0      0      0       0    1960
 1992 360   169   166   21.0      5   2.71   3438   4079   5245   7109  15745   3704  141.6  0.333   8228      7  0.000  0.000  0.149  0.000   0.94  63.74   0.52      0   8228     78.9   0.00   0.00   1.25   4.00   4.00   4.00   4.00   4.00   4.00   4.00   1.57   0.00   0.00      0      0      0       0    1996
 1992 361   170   167   21.0      5   2.66   3438   4111   5473   7141  16005   3704  147.7  0.342   8456      7  0.000  0.000  0.166  0.000   0.91  64.72   0.53      0   8456     77.3   0.00   0.00   1.25   4.00   4.00   4.00   4.00   4.00   4.00   4.00   1.59   0.00   0.00      0      0      0       0    2031
 1992 362   171   168   21.0      5   2.60   3438   4111   5701   7169  16233   3704  153.9  0.351   8684      7  0.000  0.000  0.178  0.000   0.89  65.65   0.53      0   8684     75.6   0.00   0.00   1.25   4.00   4.00   4.00   4.00   4.00   4.00   4.00   1.60   0.00   0.00      0      0      0       0    2067
 1992 363   172   169   21.0      5   2.54   3438   4111   5979   7178  16511   3704  161.4  0.362   8962      7  0.000  0.000  0.187  0.000   0.85  66.71   0.54      0   8962     73.8   0.00   0.00   1.25   4.00   4.00   4.00   4.00   4.00   4.00   4.00   1.61   0.00   0.00      0      0      0       0    2103
 1992 364   173   170   21.0      5   2.47   3438   3969   6256   7142  16647   3704  168.9  0.376   9240      7  0.000  0.000  0.198  0.000   0.84  67.71   0.56      0   9240     72.0   0.00   0.00   1.25   4.00   4.00   4.00   4.00   4.00   4.00   4.00   1.61   0.00   0.00      0      0      0       0    2139
 1992 365   174   171   21.0      5   2.41   3438   3844   6511   7106  16776   3704  175.8  0.388   9494      7  0.000  0.000  0.230  0.000   0.82  68.58   0.57      0   9494     70.1   0.00   0.00   1.25   4.00   4.00   4.00   4.00   4.00   4.00   4.00   1.61   0.00   0.00      0      0      0       0    2175
 1992 366   175   172   21.0      5   2.35   3438   3757   6725   7070  16904   3704  181.6  0.398   9708      7  0.000  0.000  0.237  0.000   0.81  69.27   0.57      0   9708     68.2   0.00   0.00   1.25   4.00   4.00   4.00   4.00   4.00   4.00   4.00   1.61   0.00   0.00      0      0      0       0    2210
 1993 001   176   173   21.0      5   2.28   3438   3653   6956   7035  17029   3704  187.8  0.408   9939      7  0.000  0.000  0.241  0.000   0.79  69.98   0.58      0   9939     66.4   0.00   0.00   1.25   4.00   4.00   4.00   4.00   4.00   4.00   4.00   1.61   0.00   0.00      0      0      0       0    2246
 1993 002   177   174   21.0      5   2.22   3438   3539   7190   7000  17151   3704  194.1  0.419  10174      7  0.000  0.000  0.261  0.284   0.77  70.68   0.59      0  10174     64.6   0.00   0.00   1.25   4.00   4.00   4.00   4.00   4.00   4.00   4.00   1.61   0.00   0.00      0      0      0       0    2281
 1993 003   178   175   21.0      5   2.16   3438   3417   7430   6965  17269   3704  200.6  0.430  10413      7  0.000  0.000  0.278  0.548   0.76  71.35   0.60      0  10413     62.8   0.00   0.00   1.25   4.00   4.00   4.00   4.00   4.00   4.00   4.00   1.61   0.00   0.00      0      0      0       0    2316
 1993 004   179   176   21.0      5   2.10   3438   3327   7708   6930  17455   3704  208.1  0.442  10691      7  0.000  0.000  0.292  0.553   0.73  72.10   0.61      0  10691     60.9   0.00   0.00   1.25   4.00   4.00   4.00   4.00   4.00   4.00   4.00   1.61   0.00   0.00      0      0      0       0    2351
 1993 005   180   177   21.0      5   2.03   3438   3330   7985   6897  17736   3704  215.6  0.450  10969      7  0.000  0.000  0.315  0.265   0.70  72.80   0.62      0  10969     59.1   0.00   0.00   1.25   3.92   3.92   3.92   3.92   3.92   3.92   3.92   1.58   0.00   0.00      0      0      0       0    2385
 1993 006   181   178   21.0      5   1.97   3438   3362   8263   6878  18046   3704  223.1  0.458  11247      7  0.000  0.000  0.341  0.066   0.67  73.47   0.62      0  11247     57.3   0.00   0.00   1.25   3.96   3.96   3.96   3.92   3.92   3.92   3.91   1.58   0.00   0.00      0      0      0       0    2420
 1993 007   182   179   21.0      5   1.91   3438   3216   8541   6844  18179   3704  230.6  0.470  11524      7  0.000  0.000  0.382  0.035   0.65  74.11   0.63      0  11524     55.4   0.00   0.00   1.25   3.96   3.96   3.96   3.92   3.92   3.92   3.91   1.58   0.00   0.00      0      0      0       0    2454
 1993 008   183   180   21.0      5   1.84   3438   3133   8819   6810  18373   3704  238.1  0.480  11802      7  0.000  0.000  0.431  0.197   0.64  74.72   0.64      0  11802     53.5   0.00   0.00   1.25   3.96   3.96   3.96   3.92   3.92   3.92   3.91   1.58   0.00   0.00      0      0      0       0    2488
 1993 009   184   181   21.0      5   1.77   3438   3148   9073   6783  18642   3704  244.9  0.487  12056      7  0.000  0.000  0.448  0.097   0.61  75.26   0.65      0  12056     51.6   0.00   0.00   1.25   3.96   3.96   3.96   3.91   3.91   3.90   3.90   1.57   0.00   0.00      0      0      0       0    2522
 1993 010   185   182   21.0      5   1.71   3438   3138   9351   6749  18910   3704  252.4  0.494  12334      7  0.000  0.000  0.472  0.035   0.59  75.81   0.65      0  12334     49.7   0.00   0.00   1.25   3.96   3.96   3.96   3.91   3.91   3.90   3.90   1.57   0.00   0.00      0      0      0       0    2556
 1993 011   186   183   21.0      5   1.65   3438   3109   9629   6715  19158   3704  259.9  0.503  12612      7  0.000  0.000  0.510  0.000   0.58  76.35   0.66      0  12612     47.9   0.00   0.00   1.25   3.96   3.96   3.96   3.91   3.91   3.90   3.90   1.57   0.00   0.00      0      0      0       0    2590
 1993 012   187   184   21.0      5   1.58   3438   3060   9906   6682  19388   3704  267.4  0.511  12890      7  0.000  0.000  0.533  0.000   0.57  76.86   0.66      0  12890     46.0   0.00   0.00   1.25   3.96   3.96   3.96   3.91   3.91   3.90   3.90   1.57   0.00   0.00      0      0      0       0    2624
 1993 013   188   185   21.0      5   1.58   3438   3060   9906   6682  19388   3704  267.4  0.511  12890      7  0.000  0.000  0.533  0.000   0.57  76.86   0.66      0  12890     46.0   0.00   0.00   1.25   3.96   3.96   3.96   3.91   3.91   3.90   3.90   1.57   0.00   0.00      0      0      0       0    2624
 1993 014   189   186   21.0      5   1.58   3438   3060   9906   6682  19388   3704  267.4  0.511  12890      7  0.000  0.000  0.533  0.000   0.57  76.86   0.66      0  12890     46.0   0.00   0.00   1.25   3.96   3.96   3.96   3.91   3.91   3.90   3.90   1.57   0.00   0.00      0      0      0       0    2624
 1993 015   190   187   21.0      5   1.58   3438   3060   9906   6682  19388   3704  267.4  0.511  12890      7  0.000  0.000  0.533  0.000   0.57  76.86   0.66      0  12890     46.0   0.00   0.00   1.25   3.96   3.96   3.96   3.91   3.91   3.90   3.90   1.57   0.00   0.00      0      0      0       0    2624
