*SOIL NITROGEN DAILY OUTPUT FILE

*DSSAT Cropping System Model Ver. 4.0.2.000               Aug 03, 2016; 12:24:35

*RUN   1        : UYMZ                    
 MODEL          : MZCER040 - Maize           
 EXPERIMENT     : UYMZ0109 MZ    late to create DSS                             
 TREATMENT  1   : UYMZ                    

@YEAR DOY   DAS  NAPC  NI#M    NLCC   NIAD    NOAD   NITD   NHTD  NI1D  NI2D  NI3D  NI4D  NI5D  NI6D  NI7D  NI8D  NI9D  NI10  NH1D  NH2D  NH3D  NH4D  NH5D  NH6D  NH7D  NH8D  NH9D  NH10    NMNC    NITC    NDNC    NIMC    AMLC
 1990 191     0     0     0     0.0   99.3   16646   76.4   22.8  16.0  15.2  15.1   8.6   4.6   0.0   0.1   0.1   0.0   0.0   0.6   1.3   1.5   1.4   1.4  1.50  1.46  1.45  0.00  0.00    0.52    1.62    0.00    0.00    0.00
 1990 192     1     0     0     0.0   99.8   16645   77.7   22.1  16.3  15.5  15.3   8.7   4.6   0.0   0.1   0.1   0.0   0.0   0.3   1.2   1.4   1.4   1.4  1.51  1.43  1.41  0.00  0.00    1.02    2.86    0.00    0.00    0.00
 1990 193     2     0     0     0.0  100.3   16645   78.8   21.5  16.5  15.6  15.4   8.8   4.7   0.1   0.1   0.2   0.0   0.0   0.2   1.1   1.4   1.3   1.4  1.51  1.40  1.37  0.00  0.00    1.53    3.94    0.00    0.00    0.00
 1990 194     3     0     0     0.0  100.8   16644   79.8   21.0   5.8  16.1  18.9   8.8   4.8   0.1   0.2   0.2   0.0   0.0   0.2   1.0   1.4   1.3   1.3  1.51  1.37  1.32  0.00  0.00    2.03    4.95    0.00    0.00    0.00
 1990 195     4     0     0     0.0  101.3   16644   80.6   20.7   5.9  15.6  19.3   9.0   4.8   0.1   0.2   0.2   0.0   0.0   0.1   1.1   1.4   1.3   1.3  1.51  1.33  1.28  0.00  0.00    2.54    5.76    0.00    0.00    0.00
 1990 196     5     0     0     0.0  101.8   16643   81.5   20.3   5.9  15.6  19.5   9.1   4.9   0.1   0.3   0.3   0.0   0.0   0.1   1.0   1.4   1.2   1.2  1.52  1.30  1.25  0.00  0.00    3.05    6.71    0.00    0.00    0.00
 1990 197     6     0     0     0.0  102.4   16642   82.5   19.9   5.2  15.9  19.7   9.3   4.9   0.1   0.3   0.3   0.0   0.0   0.1   0.9   1.3   1.2   1.2  1.52  1.27  1.21  0.00  0.00    3.59    7.67    0.00    0.00    0.00
 1990 198     7     0     0     0.0  102.9   16642   83.2   19.7   5.1  15.7  20.0   9.4   5.0   0.1   0.4   0.4   0.0   0.0   0.2   0.9   1.3   1.1   1.2  1.52  1.25  1.17  0.00  0.00    4.13    8.42    0.00    0.00    0.00
 1990 199     8     0     0     0.0  103.4   16641   84.2   19.3   4.5  15.6  20.3   9.6   5.0   0.2   0.4   0.4   0.0   0.0   0.1   0.9   1.3   1.1   1.1  1.53  1.22  1.14  0.00  0.00    4.65    9.35    0.00    0.00    0.00
 1990 200     9     0     0     0.0  103.9   16641   84.9   19.0   4.6  15.4  20.5   9.7   5.1   0.2   0.4   0.5   0.0   0.0   0.1   0.9   1.3   1.1   1.1  1.53  1.19  1.10  0.00  0.00    5.14   10.07    0.00    0.00    0.00
 1990 201    10     0     0     0.0  104.4   16640   85.6   18.7   4.7  15.4  20.6   9.9   5.1   0.2   0.5   0.5   0.0   0.0   0.1   0.9   1.3   1.0   1.1  1.53  1.17  1.07  0.00  0.00    5.59   10.84    0.00    0.00    0.00
 1990 202    11     0     0     0.0  104.7   16640   86.3   18.4   4.7  15.5  20.5  10.0   5.2   0.2   0.5   0.5   0.0   0.0   0.1   0.8   1.3   1.0   1.0  1.53  1.14  1.04  0.00  0.00    5.97   11.52    0.00    0.00    0.00
 1990 203    12     0     0     0.0  105.1   16640   87.0   18.1   4.8  15.6  20.5  10.2   5.2   0.2   0.5   0.6   0.0   0.0   0.1   0.8   1.3   1.0   1.0  1.54  1.12  1.01  0.00  0.00    6.31   12.15    0.00    0.00    0.00
 1990 204    13     0     0     0.0  105.4   16639   87.5   17.8   5.0  15.6  20.5  10.3   5.2   0.2   0.6   0.6   0.0   0.0   0.1   0.7   1.2   1.0   1.0  1.54  1.10  0.98  0.00  0.00    6.61   12.72    0.00    0.00    0.00
 1990 205    14     0     0     0.0  105.7   16639   88.1   17.6   5.1  15.6  20.5  10.4   5.3   0.3   0.6   0.6   0.0   0.0   0.1   0.7   1.2   0.9   1.0  1.54  1.08  0.96  0.00  0.00    6.92   13.28    0.00    0.00    0.00
 1990 206    15     0     0     0.0  106.0   16639   88.7   17.4   5.3  15.6  20.5  10.5   5.3   0.3   0.6   0.6   0.0   0.0   0.1   0.6   1.2   0.9   1.0  1.54  1.06  0.93  0.00  0.00    7.25   13.85    0.00    0.00    0.00
 1990 207    16     0     0     0.0  106.3   16638   89.2   17.1   5.4  15.6  20.5  10.6   5.3   0.3   0.7   0.7   0.0   0.0   0.1   0.6   1.2   0.9   0.9  1.54  1.04  0.91  0.00  0.00    7.58   14.40    0.00    0.00    0.00
 1990 208    17     0     0     0.0  106.7   16638   89.8   16.9   5.6  15.6  20.5  10.7   5.4   0.3   0.7   0.7   0.0   0.0   0.1   0.6   1.2   0.9   0.9  1.54  1.02  0.88  0.00  0.00    7.92   14.96    0.00    0.00    0.00
 1990 209    18     0     0     0.0  107.1   16638   90.3   16.7   5.8  15.6  20.5  10.8   5.4   0.3   0.7   0.7   0.0   0.0   0.1   0.6   1.2   0.9   0.9  1.55  1.00  0.86  0.00  0.00    8.30   15.54    0.00    0.00    0.00
 1990 210    19     0     0     0.0  107.4   16637   90.9   16.5   5.9  15.6  20.6  10.9   5.4   0.3   0.7   0.8   0.0   0.0   0.1   0.6   1.2   0.9   0.9  1.55  0.98  0.83  0.00  0.00    8.68   16.10    0.00    0.00    0.00
 1990 211    20     0     0     0.0  107.8   16637   91.5   16.3   6.1  15.6  20.6  11.0   5.5   0.4   0.8   0.8   0.0   0.0   0.1   0.5   1.2   0.8   0.9  1.55  0.96  0.81  0.00  0.00    9.04   16.64    0.00    0.00    0.00
 1990 212    21     0     0     0.0  108.2   16637   92.0   16.2   6.3  15.6  20.6  11.0   5.5   0.4   0.8   0.8   0.0   0.0   0.1   0.5   1.1   0.8   0.9  1.55  0.95  0.79  0.00  0.00    9.42   17.19    0.00    0.00    0.00
 1990 213    22     0     0     0.0  108.6   16636   92.6   16.0   6.4  15.6  20.7  11.1   5.5   0.4   0.8   0.8   0.0   0.0   0.1   0.5   1.1   0.8   0.8  1.56  0.93  0.77  0.00  0.00    9.81   17.75    0.00    0.00    0.00
 1990 214    23     0     0     0.0  109.0   16636   93.1   15.9   6.6  15.6  20.7  11.2   5.6   0.4   0.9   0.9   0.0   0.0   0.1   0.5   1.1   0.8   0.8  1.56  0.91  0.75  0.00  0.00   10.21   18.29    0.00    0.00    0.00
 1990 215    24     0     0     0.0  109.4   16635   93.7   15.7   6.8  15.6  20.8  11.2   5.6   0.4   0.9   0.9   0.0   0.0   0.1   0.5   1.1   0.8   0.8  1.56  0.90  0.73  0.00  0.00   10.65   18.87    0.00    0.00    0.00
 1990 216    25     0     0     0.0  109.9   16635   94.3   15.6   6.9  15.6  20.9  11.3   5.6   0.4   0.9   0.9   0.0   0.0   0.1   0.5   1.1   0.8   0.8  1.56  0.88  0.71  0.00  0.00   11.12   19.48    0.00    0.00    0.00
 1990 217    26     0     0     0.0  110.4   16634   94.9   15.5   7.1  15.7  20.9  11.4   5.7   0.4   0.9   0.9   0.0   0.0   0.1   0.5   1.1   0.8   0.8  1.56  0.86  0.69  0.00  0.00   11.65   20.12    0.00    0.00    0.00
 1990 218    27     0     0     0.0  111.0   16634   95.6   15.4   7.3  15.7  21.0  11.4   5.7   0.5   1.0   1.0   0.0   0.0   0.1   0.5   1.1   0.8   0.8  1.57  0.85  0.67  0.00  0.00   12.23   20.82    0.00    0.00    0.00
 1990 219    28     0     0     0.0  111.6   16633   96.4   15.2   7.6  15.7  21.1  11.5   5.7   0.5   1.0   1.0   0.0   0.0   0.1   0.5   1.1   0.7   0.8  1.57  0.83  0.65  0.00  0.00   12.85   21.56    0.00    0.00    0.00
 1990 220    29     0     0     0.0  112.1   16633   97.0   15.1   7.7  15.7  21.2  11.6   5.8   0.5   1.0   1.0   0.0   0.0   0.1   0.5   1.1   0.7   0.7  1.57  0.82  0.63  0.00  0.00   13.50   22.34    0.00    0.00    0.00
 1990 221    30     0     0     0.0  112.8   16632   97.8   15.0   7.9  15.7  21.3  11.6   5.8   0.5   1.0   1.0   0.0   0.0   0.1   0.5   1.1   0.7   0.7  1.57  0.80  0.61  0.00  0.00   14.18   23.13    0.00    0.00    0.00
 1990 222    31     0     0     0.0  113.4   16631   98.5   14.8   8.2  15.8  21.5  11.7   5.9   0.5   1.1   1.1   0.0   0.0   0.1   0.5   1.1   0.7   0.7  1.58  0.79  0.60  0.00  0.00   14.82   23.92    0.00    0.00    0.00
 1990 223    32     0     0     0.0  114.0   16631   99.3   14.7   8.4  15.9  21.6  11.8   5.9   0.6   1.1   1.1   0.0   0.0   0.1   0.5   1.1   0.7   0.7  1.58  0.77  0.58  0.00  0.00   15.44   24.67    0.00    0.00    0.00
 1990 224    33     0     0     0.0  114.6   16630  100.0   14.6   8.6  15.9  21.7  11.8   5.9   0.6   1.1   1.1   0.0   0.0   0.1   0.4   1.1   0.7   0.7  1.58  0.76  0.57  0.00  0.00   16.08   25.43    0.00    0.00    0.00
 1990 225    34     0     0     0.0  115.2   16629  100.7   14.5   8.8  16.0  21.8  11.9   6.0   0.6   1.1   1.1   0.0   0.0   0.1   0.4   1.1   0.7   0.7  1.58  0.75  0.55  0.00  0.00   16.70   26.18    0.00    0.00    0.00
 1990 226    35     0     0     0.0  115.8   16629  101.5   14.3   9.0  16.0  21.9  11.9   6.0   0.6   1.2   1.1   0.0   0.0   0.1   0.4   1.1   0.7   0.7  1.58  0.73  0.54  0.00  0.00   17.33   26.94    0.00    0.00    0.00
 1990 227    36     0     0     0.0  116.4   16628  102.2   14.2   4.8  15.7  23.8  12.0   6.0   0.6   1.2   1.2   0.0   0.0   0.1   0.4   1.1   0.7   0.7  1.59  0.72  0.52  0.00  0.00   17.97   27.71    0.00    0.00    0.00
 1990 228    37     0     0     0.0  116.8   16627  102.5   14.3   4.7  15.2  24.0  12.1   6.1   0.7   1.2   1.2   0.0   0.0   0.2   0.5   1.1   0.7   0.7  1.59  0.71  0.51  0.00  0.00   18.66   28.29    0.00    0.00    0.00
 1990 229    38     0     0     0.0  117.2   16627  102.9   14.3   4.9  15.0  24.0  12.3   6.1   0.7   1.2   1.2   0.0   0.0   0.1   0.6   1.1   0.6   0.7  1.59  0.70  0.49  0.00  0.00   19.30   28.95    0.00    0.00    0.00
 1990 230    39     0     0     0.0  117.6   16626  103.3   14.2   5.1  14.9  24.0  12.4   6.1   0.7   1.3   1.2   0.0   0.0   0.1   0.6   1.1   0.6   0.7  1.59  0.69  0.48  0.00  0.00   19.92   29.65    0.00    0.00    0.00
 1990 231    40     0     0     0.0  117.8   16626  103.7   14.1   5.3  14.9  23.9  12.5   6.2   0.7   1.3   1.2   0.0   0.0   0.1   0.6   1.1   0.6   0.6  1.59  0.68  0.47  0.00  0.00   20.49   30.30    0.00    0.00    0.00
 1990 232    41     0     0     0.0  118.1   16625  104.0   14.1   5.6  14.8  23.8  12.6   6.2   0.7   1.3   1.2   0.0   0.0   0.1   0.6   1.1   0.6   0.6  1.60  0.67  0.46  0.00  0.00   21.05   30.92    0.00    0.00    0.00
 1990 233    42     0     0     0.0  118.2   16624  104.2   14.0   5.8  14.7  23.7  12.7   6.2   0.8   1.3   1.3   0.0   0.0   0.1   0.5   1.1   0.6   0.6  1.60  0.66  0.45  0.00  0.00   21.62   31.56    0.00    0.00    0.00
 1990 234    43     0     0     0.0  118.3   16624  104.4   13.9   6.1  14.6  23.5  12.8   6.3   0.8   1.3   1.3   0.0   0.0   0.1   0.5   1.1   0.6   0.6  1.60  0.65  0.44  0.00  0.00   22.20   32.21    0.00    0.00    0.00
 1990 235    44     0     0     0.0  118.5   16623  104.7   13.8   6.3  14.5  23.5  12.9   6.3   0.8   1.4   1.3   0.0   0.0   0.1   0.5   1.1   0.6   0.6  1.60  0.64  0.43  0.00  0.00   22.77   32.83    0.00    0.00    0.00
 1990 236    45     0     0     0.0  118.5   16623  104.7   13.8   6.5  14.4  23.3  12.9   6.3   0.8   1.4   1.3   0.0   0.0   0.1   0.5   1.1   0.6   0.6  1.60  0.63  0.42  0.00  0.00   23.31   33.42    0.00    0.00    0.00
 1990 237    46     0     0     0.0  118.9   16622  105.2   13.7   6.7  14.4  23.4  13.0   6.3   0.8   1.4   1.3   0.0   0.0   0.1   0.5   1.1   0.6   0.6  1.61  0.62  0.41  0.00  0.00   23.82   34.00    0.00    0.00    0.00
 1990 238    47     0     0     0.0  119.2   16622  105.6   13.7   7.0  14.3  23.3  13.0   6.4   0.8   1.4   1.3   0.0   0.0   0.1   0.5   1.1   0.6   0.6  1.61  0.61  0.40  0.00  0.00   24.35   34.57    0.00    0.00    0.00
 1990 239    48     0     0     0.0  119.1   16621  105.5   13.6   2.8  10.7  23.1  15.8   7.0   0.9   1.4   1.3   0.0   0.0   0.1   0.5   1.1   0.6   0.6  1.61  0.60  0.39  0.00  0.00   24.89   35.16    0.00    0.00    0.00
 1990 240    49     0     0     0.0  119.0   16621  105.1   13.9   2.6  10.4  22.5  15.8   7.6   0.9   1.5   1.4   0.0   0.0   0.2   0.6   1.2   0.6   0.6  1.61  0.60  0.38  0.00  0.00   25.43   35.43    0.00    0.00    0.00
 1990 241    50     0     0     0.0  118.7   16620  104.7   14.0   2.7  10.1  21.7  15.5   8.0   1.0   1.5   1.4   0.0   0.0   0.1   0.6   1.2   0.7   0.6  1.61  0.59  0.37  0.00  0.00   25.96   35.77    0.00    0.00    0.00
 1990 242    51     0     0     0.0  119.2   16620  105.1   14.2   3.0  10.1  21.6  15.3   8.1   1.1   1.5   1.4   0.0   0.0   0.1   0.6   1.3   0.7   0.6  1.61  0.58  0.36  0.00  0.00   26.47   36.15    0.00    0.00    0.00
 1990 243    52     0     0     0.0  119.7   16619  105.5   14.3   3.4  10.1  21.6  15.2   8.2   1.2   1.5   1.4   0.0   0.0   0.1   0.6   1.3   0.7   0.6  1.62  0.58  0.36  0.00  0.00   26.97   36.57    0.00    0.00    0.00
 1990 244    53     0     0     0.0  120.1   16619  105.9   14.2   3.7  10.0  21.7  15.2   8.3   1.2   1.5   1.4   0.0   0.0   0.1   0.6   1.3   0.7   0.6  1.62  0.57  0.35  0.00  0.00   27.40   37.01    0.02    0.00    0.00
 1990 245    54     0     0     0.0  120.4   16618  106.2   14.2   3.7  10.1  21.7  15.2   8.3   1.2   1.6   1.4   0.0   0.0   0.1   0.6   1.3   0.7   0.7  1.62  0.56  0.34  0.00  0.00   27.80   37.42    0.02    0.00    0.00
 1990 246    55     0     0     0.0  120.8   16618  106.6   14.2   4.0  10.2  21.7  15.2   8.3   1.2   1.6   1.4   0.0   0.0   0.1   0.5   1.3   0.8   0.7  1.62  0.56  0.33  0.00  0.00   28.20   37.83    0.03    0.00    0.00
 1990 247    56     0     0     0.0  121.2   16617  107.0   14.2   4.2  10.2  21.7  15.2   8.3   1.3   1.6   1.4   0.0   0.0   0.1   0.5   1.3   0.8   0.7  1.62  0.55  0.33  0.00  0.00   28.61   38.24    0.03    0.00    0.00
 1990 248    57     0     0     0.0  121.5   16617  107.4   14.2   4.5  10.2  21.8  15.3   8.3   1.3   1.6   1.4   0.0   0.0   0.1   0.5   1.3   0.8   0.7  1.62  0.55  0.32  0.00  0.00   28.99   38.68    0.03    0.00    0.00
 1990 249    58     0     0     0.0  121.7   16617  107.6   14.1   4.7  10.2  21.7  15.3   8.3   1.3   1.6   1.5   0.0   0.0   0.1   0.5   1.3   0.8   0.7  1.62  0.54  0.32  0.00  0.00   29.41   39.14    0.04    0.00    0.00
 1990 250    59     0     0     0.0  122.1   16616  108.0   14.1   4.4  10.6  21.7  15.3   8.3   1.3   1.6   1.5   0.0   0.0   0.1   0.5   1.2   0.7   0.7  1.62  0.54  0.31  0.00  0.00   29.86   39.62    0.04    0.00    0.00
 1990 251    60     0     0     0.0  122.5   16616  108.4   14.1   2.6   9.0  21.4  16.4   8.8   1.4   1.7   1.5   0.0   0.0   0.2   0.5   1.2   0.7   0.7  1.63  0.53  0.30  0.00  0.00   30.34   40.09    0.04    0.00    0.00
 1990 252    61     0     0     0.2  122.5   16615  108.2   14.4   2.7   8.9  20.8  16.0   9.1   1.7   1.7   1.5   0.0   0.0   0.1   0.6   1.3   0.8   0.8  1.64  0.54  0.30  0.00  0.00   30.80   40.27    0.07    0.00    0.00
 1990 253    62     0     0     0.4  122.7   16615  108.1   14.7   2.9   8.7  20.4  15.8   9.3   1.8   1.7   1.5   0.0   0.0   0.1   0.6   1.4   0.8   0.8  1.65  0.54  0.30  0.00  0.00   31.31   40.45    0.08    0.00    0.00
 1990 254    63     0     0     0.4  122.5   16614  107.6   14.9   1.9   7.2  18.8  16.2  10.5   2.1   1.7   1.5   0.0   0.0   0.1   0.6   1.4   0.8   0.8  1.67  0.55  0.30  0.00  0.00   31.85   40.76    0.09    0.00    0.00
 1990 255    64     0     0     0.8  121.8   16614  106.5   15.3   1.8   7.0  18.1  15.7  10.5   2.4   1.8   1.5   0.0   0.0   0.2   0.7   1.5   0.8   0.8  1.68  0.55  0.30  0.00  0.00   32.42   40.89    0.18    0.00    0.00
 1990 256    65     0     0     1.1  121.1   16613  105.5   15.6   2.0   6.8  17.5  15.3  10.4   2.6   1.8   1.5   0.0   0.0   0.1   0.8   1.5   0.9   0.8  1.70  0.56  0.30  0.00  0.00   32.99   41.13    0.45    0.00    0.00
 1990 257    66     0     0     1.2  120.6   16613  104.8   15.8   2.2   6.7  17.1  15.1  10.4   2.7   1.8   1.6   0.0   0.0   0.1   0.7   1.6   0.9   0.9  1.71  0.56  0.30  0.00  0.00   33.54   41.48    0.57    0.00    0.00
 1990 258    67     0     0     1.2  120.4   16612  104.7   15.8   2.5   6.6  17.0  15.0  10.4   2.7   1.8   1.6   0.0   0.0   0.1   0.7   1.5   0.9   0.9  1.73  0.57  0.30  0.00  0.00   34.05   41.96    0.62    0.00    0.00
 1990 259    68     0     0     1.2  120.0   16612  104.2   15.8   2.7   6.6  16.7  15.0  10.3   2.8   1.8   1.6   0.0   0.0   0.1   0.6   1.5   0.9   0.9  1.74  0.57  0.30  0.00  0.00   34.52   42.38    0.65    0.00    0.00
 1990 260    69     0     0     1.2  119.0   16611  103.2   15.8   2.8   6.4  16.2  14.9  10.4   2.8   1.8   1.6   0.0   0.0   0.1   0.6   1.4   0.9   0.9  1.75  0.58  0.30  0.00  0.00   34.98   42.79    0.66    0.00    0.00
 1990 261    70     0     0     1.3  118.5   16611  102.8   15.7   1.5   5.1  14.8  15.2  11.5   3.1   1.9   1.6   0.0   0.0   0.1   0.6   1.4   0.9   0.9  1.76  0.58  0.30  0.00  0.00   35.46   43.26    0.67    0.00    0.00
 1990 262    71     0     0     1.7  117.4   16610  101.4   16.1   1.4   4.9  14.0  14.6  11.3   3.4   2.0   1.6   0.0   0.0   0.2   0.7   1.4   0.9   0.9  1.78  0.59  0.30  0.00  0.00   35.96   43.38    0.78    0.00    0.00
 1990 263    72     0     0     2.0  117.5   16610  101.1   16.4   1.6   4.8  13.8  14.3  11.2   3.5   2.1   1.6   0.0   0.0   0.1   0.7   1.5   0.9   1.0  1.79  0.59  0.31  0.00  0.00   36.48   43.60    0.85    0.00    0.00
 1990 264    73     0     0     2.1  117.3   16609  100.8   16.5   1.7   4.8  13.6  14.1  11.1   3.6   2.1   1.7   0.0   0.0   0.1   0.7   1.5   1.0   1.0  1.81  0.60  0.31  0.00  0.00   37.01   43.93    0.89    0.00    0.00
 1990 265    74     0     0     2.1  116.2   16609   99.7   16.5   1.8   4.7  13.2  13.9  11.1   3.6   2.1   1.7   0.0   0.0   0.1   0.6   1.5   1.0   1.0  1.82  0.60  0.31  0.00  0.00   37.53   44.42    0.91    0.00    0.00
 1990 266    75     0     0     2.1  115.2   16608   98.7   16.5   1.9   4.6  12.8  13.7  11.1   3.7   2.1   1.7   0.0   0.0   0.1   0.6   1.4   1.0   1.0  1.83  0.61  0.31  0.00  0.00   38.06   44.89    0.94    0.00    0.00
 1990 267    76     0     0     2.1  114.8   16608   98.3   16.5   2.1   4.6  12.6  13.6  11.1   3.7   2.1   1.7   0.0   0.0   0.1   0.6   1.4   1.0   1.0  1.85  0.61  0.31  0.00  0.00   38.57   45.33    0.96    0.00    0.00
 1990 268    77     0     0     2.1  114.4   16607   98.0   16.4   2.2   4.6  12.4  13.6  11.1   3.7   2.1   1.7   0.0   0.0   0.1   0.6   1.3   1.0   1.0  1.86  0.62  0.31  0.00  0.00   39.06   45.83    0.97    0.00    0.00
 1990 269    78     0     0     2.1  114.1   16607   97.7   16.4   2.3   4.6  12.2  13.5  11.1   3.7   2.2   1.7   0.0   0.0   0.1   0.6   1.3   0.9   1.0  1.87  0.62  0.31  0.00  0.00   39.55   46.31    0.98    0.00    0.00
 1990 270    79     0     0     2.1  113.6   16606   97.2   16.4   2.4   4.6  11.9  13.4  11.1   3.7   2.2   1.7   0.0   0.0   0.1   0.5   1.3   0.9   1.1  1.88  0.63  0.31  0.00  0.00   40.03   46.79    0.99    0.00    0.00
 1990 271    80     0     0     2.1  112.1   16606   95.8   16.3   2.5   4.5  11.4  13.2  11.0   3.7   2.2   1.7   0.0   0.0   0.1   0.5   1.2   0.9   1.1  1.90  0.63  0.31  0.00  0.00   40.54   47.27    1.00    0.00    0.00
 1990 272    81     0     0     2.1  111.7   16605   95.4   16.3   2.5   4.5  11.3  13.1  11.0   3.7   2.2   1.7   0.0   0.0   0.1   0.5   1.2   0.9   1.1  1.91  0.64  0.31  0.00  0.00   41.08   47.77    1.01    0.00    0.00
 1990 273    82     0     0     2.1  109.6   16604   93.3   16.2   2.5   4.3  10.6  12.9  10.9   3.7   2.2   1.7   0.0   0.0   0.1   0.5   1.1   0.8   1.1  1.92  0.64  0.31  0.00  0.00   41.64   48.30    1.02    0.00    0.00
 1990 274    83     0     0     2.1  107.8   16604   91.7   16.1   2.5   4.2  10.0  12.6  10.8   3.7   2.2   1.7   0.0   0.0   0.1   0.5   1.1   0.8   1.0  1.94  0.65  0.31  0.00  0.00   42.24   48.94    1.02    0.00    0.00
 1990 275    84     0     0     2.1  104.8   16603   88.9   15.9   2.5   4.0   9.2  12.2  10.6   3.7   2.2   1.7   0.0   0.0   0.1   0.5   1.0   0.8   1.0  1.95  0.65  0.31  0.00  0.00   42.87   49.61    1.03    0.00    0.00
 1990 276    85     0     0     2.1  101.6   16603   85.9   15.7   2.4   3.7   8.4  11.8  10.4   3.7   2.2   1.7   0.0   0.0   0.1   0.5   1.0   0.8   1.0  1.96  0.66  0.31  0.00  0.00   43.49   50.26    1.04    0.00    0.00
 1990 277    86     0     0     2.1   98.6   16602   83.0   15.6   2.3   3.5   7.6  11.3  10.1   3.7   2.2   1.7   0.0   0.0   0.1   0.4   0.9   0.7   0.9  1.98  0.66  0.31  0.00  0.00   44.12   50.92    1.04    0.00    0.00
 1990 278    87     0     0     2.1   95.0   16601   79.6   15.4   2.1   3.2   6.8  10.8   9.7   3.7   2.2   1.7   0.0   0.0   0.1   0.4   0.9   0.7   0.9  1.99  0.67  0.31  0.00  0.00   44.78   51.60    1.05    0.00    0.00
 1990 279    88     0     0     2.1   93.6   16601   78.2   15.3   1.2   3.3   6.6  10.6   9.5   3.7   2.2   1.7   0.0   0.0   0.1   0.4   0.9   0.7   0.8  2.01  0.67  0.31  0.00  0.00   45.41   52.23    1.05    0.00    0.00
 1990 280    89     0     0     2.1   90.9   16600   75.4   15.5   1.0   3.0   6.1  10.1   9.2   3.7   2.2   1.7   0.0   0.0   0.2   0.5   0.8   0.7   0.8  2.02  0.68  0.31  0.00  0.00   46.09   52.66    1.06    0.00    0.00
 1990 281    90     0     0     2.2   89.0   16599   73.4   15.6   0.4   1.8   4.6   8.8   9.7   4.5   2.4   1.8   0.0   0.0   0.3   0.6   0.8   0.7   0.8  2.04  0.68  0.32  0.00  0.00   46.76   53.10    1.06    0.00    0.00
 1990 282    91     0     0     2.9   85.6   16599   69.6   16.0   0.4   1.5   4.1   7.9   8.9   4.5   2.6   1.8   0.0   0.0   0.4   0.7   0.9   0.7   0.8  2.05  0.69  0.32  0.00  0.00   47.39   53.24    1.14    0.00    0.00
 1990 283    92     0     0     3.2   80.9   16598   65.0   16.0   0.6   1.2   3.2   7.0   8.0   4.5   2.7   1.9   0.0   0.0   0.1   0.7   0.9   0.7   0.8  2.06  0.69  0.32  0.00  0.00   48.00   53.58    1.18    0.00    0.00
 1990 284    93     0     0     3.4   77.7   16598   61.9   15.8   0.7   1.2   2.7   6.5   7.5   4.4   2.7   1.9   0.0   0.0   0.1   0.6   0.9   0.7   0.8  2.05  0.70  0.32  0.00  0.00   48.61   54.07    1.20    0.00    0.00
 1990 285    94     0     0     3.5   75.9   16597   60.2   15.7   0.3   0.9   2.1   5.3   7.1   4.9   3.1   2.0   0.0   0.0   0.1   0.6   0.8   0.7   0.8  2.04  0.70  0.32  0.00  0.00   49.22   54.58    1.22    0.00    0.00
 1990 286    95     0     0     4.3   69.9   16596   54.3   15.6   0.3   0.6   1.5   4.3   6.0   4.6   3.2   2.1   0.0   0.0   0.2   0.7   0.8   0.7   0.8  1.99  0.71  0.32  0.00  0.00   49.82   54.70    1.37    0.00    0.00
 1990 287    96     0     0     4.7   65.9   16596   50.6   15.3   0.5   0.5   1.2   3.9   5.4   4.3   3.2   2.1   0.0   0.0   0.1   0.7   0.8   0.7   0.8  1.93  0.71  0.32  0.00  0.00   50.43   55.06    1.44    0.00    0.00
 1990 288    97     0     0     4.9   61.9   16595   47.2   14.7   0.5   0.5   0.9   3.5   4.9   4.0   3.1   2.2   0.0   0.0   0.1   0.6   0.7   0.7   0.8  1.85  0.72  0.32  0.00  0.00   51.05   55.57    1.48    0.00    0.00
 1990 289    98     0     0     5.0   58.0   16595   44.0   14.1   0.4   0.5   0.7   3.1   4.4   3.7   3.1   2.2   0.0   0.0   0.1   0.6   0.7   0.6   0.7  1.76  0.72  0.32  0.00  0.00   51.65   56.11    1.50    0.00    0.00
 1990 290    99     0     0     5.0   54.6   16594   41.0   13.6   0.4   0.5   0.6   2.8   4.0   3.4   3.1   2.2   0.0   0.0   0.1   0.5   0.7   0.6   0.7  1.67  0.73  0.32  0.00  0.00   52.26   56.61    1.50    0.00    0.00
 1990 291   100     0     0     5.0   53.0   16593   39.7   13.3   0.5   0.5   0.5   2.6   3.8   3.2   3.1   2.2   0.0   0.0   0.1   0.5   0.7   0.6   0.7  1.63  0.73  0.32  0.00  0.00   52.86   57.10    1.51    0.00    0.00
 1990 292   101     0     0     5.0   47.5   16593   35.1   12.5   0.3   0.4   0.3   2.1   3.1   2.8   3.1   2.2   0.0   0.0   0.1   0.5   0.6   0.6   0.6  1.46  0.73  0.32  0.00  0.00   53.48   57.65    1.51    0.00    0.00
 1990 293   102     0     0     5.0   43.9   16592   32.0   11.9   0.2   0.4   0.3   1.8   2.6   2.4   3.1   2.2   0.0   0.0   0.2   0.5   0.6   0.6   0.6  1.34  0.74  0.32  0.00  0.00   54.11   58.13    1.51    0.00    0.00
 1990 294   103     0     0     5.0   39.7   16592   28.5   11.3   0.4   0.3   0.3   1.4   2.1   2.0   3.1   2.2   0.0   0.0   0.1   0.6   0.6   0.6   0.6  1.19  0.74  0.32  0.00  0.00   54.75   58.60    1.52    0.00    0.00
 1990 295   104     0     0     5.0   36.4   16591   25.8   10.6   0.4   0.4   0.3   1.1   1.6   1.6   3.2   2.2   0.0   0.0   0.1   0.5   0.6   0.5   0.6  1.08  0.75  0.32  0.00  0.00   55.40   59.16    1.52    0.00    0.00
 1990 296   105     0     0     5.0   33.8   16590   23.6   10.2   0.4   0.4   0.3   0.8   1.3   1.4   3.2   2.2   0.0   0.0   0.1   0.5   0.6   0.5   0.5  0.98  0.75  0.32  0.00  0.00   56.08   59.70    1.52    0.00    0.00
 1990 297   106     0     0     5.0   31.7   16590   21.9    9.9   0.4   0.4   0.3   0.7   1.0   1.1   3.2   2.2   0.0   0.0   0.1   0.5   0.6   0.5   0.5  0.91  0.75  0.32  0.00  0.00   56.75   60.24    1.52    0.00    0.00
 1990 298   107     0     0     5.0   30.1   16589   20.5    9.6   0.4   0.4   0.3   0.5   0.8   0.9   3.2   2.2   0.0   0.0   0.1   0.5   0.6   0.5   0.5  0.84  0.76  0.32  0.00  0.00   57.42   60.76    1.52    0.00    0.00
 1990 299   108     0     0     5.0   28.8   16588   19.4    9.4   0.4   0.4   0.3   0.4   0.7   0.8   3.2   2.2   0.0   0.0   0.1   0.5   0.6   0.5   0.5  0.79  0.76  0.32  0.00  0.00   58.08   61.28    1.53    0.00    0.00
 1990 300   109     0     0     5.0   27.7   16588   18.6    9.2   0.4   0.4   0.3   0.4   0.6   0.7   3.2   2.2   0.0   0.0   0.1   0.5   0.6   0.5   0.5  0.75  0.76  0.32  0.00  0.00   58.74   61.81    1.53    0.00    0.00
 1990 301   110     0     0     5.0   26.9   16587   17.9    9.0   0.4   0.4   0.3   0.3   0.5   0.5   3.2   2.2   0.0   0.0   0.1   0.5   0.6   0.5   0.5  0.72  0.77  0.32  0.00  0.00   59.39   62.35    1.53    0.00    0.00
 1990 302   111     0     0     5.0   26.3   16586   17.4    8.9   0.4   0.4   0.3   0.3   0.4   0.5   3.2   2.2   0.0   0.0   0.1   0.5   0.6   0.5   0.5  0.69  0.77  0.33  0.00  0.00   60.03   62.87    1.53    0.00    0.00
 1990 303   112     0     0     5.0   25.8   16586   16.9    8.9   0.1   0.4   0.4   0.3   0.3   0.4   3.2   2.2   0.0   0.0   0.2   0.5   0.6   0.5   0.5  0.67  0.77  0.33  0.00  0.00   60.69   63.34    1.53    0.00    0.00
 1990 304   113     0     0     5.0   25.5   16585   16.7    8.8   0.4   0.3   0.3   0.3   0.3   0.3   3.2   2.2   0.0   0.0   0.1   0.6   0.6   0.5   0.5  0.65  0.76  0.33  0.00  0.00   61.39   63.89    1.53    0.00    0.00
 1990 305   114     0     0     5.0   25.3   16584   16.6    8.7   0.3   0.4   0.3   0.3   0.3   0.3   3.3   2.2   0.0   0.0   0.1   0.5   0.6   0.5   0.5  0.64  0.75  0.33  0.00  0.00   62.09   64.48    1.53    0.00    0.00
 1990 306   115     0     0     5.0   25.1   16584   16.5    8.6   0.3   0.4   0.3   0.3   0.3   0.3   3.3   2.2   0.0   0.0   0.2   0.5   0.6   0.5   0.5  0.62  0.73  0.33  0.00  0.00   62.77   65.00    1.53    0.00    0.00
 1990 307   116     0     0     5.0   24.3   16583   15.9    8.4   0.6   0.4   0.3   0.3   0.3   0.3   3.0   2.2   0.0   0.0   0.1   0.5   0.6   0.5   0.5  0.61  0.70  0.33  0.00  0.00   63.46   65.68    1.53    0.00    0.00
 1990 308   117     0     0     5.0   23.2   16582   14.9    8.3   0.0   0.4   0.4   0.3   0.3   0.3   2.6   2.2   0.0   0.0   0.1   0.5   0.6   0.5   0.5  0.61  0.66  0.33  0.00  0.00   64.15   66.24    1.53    0.00    0.00
 1990 309   118     0     0     5.0   22.3   16582   13.8    8.5   0.1   0.3   0.3   0.3   0.3   0.3   2.3   2.3   0.0   0.0   0.2   0.6   0.7   0.5   0.5  0.60  0.63  0.33  0.00  0.00   64.84   66.46    1.53    0.00    0.00
 1990 310   119     0     0     5.0   21.8   16581   13.3    8.4   0.3   0.3   0.3   0.3   0.3   0.3   2.0   2.3   0.0   0.0   0.1   0.6   0.7   0.5   0.5  0.59  0.61  0.33  0.00  0.00   65.50   66.89    1.54    0.00    0.00
 1990 311   120     0     0     5.0   21.1   16581   13.0    8.1   0.4   0.4   0.3   0.3   0.3   0.3   1.8   2.3   0.0   0.0   0.1   0.5   0.6   0.5   0.5  0.58  0.59  0.33  0.00  0.00   66.15   67.45    1.54    0.00    0.00
 1990 312   121     0     0     5.0   20.4   16580   12.4    8.1   0.3   0.4   0.3   0.3   0.3   0.3   1.6   2.3   0.0   0.0   0.2   0.5   0.6   0.5   0.5  0.58  0.57  0.33  0.00  0.00   66.78   67.90    1.54    0.00    0.00
 1990 313   122     0     0     5.0   19.9   16579   12.0    8.0   0.4   0.4   0.3   0.3   0.3   0.3   1.4   2.3   0.0   0.0   0.1   0.5   0.6   0.5   0.5  0.58  0.55  0.33  0.00  0.00   67.36   68.40    1.54    0.00    0.00
 1990 314   123     0     0     5.0   19.4   16579   11.5    7.9   0.4   0.4   0.3   0.3   0.3   0.3   1.2   2.3   0.0   0.0   0.1   0.5   0.6   0.5   0.5  0.57  0.54  0.33  0.00  0.00   67.94   68.86    1.54    0.00    0.00
 1990 315   124     0     0     5.0   19.1   16578   11.2    7.9   0.4   0.4   0.3   0.3   0.3   0.3   1.1   2.3   0.0   0.0   0.1   0.5   0.6   0.5   0.5  0.57  0.53  0.33  0.00  0.00   68.53   69.33    1.54    0.00    0.00
 1990 316   125     0     0     5.0   18.8   16578   11.0    7.8   0.4   0.4   0.3   0.3   0.3   0.3   1.0   2.3   0.0   0.0   0.1   0.5   0.6   0.5   0.5  0.57  0.52  0.32  0.00  0.00   69.16   69.85    1.54    0.00    0.00
 1990 317   126     0     0     5.0   18.5   16577   10.7    7.8   0.4   0.4   0.3   0.3   0.3   0.3   0.9   2.3   0.0   0.0   0.1   0.5   0.6   0.5   0.5  0.56  0.51  0.32  0.00  0.00   69.79   70.36    1.54    0.00    0.00
 1990 318   127     0     0     5.0   18.3   16576   10.6    7.7   0.4   0.4   0.3   0.3   0.3   0.3   0.8   2.3   0.0   0.0   0.1   0.5   0.6   0.5   0.5  0.56  0.50  0.31  0.00  0.00   70.48   70.95    1.54    0.00    0.00
 1990 319   128     0     0     5.0   18.1   16576   10.5    7.7   0.4   0.4   0.3   0.3   0.3   0.3   0.7   2.3   0.0   0.0   0.1   0.5   0.6   0.5   0.5  0.56  0.50  0.30  0.00  0.00   71.23   71.59    1.54    0.00    0.00
 1990 320   129     0     0     5.0   17.9   16575   10.3    7.6   0.1   0.3   0.4   0.3   0.4   0.3   0.6   2.3   0.0   0.0   0.1   0.5   0.6   0.5   0.5  0.56  0.49  0.30  0.00  0.00   71.96   72.22    1.54    0.00    0.00
 1990 321   130     0     0     5.0   17.9   16574    9.8    8.1   0.2   0.3   0.3   0.3   0.3   0.3   0.5   2.3   0.0   0.0   0.2   0.6   0.7   0.5   0.5  0.56  0.49  0.29  0.00  0.00   72.70   72.39    1.54    0.00    0.00
 1990 322   131     0     0     5.0   18.0   16574    9.8    8.2   0.5   0.3   0.3   0.3   0.3   0.3   0.5   2.3   0.0   0.0   0.1   0.7   0.7   0.6   0.5  0.56  0.48  0.29  0.00  0.00   73.47   72.79    1.54    0.00    0.00
 1990 323   132     0     0     5.0   17.7   16573    9.8    7.9   0.3   0.5   0.3   0.3   0.3   0.3   0.4   2.3   0.0   0.0   0.1   0.5   0.6   0.6   0.5  0.57  0.47  0.28  0.00  0.00   74.22   73.43    1.54    0.00    0.00
 1990 324   133     0     0     5.0   17.1   16572    9.4    7.7   0.4   0.4   0.3   0.3   0.3   0.3   0.4   2.2   0.0   0.0   0.1   0.5   0.6   0.5   0.5  0.57  0.47  0.28  0.00  0.00   74.98   74.07    1.54    0.00    0.00
 1990 325   134     0     0     5.0   16.7   16571    9.0    7.7   0.4   0.4   0.3   0.3   0.3   0.3   0.4   2.0   0.0   0.0   0.1   0.5   0.6   0.5   0.5  0.57  0.46  0.27  0.00  0.00   75.75   74.71    1.54    0.00    0.00
 1990 326   135    26     2     5.0   42.3   16571   21.8   20.6  23.9   0.4   0.3   0.3   0.3   0.3   0.3   1.9   0.0   0.0  23.4   0.5   0.6   0.5   0.5  0.57  0.46  0.27  0.00  0.00   76.57   75.38    1.54    0.00    0.03
 1990 327   136    26     2     5.0   24.5   16570   16.9    7.5  15.8   0.4   0.3   0.3   0.3   0.3   0.3   1.8   0.0   0.0   0.0   0.5   0.6   0.5   0.5  0.57  0.45  0.26  0.00  0.00   77.39   80.42    1.54    0.00    0.06
 1990 328   137    26     2     5.0   18.3   16569   10.7    7.6   5.1   0.4   0.3   0.3   0.3   0.3   0.3   1.7   0.0   0.0   0.2   0.5   0.6   0.5   0.5  0.57  0.44  0.26  0.00  0.00   78.20   80.99    1.54    0.00    0.06
 1990 329   138    26     2     5.0   16.1   16568    8.6    7.5   1.9   0.4   0.3   0.3   0.3   0.3   0.3   1.6   0.0   0.0   0.0   0.5   0.6   0.5   0.5  0.57  0.44  0.25  0.00  0.00   78.98   81.69    1.54    0.00    0.09
 1990 330   139    26     2     5.0   15.2   16568    7.7    7.5   0.0   0.6   0.4   0.3   0.3   0.3   0.3   1.5   0.0   0.0   0.1   0.5   0.6   0.5   0.5  0.57  0.43  0.25  0.00  0.00   79.75   82.26    1.54    0.00    0.10
 1990 331   140    26     2     5.0   14.8   16567    7.1    7.6   0.0   0.4   0.3   0.3   0.3   0.3   0.3   1.4   0.0   0.0   0.2   0.6   0.6   0.5   0.5  0.57  0.43  0.24  0.00  0.00   80.50   82.67    1.54    0.00    0.12
 1990 332   141    26     2     5.0   14.5   16566    7.1    7.4   0.4   0.4   0.3   0.3   0.3   0.3   0.3   1.3   0.0   0.0   0.0   0.5   0.6   0.5   0.5  0.57  0.42  0.24  0.00  0.00   81.22   83.38    1.54    0.00    0.15
 1990 333   142    26     2     5.0   14.2   16566    6.8    7.4   0.3   0.4   0.3   0.3   0.3   0.3   0.3   1.3   0.0   0.0   0.1   0.5   0.6   0.5   0.5  0.57  0.42  0.24  0.00  0.00   81.91   83.90    1.54    0.00    0.15
 1990 334   143    26     2     5.0   14.0   16565    6.7    7.3   0.4   0.4   0.3   0.3   0.3   0.3   0.3   1.2   0.0   0.0   0.1   0.5   0.6   0.5   0.5  0.56  0.41  0.23  0.00  0.00   82.59   84.47    1.54    0.00    0.18
 1990 335   144    26     2     5.0   13.8   16564    6.5    7.3   0.3   0.4   0.3   0.3   0.3   0.3   0.3   1.1   0.0   0.0   0.1   0.5   0.6   0.5   0.5  0.56  0.41  0.23  0.00  0.00   83.26   84.99    1.54    0.00    0.19
 1990 336   145    26     2     5.0   13.6   16564    6.4    7.3   0.4   0.4   0.3   0.3   0.3   0.3   0.3   1.0   0.0   0.0   0.1   0.5   0.6   0.5   0.5  0.56  0.40  0.23  0.00  0.00   83.92   85.54    1.54    0.00    0.19
 1990 337   146    26     2     5.0   13.5   16563    6.3    7.2   0.3   0.4   0.3   0.3   0.3   0.3   0.3   1.0   0.0   0.0   0.1   0.5   0.6   0.5   0.5  0.56  0.40  0.22  0.00  0.00   84.57   86.09    1.54    0.00    0.20
 1990 338   147    26     2     5.0   13.3   16563    6.1    7.2   0.3   0.4   0.3   0.3   0.3   0.3   0.3   0.9   0.0   0.0   0.2   0.5   0.6   0.5   0.5  0.56  0.39  0.22  0.00  0.00   85.21   86.57    1.54    0.00    0.20
 1990 339   148    26     2     5.0   13.2   16562    6.1    7.1   0.5   0.4   0.3   0.3   0.3   0.3   0.3   0.9   0.0   0.0   0.1   0.5   0.6   0.5   0.5  0.56  0.39  0.22  0.00  0.00   85.83   87.19    1.54    0.00    0.20
 1990 340   149    26     2     5.0   13.0   16561    5.9    7.1   0.1   0.3   0.4   0.4   0.3   0.3   0.3   0.8   0.0   0.0   0.1   0.5   0.6   0.5   0.5  0.56  0.38  0.21  0.00  0.00   86.47   87.73    1.54    0.00    0.20
 1990 341   150    26     2     5.0   12.8   16561    5.4    7.5   0.0   0.1   0.2   0.2   0.3   0.3   0.3   0.8   0.0   0.0   0.2   0.6   0.7   0.5   0.5  0.55  0.38  0.21  0.00  0.00   87.18   87.94    1.54    0.00    0.21
 1990 342   151    26     2     5.0   13.0   16560    5.0    7.9   0.1   0.1   0.2   0.2   0.2   0.3   0.3   0.8   0.0   0.0   0.3   0.7   0.7   0.6   0.5  0.57  0.39  0.21  0.00  0.00   87.94   88.10    1.54    0.00    0.21
 1990 343   152    26     2     5.1   13.0   16559    5.1    7.9   0.6   0.2   0.2   0.2   0.3   0.2   0.3   0.7   0.0   0.0   0.0   0.7   0.7   0.6   0.5  0.58  0.39  0.20  0.00  0.00   88.73   88.53    1.54    0.00    0.21
 1990 344   153    26     2     5.8   12.3   16559    4.5    7.8   0.0   0.3   0.2   0.2   0.2   0.3   0.3   0.5   0.0   0.0   0.1   0.5   0.7   0.6   0.6  0.58  0.38  0.20  0.00  0.00   89.48   88.90    1.54    0.00    0.21
 1990 345   154    26     2     6.0   12.4   16558    4.1    8.2   0.0   0.3   0.2   0.2   0.2   0.2   0.2   0.5   0.0   0.0   0.2   0.6   0.8   0.6   0.6  0.59  0.39  0.20  0.00  0.00   90.15   88.98    1.54    0.00    0.22
 1990 346   155    26     2     6.1   12.5   16557    4.2    8.2   0.3   0.3   0.2   0.2   0.2   0.2   0.2   0.4   0.0   0.0   0.1   0.7   0.7   0.6   0.6  0.60  0.40  0.21  0.00  0.00   90.83   89.23    1.55    0.00    0.22
 1990 347   156    26     2     6.1   12.5   16557    4.3    8.2   0.4   0.3   0.2   0.2   0.2   0.2   0.2   0.4   0.0   0.0   0.1   0.7   0.7   0.6   0.6  0.60  0.41  0.21  0.00  0.00   91.50   89.42    1.55    0.00    0.22
 1990 348   157    26     2     6.1   12.5   16556    4.5    8.0   0.4   0.4   0.3   0.2   0.3   0.2   0.3   0.4   0.0   0.0   0.1   0.5   0.6   0.6   0.6  0.60  0.41  0.21  0.00  0.00   92.16   89.86    1.55    0.00    0.22
 1990 349   158    26     2     6.1   12.4   16556    4.7    7.8   0.4   0.4   0.3   0.3   0.3   0.3   0.3   0.3   0.0   0.0   0.1   0.5   0.6   0.6   0.6  0.60  0.41  0.21  0.00  0.00   92.84   90.38    1.55    0.00    0.23
 1990 350   159    26     2     6.1   12.3   16555    4.7    7.7   0.4   0.4   0.3   0.3   0.3   0.3   0.3   0.3   0.0   0.0   0.1   0.5   0.6   0.6   0.6  0.60  0.41  0.21  0.00  0.00   93.56   90.93    1.55    0.00    0.23
 1990 351   160    26     2     6.1   12.3   16554    4.7    7.6   0.4   0.4   0.3   0.3   0.3   0.3   0.3   0.3   0.0   0.0   0.1   0.5   0.6   0.6   0.6  0.60  0.41  0.21  0.00  0.00   94.31   91.50    1.55    0.00    0.23
 1990 352   161    26     2     6.1   12.2   16554    4.7    7.6   0.2   0.3   0.3   0.3   0.3   0.3   0.3   0.3   0.0   0.0   0.1   0.5   0.6   0.5   0.5  0.60  0.41  0.20  0.00  0.00   95.10   92.11    1.55    0.00    0.23
 1990 353   162    26     2     6.1   12.3   16553    4.2    8.0   0.2   0.3   0.3   0.3   0.3   0.3   0.3   0.3   0.0   0.0   0.2   0.6   0.7   0.6   0.6  0.60  0.41  0.20  0.00  0.00   95.91   92.28    1.55    0.00    0.24
 1990 354   163    26     2     6.1   12.5   16552    4.4    8.1   0.6   0.3   0.3   0.3   0.3   0.3   0.3   0.3   0.0   0.0   0.0   0.7   0.7   0.6   0.6  0.60  0.41  0.20  0.00  0.00   96.75   92.68    1.55    0.00    0.24
 1990 355   164    26     2     6.1   12.4   16552    4.6    7.9   0.3   0.5   0.3   0.3   0.3   0.3   0.3   0.3   0.0   0.0   0.1   0.5   0.6   0.6   0.6  0.60  0.41  0.20  0.00  0.00   97.59   93.25    1.55    0.00    0.24
 1990 356   165    26     2     6.1   12.4   16551    4.7    7.7   0.3   0.3   0.4   0.3   0.3   0.3   0.3   0.3   0.0   0.0   0.1   0.5   0.6   0.6   0.6  0.60  0.41  0.19  0.00  0.00   98.44   93.94    1.55    0.00    0.25
 1990 357   166    26     2     6.1   12.4   16550    4.2    8.2   0.3   0.3   0.3   0.3   0.3   0.3   0.3   0.3   0.0   0.0   0.2   0.6   0.7   0.6   0.6  0.60  0.41  0.19  0.00  0.00   99.24   94.08    1.55    0.00    0.25
 1990 358   167    26     2     6.1   12.6   16549    4.2    8.4   0.2   0.3   0.3   0.3   0.3   0.3   0.3   0.3   0.0   0.0   0.3   0.7   0.7   0.6   0.6  0.60  0.41  0.19  0.00  0.00  100.07   94.31    1.55    0.00    0.25
 1990 359   168    26     2     6.2   12.8   16549    4.1    8.7   0.3   0.3   0.3   0.3   0.2   0.2   0.3   0.3   0.0   0.0   0.4   0.8   0.8   0.6   0.6  0.61  0.42  0.19  0.00  0.00  100.87   94.47    1.55    0.00    0.25
 1990 360   169    26     2     6.2   13.0   16548    4.5    8.5   0.8   0.3   0.3   0.3   0.3   0.3   0.3   0.3   0.0   0.0   0.0   0.7   0.8   0.7   0.6  0.61  0.42  0.19  0.00  0.00  101.69   94.96    1.55    0.00    0.26
 1990 361   170    26     2     6.2   12.7   16547    4.4    8.3   0.3   0.5   0.3   0.3   0.3   0.3   0.3   0.3   0.0   0.0   0.1   0.5   0.8   0.7   0.6  0.61  0.42  0.19  0.00  0.00  102.52   95.40    1.55    0.00    0.26
 1990 362   171    26     2     6.2   12.6   16547    4.8    7.9   0.5   0.4   0.3   0.3   0.3   0.3   0.3   0.3   0.0   0.0   0.1   0.5   0.6   0.6   0.6  0.61  0.42  0.19  0.00  0.00  103.39   96.16    1.55    0.00    0.26
 1990 363   172    26     2     6.2   12.4   16546    4.6    7.8   0.4   0.4   0.3   0.3   0.3   0.3   0.3   0.3   0.0   0.0   0.1   0.5   0.6   0.6   0.6  0.61  0.42  0.18  0.00  0.00  104.23   96.80    1.55    0.00    0.27
 1990 364   173    26     2     6.2   12.3   16545    4.6    7.7   0.4   0.4   0.3   0.3   0.3   0.3   0.3   0.3   0.0   0.0   0.1   0.5   0.6   0.6   0.6  0.61  0.42  0.18  0.00  0.00  105.06   97.44    1.55    0.00    0.27
 1990 365   174    26     2     6.2   12.3   16545    4.6    7.6   0.4   0.4   0.3   0.3   0.3   0.3   0.3   0.3   0.0   0.0   0.1   0.5   0.6   0.6   0.6  0.61  0.42  0.18  0.00  0.00  105.91   98.08    1.55    0.00    0.27
 1991 001   175    26     2     6.2   12.2   16544    4.6    7.6   0.4   0.4   0.3   0.3   0.3   0.3   0.3   0.3   0.0   0.0   0.1   0.5   0.6   0.5   0.5  0.60  0.42  0.18  0.00  0.00  106.73   98.70    1.55    0.00    0.28
 1991 002   176    26     2     6.2   12.1   16543    4.6    7.6   0.4   0.4   0.3   0.3   0.3   0.3   0.3   0.3   0.0   0.0   0.1   0.5   0.6   0.5   0.5  0.60  0.42  0.18  0.00  0.00  107.54   99.31    1.55    0.00    0.28
 1991 003   177    26     2     6.2   12.1   16542    4.6    7.5   0.4   0.4   0.3   0.3   0.3   0.3   0.3   0.3   0.0   0.0   0.1   0.5   0.6   0.5   0.5  0.60  0.42  0.18  0.00  0.00  108.37   99.95    1.55    0.00    0.28
 1991 004   178    26     2     6.2   12.1   16542    4.7    7.5   0.4   0.4   0.3   0.3   0.3   0.3   0.3   0.3   0.0   0.0   0.1   0.4   0.6   0.5   0.5  0.60  0.42  0.18  0.00  0.00  109.22  100.61    1.55    0.00    0.28
 1991 005   179    26     2     6.2   12.1   16541    4.7    7.4   0.4   0.4   0.3   0.3   0.3   0.3   0.3   0.3   0.0   0.0   0.1   0.4   0.6   0.5   0.5  0.60  0.42  0.18  0.00  0.00  110.04  101.27    1.55    0.00    0.29
 1991 006   180    26     2     6.2   12.0   16540    4.6    7.4   0.4   0.4   0.3   0.3   0.3   0.3   0.3   0.3   0.0   0.0   0.1   0.4   0.6   0.5   0.5  0.60  0.42  0.18  0.00  0.00  110.83  101.91    1.55    0.00    0.29
 1991 007   181    26     2     6.2   11.9   16540    4.6    7.3   0.4   0.4   0.3   0.3   0.3   0.3   0.3   0.3   0.0   0.0   0.1   0.4   0.6   0.5   0.5  0.60  0.42  0.18  0.00  0.00  111.59  102.54    1.55    0.00    0.29
 1991 008   182    26     2     6.2   11.8   16539    4.6    7.2   0.2   0.4   0.4   0.3   0.3   0.3   0.3   0.3   0.0   0.0   0.1   0.4   0.6   0.5   0.5  0.60  0.42  0.18  0.00  0.00  112.32  103.16    1.55    0.00    0.29
 1991 009   183    26     2     6.2   12.7   16538    5.1    7.6   0.3   0.4   0.5   0.4   0.3   0.3   0.3   0.3   0.0   0.0   0.1   0.5   0.6   0.5   0.5  0.61  0.42  0.17  0.00  0.00  113.21  103.66    1.55    0.00    0.29
 1991 010   184    26     2     6.2   13.6   16538    5.9    7.7   0.5   0.7   0.6   0.4   0.4   0.3   0.3   0.3   0.0   0.0   0.1   0.5   0.7   0.5   0.5  0.63  0.42  0.17  0.00  0.00  114.08  104.42    1.55    0.00    0.29

*DSSAT Cropping System Model Ver. 4.0.2.000               Aug 03, 2016; 12:24:35

*RUN   2        : UYMZ                    
 MODEL          : MZCER040 - Maize           
 EXPERIMENT     : UYMZ0109 MZ    late to create DSS                             
 TREATMENT  1   : UYMZ                    

@YEAR DOY   DAS  NAPC  NI#M    NLCC   NIAD    NOAD   NITD   NHTD  NI1D  NI2D  NI3D  NI4D  NI5D  NI6D  NI7D  NI8D  NI9D  NI10  NH1D  NH2D  NH3D  NH4D  NH5D  NH6D  NH7D  NH8D  NH9D  NH10    NMNC    NITC    NDNC    NIMC    AMLC
 1991 191     0     0     0     0.0   99.4   16645   76.9   22.5  13.2  16.9  15.2   8.6   4.6   0.0   0.1   0.1   0.0   0.0   0.3   1.3   1.5   1.4   1.4  1.50  1.46  1.45  0.00  0.00    0.64    2.07    0.00    0.00    0.00
 1991 192     1     0     0     0.0  100.0   16645   78.1   21.9  12.7  17.4  15.4   8.7   4.7   0.0   0.1   0.1   0.0   0.0   0.2   1.1   1.4   1.4   1.4  1.51  1.43  1.41  0.00  0.00    1.24    3.34    0.00    0.00    0.00
 1991 193     2     0     0     0.0  100.5   16644   79.2   21.3  12.6  17.6  15.5   8.8   4.7   0.1   0.2   0.2   0.0   0.0   0.1   1.0   1.4   1.3   1.3  1.51  1.39  1.36  0.00  0.00    1.77    4.40    0.00    0.00    0.00
 1991 194     3     0     0     0.0  101.0   16644   80.1   20.9   6.0  15.9  19.2   8.9   4.8   0.1   0.2   0.2   0.0   0.0   0.1   0.9   1.4   1.3   1.3  1.51  1.36  1.32  0.00  0.00    2.24    5.31    0.00    0.00    0.00
 1991 195     4     0     0     0.0  101.4   16643   80.8   20.6   6.1  15.4  19.5   9.0   4.8   0.1   0.2   0.2   0.0   0.0   0.1   1.0   1.4   1.2   1.3  1.51  1.33  1.28  0.00  0.00    2.63    5.99    0.00    0.00    0.00
 1991 196     5     0     0     0.0  101.7   16643   81.4   20.3   6.1  15.3  19.5   9.2   4.9   0.1   0.3   0.3   0.0   0.0   0.1   1.0   1.3   1.2   1.2  1.52  1.31  1.25  0.00  0.00    2.96    6.62    0.00    0.00    0.00
 1991 197     6     0     0     0.0  102.0   16643   82.1   19.9   6.1  15.4  19.5   9.3   4.9   0.1   0.3   0.3   0.0   0.0   0.1   0.9   1.3   1.2   1.2  1.52  1.28  1.21  0.00  0.00    3.27    7.31    0.00    0.00    0.00
 1991 198     7     0     0     0.0  102.4   16642   82.8   19.6   6.2  15.5  19.5   9.4   5.0   0.1   0.3   0.4   0.0   0.0   0.1   0.9   1.3   1.1   1.2  1.52  1.25  1.18  0.00  0.00    3.61    7.99    0.00    0.00    0.00
 1991 199     8     0     0     0.0  102.8   16642   83.5   19.2   2.0   9.3  17.0  12.5   8.3   0.6   0.4   0.4   0.0   0.0   0.1   0.8   1.3   1.1   1.1  1.52  1.23  1.14  0.00  0.00    4.01    8.72    0.00    0.00    0.00
 1991 200     9     0     0     0.0  103.2   16642   83.7   19.5   1.5   8.4  16.4  12.4   8.7   1.0   0.4   0.4   0.0   0.0   0.1   0.9   1.4   1.1   1.2  1.54  1.23  1.13  0.00  0.00    4.45    8.87    0.00    0.00    0.00
 1991 201    10     0     0     0.0  103.6   16641   83.8   19.8   1.6   8.3  16.1  12.3   8.8   1.1   0.5   0.4   0.0   0.0   0.1   0.9   1.4   1.2   1.2  1.55  1.23  1.13  0.00  0.00    4.92    9.06    0.00    0.00    0.00
 1991 202    11     0     0     1.1  103.1   16641   83.0   20.1   0.5   4.0  10.9  10.5   9.4   4.1   1.8   0.5   0.0   0.0   0.1   1.0   1.5   1.2   1.2  1.57  1.23  1.12  0.00  0.00    5.45    9.27    0.00    0.00    0.00
 1991 203    12     0     0     2.3  102.4   16640   81.9   20.5   0.2   2.4   8.0   8.6   8.8   5.2   3.0   1.9   0.0   0.0   0.2   1.0   1.6   1.2   1.2  1.59  1.24  1.12  0.00  0.00    5.97    9.38    0.00    0.00    0.00
 1991 204    13     0     0     4.1  100.7   16640   79.8   20.9   0.1   1.7   6.5   7.5   8.3   5.6   3.6   2.3   0.0   0.0   0.2   1.1   1.6   1.2   1.2  1.60  1.24  1.11  0.00  0.00    6.44    9.51    0.37    0.00    0.00
 1991 205    14     0     0     5.2   99.7   16639   78.6   21.1   0.3   1.7   6.3   7.2   8.0   5.5   3.7   2.4   0.0   0.0   0.2   1.1   1.7   1.3   1.3  1.62  1.24  1.11  0.00  0.00    6.88    9.70    0.70    0.00    0.00
 1991 206    15     0     0     5.9   99.2   16639   77.9   21.4   0.4   1.7   6.2   7.1   7.9   5.5   3.7   2.5   0.0   0.0   0.1   1.2   1.7   1.3   1.3  1.64  1.25  1.11  0.00  0.00    7.32    9.92    0.89    0.00    0.00
 1991 207    16     0     0     6.3   99.1   16638   77.7   21.4   0.5   1.8   6.2   7.0   7.8   5.4   3.8   2.5   0.0   0.0   0.1   1.1   1.8   1.3   1.3  1.65  1.25  1.10  0.00  0.00    7.73   10.28    1.00    0.00    0.00
 1991 208    17     0     0     6.6   99.3   16638   77.9   21.5   0.6   1.9   6.2   6.9   7.7   5.4   3.8   2.5   0.0   0.0   0.1   1.0   1.8   1.3   1.3  1.66  1.25  1.09  0.00  0.00    8.18   10.68    1.05    0.00    0.00
 1991 209    18     0     0     6.7   99.7   16637   78.3   21.3   0.7   2.1   6.3   6.9   7.7   5.4   3.8   2.6   0.0   0.0   0.1   0.9   1.8   1.3   1.3  1.68  1.25  1.08  0.00  0.00    8.71   11.31    1.08    0.00    0.00
 1991 210    19     0     0     6.7  100.3   16637   79.0   21.2   0.9   2.2   6.5   7.0   7.7   5.4   3.8   2.6   0.0   0.0   0.1   0.8   1.7   1.3   1.3  1.69  1.24  1.07  0.00  0.00    9.31   12.03    1.10    0.00    0.00
 1991 211    20     0     0     6.7  100.7   16636   79.6   21.1   1.0   2.3   6.6   7.0   7.8   5.4   3.8   2.6   0.0   0.0   0.1   0.7   1.7   1.3   1.3  1.71  1.24  1.06  0.00  0.00    9.97   12.79    1.12    0.00    0.00
 1991 212    21     0     0     6.7  101.4   16635   80.4   20.9   0.7   2.2   6.5   7.3   8.0   5.5   3.9   2.6   0.0   0.0   0.1   0.7   1.6   1.3   1.3  1.73  1.24  1.05  0.00  0.00   10.65   13.67    1.13    0.00    0.00
 1991 213    22     0     0     7.3  101.4   16635   80.1   21.3   0.8   2.1   6.4   7.1   7.8   5.5   4.0   2.7   0.0   0.0   0.1   0.8   1.7   1.3   1.3  1.74  1.24  1.05  0.00  0.00   11.28   13.94    1.18    0.00    0.00
 1991 214    23     0     0     7.6  101.6   16634   80.1   21.5   0.9   2.1   6.3   6.9   7.7   5.6   4.0   2.8   0.0   0.0   0.1   0.8   1.8   1.3   1.4  1.76  1.24  1.04  0.00  0.00   11.83   14.21    1.21    0.00    0.00
 1991 215    24     0     0     7.7  102.0   16634   80.3   21.6   0.6   1.9   5.7   6.7   7.9   5.9   4.2   2.8   0.0   0.0   0.1   0.8   1.8   1.3   1.4  1.77  1.24  1.03  0.00  0.00   12.29   14.58    1.23    0.00    0.00
 1991 216    25     0     0     9.2  100.7   16633   78.9   21.9   0.4   1.4   4.8   5.9   7.3   6.1   4.7   3.4   0.0   0.0   0.1   0.8   1.9   1.3   1.4  1.78  1.24  1.02  0.00  0.00   12.68   14.75    1.35    0.00    0.00
 1991 217    26     0     0    10.8   99.2   16633   77.1   22.1   0.4   1.4   4.6   5.6   7.0   6.0   4.7   3.4   0.0   0.0   0.1   0.8   1.9   1.4   1.4  1.80  1.24  1.02  0.00  0.00   13.02   14.86    1.63    0.00    0.00
 1991 218    27     0     0    11.8   98.4   16633   76.1   22.3   0.4   1.4   4.5   5.5   6.8   5.9   4.7   3.5   0.0   0.0   0.1   0.9   1.9   1.4   1.4  1.81  1.25  1.01  0.00  0.00   13.36   15.04    1.79    0.00    0.00
 1991 219    28     0     0    12.3   98.1   16632   75.7   22.3   0.5   1.5   4.5   5.4   6.7   5.8   4.7   3.5   0.0   0.0   0.1   0.8   2.0   1.4   1.4  1.82  1.25  1.01  0.00  0.00   13.70   15.33    1.89    0.00    0.00
 1991 220    29     0     0    12.6   98.1   16632   75.7   22.4   0.6   1.6   4.5   5.4   6.7   5.8   4.7   3.5   0.0   0.0   0.1   0.8   2.0   1.4   1.4  1.84  1.25  1.00  0.00  0.00   14.07   15.64    1.94    0.00    0.00
 1991 221    30     0     0    12.8   98.2   16632   76.0   22.3   0.6   1.6   4.7   5.4   6.7   5.8   4.7   3.5   0.0   0.0   0.1   0.7   1.9   1.4   1.4  1.85  1.25  0.99  0.00  0.00   14.46   16.11    1.97    0.00    0.00
 1991 222    31     0     0    12.8   98.6   16631   76.4   22.2   0.7   1.7   4.8   5.4   6.7   5.8   4.7   3.5   0.0   0.0   0.1   0.7   1.9   1.4   1.4  1.86  1.24  0.99  0.00  0.00   14.88   16.60    1.98    0.00    0.00
 1991 223    32     0     0    12.8   99.0   16631   76.9   22.1   0.8   1.8   4.9   5.4   6.7   5.8   4.7   3.5   0.0   0.0   0.1   0.7   1.8   1.4   1.4  1.87  1.24  0.98  0.00  0.00   15.29   17.07    2.00    0.00    0.00
 1991 224    33     0     0    12.8   99.4   16630   77.4   22.1   0.9   1.9   5.0   5.5   6.7   5.8   4.7   3.6   0.0   0.0   0.1   0.6   1.8   1.4   1.4  1.89  1.24  0.97  0.00  0.00   15.71   17.55    2.01    0.00    0.00
 1991 225    34     0     0    12.8   99.9   16630   77.9   22.0   1.0   2.0   5.1   5.5   6.7   5.8   4.7   3.6   0.0   0.0   0.1   0.6   1.7   1.4   1.5  1.90  1.24  0.96  0.00  0.00   16.14   18.13    2.03    0.00    0.00
 1991 226    35     0     0    12.8  100.3   16629   78.5   21.8   1.1   2.0   5.2   5.6   6.7   5.8   4.7   3.6   0.0   0.0   0.1   0.6   1.7   1.3   1.5  1.91  1.24  0.96  0.00  0.00   16.58   18.70    2.04    0.00    0.00
 1991 227    36     0     0    12.8  100.8   16629   79.1   21.7   1.2   2.1   5.3   5.7   6.8   5.8   4.8   3.6   0.0   0.0   0.1   0.6   1.7   1.3   1.5  1.92  1.24  0.95  0.00  0.00   17.07   19.30    2.06    0.00    0.00
 1991 228    37     0     0    12.8  101.3   16628   79.7   21.6   1.3   2.2   5.4   5.8   6.8   5.8   4.8   3.6   0.0   0.0   0.1   0.6   1.6   1.2   1.5  1.94  1.24  0.94  0.00  0.00   17.61   19.96    2.07    0.00    0.00
 1991 229    38     0     0    12.8  101.9   16628   80.4   21.5   1.5   2.3   5.6   5.8   6.8   5.8   4.8   3.6   0.0   0.0   0.1   0.6   1.6   1.2   1.5  1.95  1.24  0.94  0.00  0.00   18.22   20.70    2.08    0.00    0.00
 1991 230    39     0     0    12.8  102.4   16627   81.1   21.3   1.6   2.5   5.7   5.9   6.8   5.8   4.8   3.6   0.0   0.0   0.1   0.5   1.5   1.1   1.5  1.97  1.23  0.93  0.00  0.00   18.88   21.48    2.10    0.00    0.00
 1991 231    40     0     0    12.8  102.9   16626   81.7   21.2   1.7   2.5   5.8   6.0   6.9   5.8   4.8   3.6   0.0   0.0   0.1   0.5   1.5   1.1   1.5  1.98  1.23  0.92  0.00  0.00   19.58   22.30    2.11    0.00    0.00
 1991 232    41     0     0    12.8  103.2   16626   82.1   21.1   1.8   2.6   5.8   6.1   6.9   5.8   4.8   3.6   0.0   0.0   0.1   0.5   1.4   1.1   1.5  2.00  1.23  0.91  0.00  0.00   20.27   23.09    2.12    0.00    0.00
 1991 233    42     0     0    12.8  103.5   16625   82.6   20.9   1.9   2.6   5.8   6.2   6.9   5.8   4.8   3.7   0.0   0.0   0.1   0.5   1.4   1.0   1.5  2.01  1.23  0.91  0.00  0.00   20.96   23.85    2.14    0.00    0.00
 1991 234    43     0     0    12.8  103.6   16624   82.8   20.8   2.0   2.6   5.8   6.2   6.9   5.8   4.8   3.7   0.0   0.0   0.1   0.5   1.3   1.0   1.5  2.03  1.23  0.90  0.00  0.00   21.64   24.60    2.15    0.00    0.00
 1991 235    44     0     0    12.8  103.7   16624   83.1   20.6   2.1   2.7   5.7   6.3   7.0   5.8   4.9   3.7   0.0   0.0   0.1   0.5   1.3   0.9   1.4  2.04  1.23  0.89  0.00  0.00   22.33   25.46    2.16    0.00    0.00
 1991 236    45     0     0    12.8  103.6   16623   83.2   20.4   2.2   2.6   5.5   6.4   7.1   5.9   4.9   3.7   0.0   0.0   0.1   0.5   1.2   0.9   1.4  2.06  1.23  0.88  0.00  0.00   23.01   26.30    2.17    0.00    0.00
 1991 237    46     0     0    12.8  103.4   16622   83.2   20.2   2.2   2.6   5.3   6.4   7.2   5.9   4.9   3.7   0.0   0.0   0.1   0.5   1.2   0.9   1.3  2.07  1.23  0.88  0.00  0.00   23.67   27.09    2.18    0.00    0.00
 1991 238    47     0     0    12.8  103.5   16622   83.5   20.0   2.3   2.6   5.2   6.5   7.3   5.9   4.9   3.7   0.0   0.0   0.1   0.5   1.1   0.9   1.3  2.08  1.23  0.87  0.00  0.00   24.33   27.86    2.19    0.00    0.00
 1991 239    48     0     0    12.8  103.6   16621   83.7   19.9   2.3   2.7   5.1   6.5   7.4   5.9   4.9   3.7   0.0   0.0   0.1   0.5   1.1   0.8   1.2  2.10  1.22  0.86  0.00  0.00   24.94   28.56    2.20    0.00    0.00
 1991 240    49     0     0    12.8  103.6   16621   83.8   19.8   2.4   2.7   5.0   6.6   7.4   5.9   4.9   3.7   0.0   0.0   0.1   0.5   1.1   0.8   1.2  2.11  1.22  0.86  0.00  0.00   25.51   29.20    2.21    0.00    0.00
 1991 241    50     0     0    12.8  103.6   16620   83.9   19.7   2.4   2.6   4.9   6.6   7.5   5.9   4.9   3.7   0.0   0.0   0.1   0.5   1.1   0.8   1.2  2.12  1.22  0.85  0.00  0.00   26.07   29.81    2.23    0.00    0.00
 1991 242    51     0     0    12.8  103.4   16619   83.8   19.6   2.4   2.6   4.7   6.7   7.6   5.9   4.9   3.8   0.0   0.0   0.1   0.5   1.0   0.8   1.1  2.14  1.22  0.85  0.00  0.00   26.63   30.43    2.24    0.00    0.00
 1991 243    52     0     0    12.8  103.1   16619   83.6   19.5   2.4   2.5   4.5   6.7   7.6   5.9   4.9   3.8   0.0   0.0   0.1   0.5   1.0   0.8   1.1  2.15  1.22  0.84  0.00  0.00   27.20   31.03    2.25    0.00    0.00
 1991 244    53     0     0    12.8  102.5   16618   83.1   19.4   1.5   2.7   4.2   6.7   7.7   5.9   5.0   3.8   0.0   0.0   0.1   0.5   1.0   0.8   1.1  2.16  1.22  0.83  0.00  0.00   27.76   31.63    2.26    0.00    0.00
 1991 245    54     0     0    12.8  102.1   16618   82.7   19.4   1.5   2.6   4.0   6.7   7.8   5.9   5.0   3.8   0.0   0.0   0.1   0.6   1.0   0.8   1.0  2.18  1.22  0.83  0.00  0.00   28.32   32.12    2.27    0.00    0.00
 1991 246    55     0     0    12.8  102.4   16617   82.9   19.4   1.6   2.5   4.0   6.7   7.8   5.9   5.0   3.8   0.0   0.0   0.1   0.6   1.0   0.7   1.0  2.19  1.22  0.82  0.00  0.00   28.87   32.60    2.28    0.00    0.00
 1991 247    56     0     0    12.8  102.0   16617   82.6   19.3   1.6   2.4   3.9   6.6   7.9   5.9   5.0   3.8   0.0   0.0   0.1   0.6   0.9   0.7   1.0  2.20  1.22  0.82  0.00  0.00   29.41   33.19    2.28    0.00    0.00
 1991 248    57     0     0    12.8  100.6   16616   81.4   19.2   1.4   2.2   3.4   6.5   7.9   5.9   5.0   3.8   0.0   0.0   0.1   0.6   0.9   0.7   1.0  2.21  1.22  0.81  0.00  0.00   29.97   33.76    2.29    0.00    0.00
 1991 249    58     0     0    12.8   99.0   16615   80.0   19.0   1.3   2.0   3.0   6.2   8.0   5.9   5.0   3.8   0.0   0.0   0.1   0.5   0.9   0.7   0.9  2.23  1.21  0.80  0.00  0.00   30.57   34.38    2.30    0.00    0.00
 1991 250    59     0     0    12.8   99.0   16615   80.0   19.0   1.3   2.1   2.9   6.1   8.0   5.9   5.0   3.8   0.0   0.0   0.1   0.5   0.9   0.7   0.9  2.24  1.21  0.80  0.00  0.00   31.21   35.01    2.31    0.00    0.00
 1991 251    60     0     0    12.8   98.5   16614   79.5   19.0   1.2   2.0   2.7   5.9   8.1   5.9   5.0   3.8   0.0   0.0   0.2   0.5   0.9   0.7   0.9  2.25  1.21  0.79  0.00  0.00   31.85   35.58    2.32    0.00    0.00
 1991 252    61     0     0    12.8   96.8   16614   78.0   18.8   1.2   1.8   2.3   5.6   8.1   5.9   5.0   3.8   0.0   0.0   0.1   0.5   0.8   0.6   0.9  2.27  1.21  0.79  0.00  0.00   32.47   36.22    2.33    0.00    0.00
 1991 253    62     0     0    12.8   95.7   16613   76.9   18.8   1.1   1.6   2.0   5.3   8.2   6.0   5.1   3.9   0.0   0.0   0.1   0.5   0.8   0.6   0.9  2.28  1.21  0.78  0.00  0.00   33.05   36.77    2.34    0.00    0.00
 1991 254    63     0     0    12.8   94.4   16612   75.7   18.7   1.0   1.4   1.8   5.0   8.1   6.0   5.1   3.9   0.0   0.0   0.1   0.5   0.8   0.6   0.8  2.29  1.21  0.78  0.00  0.00   33.61   37.29    2.35    0.00    0.00
 1991 255    64     0     0    12.8   92.1   16612   73.5   18.6   0.9   1.2   1.4   4.6   7.8   6.0   5.1   3.9   0.0   0.0   0.1   0.5   0.7   0.6   0.8  2.30  1.21  0.77  0.00  0.00   34.18   37.81    2.35    0.00    0.00
 1991 256    65     0     0    12.8   89.6   16611   71.1   18.5   0.8   1.0   1.1   4.2   7.4   6.0   5.1   3.9   0.0   0.0   0.1   0.5   0.7   0.6   0.8  2.31  1.21  0.77  0.00  0.00   34.78   38.36    2.36    0.00    0.00
 1991 257    66     0     0    12.8   87.2   16611   68.8   18.4   0.7   0.9   0.9   3.8   6.8   6.0   5.1   3.9   0.0   0.0   0.1   0.5   0.7   0.6   0.7  2.33  1.21  0.76  0.00  0.00   35.43   38.97    2.37    0.00    0.00
 1991 258    67     0     0    12.8   86.7   16610   68.3   18.4   0.5   1.0   0.9   3.7   6.6   6.0   5.1   3.9   0.0   0.0   0.1   0.5   0.7   0.6   0.7  2.34  1.21  0.76  0.00  0.00   36.08   39.55    2.38    0.00    0.00
 1991 259    68     0     0    12.8   85.8   16609   67.3   18.5   0.5   0.9   0.9   3.5   6.3   6.0   5.1   3.9   0.0   0.0   0.2   0.6   0.7   0.6   0.7  2.35  1.20  0.75  0.00  0.00   36.71   39.94    2.38    0.00    0.00
 1991 260    69     0     0    12.8   84.1   16609   65.5   18.6   0.3   0.7   0.8   3.2   5.8   6.0   5.1   3.9   0.0   0.0   0.3   0.6   0.7   0.6   0.7  2.37  1.20  0.75  0.00  0.00   37.34   40.34    2.39    0.00    0.00
 1991 261    70     0     0    15.7   79.9   16608   61.0   18.8   0.1   0.3   0.6   1.8   4.1   6.0   5.6   4.6   0.0   0.0   0.4   0.7   0.8   0.6   0.6  2.38  1.20  0.74  0.00  0.00   37.93   40.64    2.39    0.00    0.00
 1991 262    71     0     0    17.6   76.0   16608   57.2   18.8   0.4   0.3   0.3   1.5   3.3   5.7   5.4   4.5   0.0   0.0   0.2   0.7   0.7   0.6   0.7  2.39  1.21  0.74  0.00  0.00   38.47   40.88    2.54    0.00    0.00
 1991 263    72     0     0    18.6   72.7   16607   54.0   18.7   0.4   0.3   0.3   1.1   2.6   5.6   5.3   4.5   0.0   0.0   0.1   0.7   0.7   0.6   0.6  2.41  1.21  0.74  0.00  0.00   39.01   41.10    2.63    0.00    0.00
 1991 264    73     0     0    19.2   70.5   16606   52.1   18.4   0.4   0.4   0.3   0.8   2.0   5.5   5.3   4.5   0.0   0.0   0.1   0.5   0.6   0.6   0.6  2.42  1.21  0.74  0.00  0.00   39.60   41.53    2.68    0.00    0.00
 1991 265    74     0     0    19.4   69.0   16606   50.7   18.3   0.4   0.4   0.3   0.6   1.5   5.5   5.3   4.4   0.0   0.0   0.1   0.5   0.6   0.6   0.6  2.43  1.21  0.73  0.00  0.00   40.19   41.97    2.71    0.00    0.00
 1991 266    75     0     0    19.6   68.0   16605   49.7   18.3   0.4   0.4   0.3   0.5   1.2   5.5   5.3   4.4   0.0   0.0   0.1   0.5   0.6   0.5   0.6  2.44  1.21  0.73  0.00  0.00   40.79   42.46    2.73    0.00    0.00
 1991 267    76     0     0    19.6   67.3   16605   49.1   18.2   0.4   0.3   0.3   0.4   1.0   5.5   5.3   4.4   0.0   0.0   0.1   0.5   0.6   0.5   0.6  2.46  1.21  0.72  0.00  0.00   41.37   42.92    2.74    0.00    0.00
 1991 268    77     0     0    19.6   63.3   16604   46.0   17.3   0.4   0.4   0.3   0.4   0.8   4.8   5.3   4.4   0.0   0.0   0.1   0.5   0.6   0.5   0.6  2.23  1.21  0.72  0.00  0.00   41.95   43.38    2.75    0.00    0.00
 1991 269    78     0     0    19.6   58.4   16604   42.3   16.1   0.4   0.4   0.3   0.3   0.6   4.0   5.3   4.5   0.0   0.0   0.1   0.5   0.6   0.5   0.5  1.94  1.21  0.71  0.00  0.00   42.54   43.84    2.75    0.00    0.00
 1991 270    79     0     0    19.6   54.4   16603   39.4   15.0   0.4   0.3   0.3   0.3   0.5   3.3   5.3   4.5   0.0   0.0   0.1   0.5   0.6   0.5   0.5  1.69  1.21  0.71  0.00  0.00   43.10   44.34    2.76    0.00    0.00
 1991 271    80     0     0    19.6   51.1   16602   37.0   14.1   0.4   0.4   0.3   0.3   0.4   2.7   5.3   4.5   0.0   0.0   0.1   0.5   0.6   0.5   0.5  1.48  1.21  0.71  0.00  0.00   43.70   44.86    2.76    0.00    0.00
 1991 272    81     0     0    19.6   48.4   16602   35.0   13.4   0.4   0.4   0.3   0.3   0.4   2.3   5.3   4.5   0.0   0.0   0.1   0.5   0.6   0.5   0.5  1.31  1.21  0.70  0.00  0.00   44.29   45.36    2.77    0.00    0.00
 1991 273    82     0     0    19.6   46.2   16601   33.4   12.8   0.4   0.4   0.3   0.3   0.3   1.9   5.3   4.5   0.0   0.0   0.1   0.5   0.6   0.5   0.5  1.17  1.20  0.70  0.00  0.00   44.86   45.84    2.77    0.00    0.00
 1991 274    83     0     0    19.6   44.3   16601   32.0   12.3   0.3   0.4   0.3   0.3   0.3   1.6   5.3   4.5   0.0   0.0   0.1   0.5   0.6   0.5   0.5  1.06  1.20  0.69  0.00  0.00   45.42   46.32    2.78    0.00    0.00
 1991 275    84     0     0    19.6   42.9   16600   31.0   11.9   0.3   0.3   0.3   0.3   0.3   1.3   5.3   4.5   0.0   0.0   0.1   0.5   0.6   0.5   0.5  0.96  1.20  0.69  0.00  0.00   45.94   46.76    2.78    0.00    0.00
 1991 276    85     0     0    19.6   41.7   16600   30.1   11.6   0.3   0.3   0.3   0.3   0.3   1.1   5.4   4.5   0.0   0.0   0.1   0.5   0.6   0.5   0.5  0.89  1.20  0.68  0.00  0.00   46.42   47.17    2.79    0.00    0.00
 1991 277    86     0     0    19.6   40.7   16599   29.4   11.3   0.3   0.3   0.3   0.3   0.3   0.9   5.4   4.5   0.0   0.0   0.1   0.4   0.6   0.5   0.5  0.83  1.20  0.68  0.00  0.00   46.89   47.57    2.79    0.00    0.00
 1991 278    87     0     0    19.6   39.9   16599   28.9   11.0   0.3   0.3   0.3   0.3   0.3   0.7   5.4   4.5   0.0   0.0   0.1   0.4   0.6   0.5   0.5  0.78  1.20  0.68  0.00  0.00   47.37   47.98    2.79    0.00    0.00
 1991 279    88     0     0    19.6   39.2   16598   28.4   10.8   0.2   0.4   0.3   0.3   0.3   0.6   5.4   4.5   0.0   0.0   0.1   0.4   0.5   0.5   0.5  0.74  1.20  0.67  0.00  0.00   47.82   48.36    2.80    0.00    0.00
 1991 280    89     0     0    19.6   38.7   16598   27.9   10.8   0.1   0.2   0.3   0.3   0.3   0.5   5.4   4.5   0.0   0.0   0.2   0.5   0.6   0.5   0.5  0.71  1.20  0.67  0.00  0.00   48.29   48.62    2.80    0.00    0.00
 1991 281    90     0     0    19.6   38.3   16597   27.4   10.9   0.1   0.2   0.3   0.3   0.3   0.4   5.4   4.5   0.0   0.0   0.2   0.6   0.6   0.5   0.5  0.68  1.20  0.67  0.00  0.00   48.74   48.83    2.80    0.00    0.00
 1991 282    91     0     0    19.6   38.1   16597   27.3   10.8   0.3   0.2   0.3   0.3   0.3   0.4   5.4   4.6   0.0   0.0   0.2   0.6   0.6   0.5   0.5  0.66  1.17  0.66  0.00  0.00   49.19   49.17    2.80    0.00    0.00
 1991 283    92     0     0    19.6   37.9   16597   27.3   10.5   0.3   0.3   0.3   0.3   0.3   0.3   5.5   4.6   0.0   0.0   0.1   0.5   0.6   0.5   0.5  0.64  1.15  0.66  0.00  0.00   49.64   49.55    2.80    0.00    0.00
 1991 284    93     0     0    19.6   37.7   16596   27.4   10.3   0.3   0.3   0.3   0.3   0.3   0.3   5.5   4.6   0.0   0.0   0.1   0.5   0.6   0.5   0.5  0.63  1.13  0.65  0.00  0.00   50.13   50.00    2.81    0.00    0.00
 1991 285    94     0     0    19.6   37.7   16596   27.5   10.2   0.4   0.3   0.3   0.3   0.3   0.3   5.5   4.6   0.0   0.0   0.1   0.5   0.6   0.5   0.5  0.62  1.10  0.65  0.00  0.00   50.67   50.48    2.81    0.00    0.00
 1991 286    95     0     0    19.6   37.8   16595   27.6   10.1   0.4   0.4   0.3   0.3   0.3   0.3   5.6   4.6   0.0   0.0   0.1   0.5   0.6   0.5   0.5  0.61  1.08  0.65  0.00  0.00   51.29   51.03    2.81    0.00    0.00
 1991 287    96     0     0    19.6   37.8   16594   27.8   10.0   0.4   0.4   0.3   0.3   0.3   0.3   5.6   4.6   0.0   0.0   0.1   0.5   0.6   0.5   0.5  0.60  1.06  0.64  0.00  0.00   51.99   51.65    2.81    0.00    0.00
 1991 288    97     0     0    19.6   37.9   16594   27.9   10.0   0.1   0.3   0.4   0.3   0.3   0.3   5.6   4.6   0.0   0.0   0.3   0.5   0.6   0.5   0.5  0.59  1.03  0.64  0.00  0.00   52.74   52.24    2.81    0.00    0.00
 1991 289    98     0     0    23.5   34.2   16593   23.9   10.2   0.4   0.1   0.2   0.2   0.2   0.3   4.2   4.7   0.0   0.0   0.0   0.6   0.7   0.6   0.5  0.59  1.01  0.64  0.00  0.00   53.47   52.64    2.82    0.00    0.00
 1991 290    99     0     0    25.8   32.2   16592   21.5   10.7   0.3   0.1   0.2   0.2   0.2   0.3   3.6   4.4   0.0   0.0   0.2   0.7   0.8   0.6   0.5  0.60  1.02  0.64  0.00  0.00   54.13   52.73    2.84    0.00    0.00
 1991 291   100     0     0    27.0   31.3   16592   20.4   10.9   0.3   0.2   0.2   0.2   0.2   0.2   3.3   4.2   0.0   0.0   0.3   0.7   0.8   0.6   0.6  0.60  1.02  0.64  0.00  0.00   54.80   52.87    2.86    0.00    0.00
 1991 292   101     0     0    27.5   30.9   16591   20.1   10.7   0.5   0.2   0.2   0.2   0.2   0.2   3.2   4.1   0.0   0.0   0.1   0.7   0.8   0.6   0.6  0.60  1.02  0.63  0.00  0.00   55.42   53.16    2.86    0.00    0.00
 1991 293   102     0     0    27.6   30.6   16590   20.2   10.4   0.4   0.3   0.2   0.2   0.3   0.3   3.2   4.1   0.0   0.0   0.1   0.5   0.7   0.6   0.6  0.59  1.03  0.63  0.00  0.00   56.01   53.55    2.87    0.00    0.00
 1991 294   103     0     0    27.7   30.5   16590   20.4   10.2   0.4   0.4   0.3   0.3   0.3   0.3   3.2   4.0   0.0   0.0   0.1   0.5   0.6   0.6   0.5  0.59  1.03  0.63  0.00  0.00   56.61   54.04    2.88    0.00    0.00
 1991 295   104     0     0    27.7   30.6   16589   20.5   10.0   0.4   0.4   0.3   0.3   0.3   0.3   3.2   4.0   0.0   0.0   0.1   0.5   0.6   0.6   0.5  0.59  1.03  0.62  0.00  0.00   57.26   54.56    2.88    0.00    0.00
 1991 296   105     0     0    27.7   30.6   16589   20.6   10.0   0.4   0.4   0.3   0.3   0.3   0.3   3.2   4.0   0.0   0.0   0.1   0.5   0.6   0.5   0.5  0.59  1.03  0.62  0.00  0.00   57.99   55.14    2.88    0.00    0.00
 1991 297   106     0     0    27.7   30.6   16588   20.6   10.0   0.3   0.4   0.3   0.3   0.3   0.3   3.2   4.1   0.0   0.0   0.2   0.5   0.6   0.5   0.5  0.58  1.03  0.62  0.00  0.00   58.70   55.64    2.88    0.00    0.00
 1991 298   107     0     0    27.7   30.6   16587   20.7    9.9   0.5   0.4   0.3   0.3   0.3   0.3   3.2   4.1   0.0   0.0   0.1   0.5   0.6   0.5   0.5  0.58  1.03  0.61  0.00  0.00   59.38   56.23    2.89    0.00    0.00
 1991 299   108     0     0    27.7   30.5   16587   20.7    9.9   0.4   0.4   0.3   0.3   0.3   0.3   3.2   4.1   0.0   0.0   0.1   0.5   0.6   0.5   0.5  0.58  1.03  0.61  0.00  0.00   60.03   56.72    2.89    0.00    0.00
 1991 300   109     0     0    27.7   30.6   16586   20.7    9.9   0.4   0.4   0.3   0.3   0.3   0.3   3.2   4.1   0.0   0.0   0.1   0.5   0.6   0.5   0.5  0.58  1.03  0.61  0.00  0.00   60.66   57.19    2.89    0.00    0.00
 1991 301   110     0     0    27.7   29.6   16585   19.9    9.7   0.4   0.4   0.3   0.3   0.3   0.3   2.9   4.1   0.0   0.0   0.1   0.5   0.6   0.5   0.5  0.58  0.98  0.60  0.00  0.00   61.25   57.64    2.89    0.00    0.00
 1991 302   111     0     0    27.7   28.7   16585   19.2    9.5   0.4   0.4   0.3   0.3   0.3   0.3   2.6   4.1   0.0   0.0   0.1   0.5   0.6   0.5   0.5  0.58  0.90  0.60  0.00  0.00   61.85   58.14    2.90    0.00    0.00
 1991 303   112     0     0    27.7   27.8   16584   18.5    9.3   0.2   0.4   0.3   0.3   0.3   0.3   2.3   4.1   0.0   0.0   0.1   0.5   0.6   0.5   0.5  0.58  0.84  0.60  0.00  0.00   62.45   58.63    2.90    0.00    0.00
 1991 304   113     0     0    27.7   27.1   16584   17.8    9.3   0.3   0.3   0.3   0.3   0.3   0.3   2.1   4.1   0.0   0.0   0.2   0.6   0.6   0.5   0.5  0.58  0.79  0.60  0.00  0.00   63.03   58.96    2.90    0.00    0.00
 1991 305   114     0     0    27.7   26.5   16583   17.2    9.3   0.3   0.3   0.3   0.3   0.3   0.3   1.8   4.1   0.0   0.0   0.3   0.6   0.6   0.5   0.5  0.57  0.74  0.59  0.00  0.00   63.59   59.29    2.90    0.00    0.00
 1991 306   115     0     0    27.7   26.0   16583   16.8    9.1   0.5   0.3   0.3   0.3   0.3   0.3   1.6   4.1   0.0   0.0   0.2   0.6   0.6   0.5   0.5  0.57  0.70  0.59  0.00  0.00   64.15   59.73    2.90    0.00    0.00
 1991 307   116     0     0    27.7   25.3   16582   16.5    8.9   0.4   0.4   0.3   0.3   0.3   0.3   1.5   4.1   0.0   0.0   0.1   0.5   0.6   0.5   0.5  0.57  0.66  0.59  0.00  0.00   64.71   60.23    2.90    0.00    0.00
 1991 308   117     0     0    27.7   24.8   16582   16.0    8.8   0.4   0.4   0.3   0.3   0.3   0.3   1.3   4.1   0.0   0.0   0.1   0.5   0.6   0.5   0.5  0.57  0.63  0.58  0.00  0.00   65.30   60.72    2.91    0.00    0.00
 1991 309   118     0     0    27.7   24.4   16581   15.7    8.7   0.4   0.4   0.3   0.3   0.3   0.3   1.1   4.1   0.0   0.0   0.1   0.5   0.6   0.5   0.5  0.57  0.61  0.58  0.00  0.00   65.92   61.22    2.91    0.00    0.00
 1991 310   119     0     0    27.7   24.1   16580   15.5    8.6   0.3   0.4   0.3   0.3   0.3   0.3   1.0   4.1   0.0   0.0   0.1   0.5   0.6   0.5   0.5  0.57  0.59  0.58  0.00  0.00   66.56   61.75    2.91    0.00    0.00
 1991 311   120     0     0    27.7   23.8   16580   15.0    8.7   0.3   0.3   0.3   0.3   0.3   0.3   0.9   4.1   0.0   0.0   0.2   0.6   0.6   0.5   0.5  0.57  0.57  0.58  0.00  0.00   67.21   62.11    2.91    0.00    0.00
 1991 312   121     0     0    27.7   23.6   16579   15.1    8.5   0.5   0.4   0.3   0.3   0.3   0.3   0.8   4.2   0.0   0.0   0.1   0.5   0.6   0.5   0.5  0.57  0.55  0.57  0.00  0.00   67.86   62.74    2.91    0.00    0.00
 1991 313   122     0     0    27.7   23.2   16578   14.8    8.5   0.4   0.4   0.3   0.3   0.3   0.3   0.7   4.2   0.0   0.0   0.1   0.5   0.6   0.5   0.5  0.57  0.54  0.57  0.00  0.00   68.50   63.26    2.91    0.00    0.00
 1991 314   123     0     0    27.7   23.0   16578   14.6    8.4   0.4   0.4   0.3   0.3   0.3   0.3   0.6   4.2   0.0   0.0   0.1   0.5   0.6   0.5   0.5  0.57  0.53  0.57  0.00  0.00   69.13   63.78    2.91    0.00    0.00
 1991 315   124     0     0    27.7   22.8   16577   14.5    8.4   0.4   0.4   0.3   0.3   0.3   0.3   0.6   4.2   0.0   0.0   0.1   0.5   0.6   0.5   0.5  0.56  0.52  0.56  0.00  0.00   69.75   64.29    2.91    0.00    0.00
 1991 316   125     0     0    27.7   22.6   16577   14.3    8.3   0.4   0.4   0.3   0.3   0.3   0.3   0.5   4.2   0.0   0.0   0.1   0.5   0.6   0.5   0.5  0.56  0.51  0.55  0.00  0.00   70.34   64.81    2.91    0.00    0.00
 1991 317   126     0     0    27.7   22.5   16576   14.2    8.2   0.4   0.4   0.3   0.3   0.3   0.3   0.5   4.2   0.0   0.0   0.1   0.5   0.6   0.5   0.5  0.56  0.50  0.54  0.00  0.00   70.90   65.31    2.91    0.00    0.00
 1991 318   127     0     0    27.7   22.3   16576   14.2    8.1   0.4   0.4   0.3   0.3   0.3   0.3   0.4   4.2   0.0   0.0   0.1   0.5   0.6   0.5   0.5  0.56  0.50  0.52  0.00  0.00   71.44   65.80    2.91    0.00    0.00
 1991 319   128     0     0    27.7   22.1   16575   14.1    8.1   0.4   0.4   0.3   0.3   0.3   0.3   0.4   4.2   0.0   0.0   0.1   0.5   0.6   0.5   0.5  0.56  0.49  0.51  0.00  0.00   71.95   66.26    2.91    0.00    0.00
 1991 320   129     0     0    27.7   22.0   16575   14.0    8.0   0.4   0.3   0.3   0.3   0.3   0.3   0.3   4.3   0.0   0.0   0.1   0.5   0.6   0.5   0.5  0.56  0.48  0.50  0.00  0.00   72.44   66.71    2.91    0.00    0.00
 1991 321   130     0     0    27.7   21.8   16574   13.9    7.9   0.4   0.3   0.3   0.3   0.3   0.3   0.3   4.2   0.0   0.0   0.1   0.5   0.6   0.5   0.5  0.55  0.48  0.49  0.00  0.00   72.92   67.16    2.91    0.00    0.00
 1991 322   131     0     0    27.7   21.3   16574   13.4    7.8   0.4   0.4   0.3   0.3   0.3   0.3   0.3   4.1   0.0   0.0   0.1   0.5   0.6   0.5   0.5  0.55  0.47  0.47  0.00  0.00   73.40   67.62    2.91    0.00    0.00
 1991 323   132     0     0    27.7   20.6   16573   12.9    7.7   0.2   0.4   0.4   0.3   0.3   0.3   0.3   3.8   0.0   0.0   0.1   0.4   0.5   0.5   0.5  0.55  0.47  0.46  0.00  0.00   73.88   68.10    2.91    0.00    0.00
 1991 324   133     0     0    27.7   20.0   16573   12.1    7.9   0.2   0.3   0.3   0.3   0.3   0.3   0.3   3.6   0.0   0.0   0.2   0.5   0.6   0.5   0.5  0.55  0.46  0.45  0.00  0.00   74.46   68.43    2.91    0.00    0.00
 1991 325   134     0     0    27.7   19.6   16572   11.9    7.7   0.4   0.4   0.3   0.3   0.3   0.3   0.3   3.4   0.0   0.0   0.1   0.5   0.6   0.5   0.5  0.55  0.45  0.44  0.00  0.00   75.06   69.02    2.91    0.00    0.00
 1991 326   135    26     2    27.7   45.0   16572   24.4   20.6  23.9   0.4   0.3   0.3   0.3   0.3   0.3   3.2   0.0   0.0  23.3   0.5   0.6   0.5   0.5  0.55  0.45  0.43  0.00  0.00   75.67   69.57    2.91    0.00    0.06
 1991 327   136    26     2    27.7   27.0   16571   19.5    7.5  15.7   0.4   0.3   0.3   0.3   0.3   0.3   3.0   0.0   0.0   0.0   0.5   0.6   0.5   0.4  0.55  0.44  0.42  0.00  0.00   76.31   74.48    2.91    0.00    0.12
 1991 328   137    26     2    27.7   20.7   16570   13.2    7.5   5.1   0.4   0.3   0.3   0.3   0.3   0.3   2.8   0.0   0.0   0.2   0.5   0.6   0.5   0.4  0.55  0.43  0.41  0.00  0.00   76.96   75.03    2.91    0.00    0.12
 1991 329   138    26     2    27.7   18.4   16570   11.0    7.4   0.0   0.9   0.3   0.3   0.4   0.3   0.3   2.6   0.0   0.0   0.0   0.4   0.6   0.5   0.4  0.55  0.43  0.40  0.00  0.00   77.59   75.68    2.91    0.00    0.14
 1991 330   139    26     2    27.7   17.8   16569   10.0    7.8   0.0   0.3   0.4   0.3   0.3   0.3   0.3   2.5   0.0   0.0   0.2   0.6   0.7   0.5   0.5  0.55  0.42  0.39  0.00  0.00   78.30   75.83    2.91    0.00    0.15
 1991 331   140    26     2    27.7   17.3   16568    9.1    8.2   0.0   0.3   0.3   0.3   0.3   0.3   0.3   2.4   0.0   0.0   0.2   0.7   0.7   0.5   0.5  0.57  0.42  0.38  0.00  0.00   78.99   75.96    2.91    0.00    0.18
 1991 332   141    26     2    28.1   16.7   16568    8.2    8.5   0.1   0.3   0.3   0.3   0.2   0.2   0.2   2.1   0.0   0.0   0.2   0.7   0.8   0.6   0.5  0.57  0.43  0.37  0.00  0.00   79.64   76.10    2.91    0.00    0.22
 1991 333   142    26     2    28.1   16.5   16567    8.1    8.4   0.3   0.3   0.3   0.3   0.3   0.2   0.3   2.0   0.0   0.0   0.1   0.7   0.7   0.6   0.5  0.58  0.43  0.36  0.00  0.00   80.26   76.35    2.91    0.00    0.26
 1991 334   143    26     2    28.4   16.1   16567    7.6    8.6   0.3   0.3   0.3   0.3   0.3   0.2   0.3   1.7   0.0   0.0   0.1   0.7   0.8   0.6   0.6  0.58  0.44  0.36  0.00  0.00   80.91   76.47    2.92    0.00    0.27
 1991 335   144    26     2    28.4   16.0   16566    7.5    8.5   0.4   0.3   0.3   0.3   0.3   0.3   0.3   1.6   0.0   0.0   0.1   0.7   0.7   0.6   0.6  0.58  0.43  0.35  0.00  0.00   81.62   76.78    2.92    0.00    0.30
 1991 336   145    26     2    28.4   15.8   16565    7.6    8.2   0.3   0.5   0.3   0.3   0.3   0.3   0.3   1.5   0.0   0.0   0.1   0.5   0.7   0.6   0.6  0.58  0.43  0.35  0.00  0.00   82.38   77.35    2.92    0.00    0.31
 1991 337   146    26     2    28.4   15.4   16565    7.5    7.9   0.5   0.4   0.3   0.3   0.3   0.3   0.3   1.5   0.0   0.0   0.1   0.5   0.6   0.6   0.5  0.58  0.42  0.34  0.00  0.00   83.18   78.06    2.92    0.00    0.31
 1991 338   147    26     2    28.4   15.1   16564    7.3    7.8   0.4   0.4   0.3   0.3   0.3   0.3   0.3   1.4   0.0   0.0   0.1   0.5   0.6   0.5   0.5  0.58  0.42  0.33  0.00  0.00   83.98   78.70    2.92    0.00    0.31
 1991 339   148    26     2    28.4   14.9   16563    7.1    7.8   0.3   0.4   0.4   0.3   0.3   0.3   0.3   1.3   0.0   0.0   0.1   0.5   0.6   0.5   0.5  0.59  0.42  0.32  0.00  0.00   84.82   79.39    2.92    0.00    0.31
 1991 340   149    26     2    28.4   14.7   16562    6.6    8.1   0.3   0.3   0.3   0.3   0.3   0.3   0.3   1.2   0.0   0.0   0.2   0.6   0.7   0.5   0.5  0.59  0.42  0.32  0.00  0.00   85.64   79.70    2.92    0.00    0.31
 1991 341   150    26     2    28.4   14.7   16562    6.8    7.9   0.7   0.3   0.3   0.3   0.3   0.3   0.3   1.2   0.0   0.0   0.0   0.7   0.6   0.5   0.5  0.59  0.41  0.31  0.00  0.00   86.50   80.39    2.92    0.00    0.32
 1991 342   151    26     2    28.4   14.4   16561    6.6    7.8   0.3   0.5   0.3   0.3   0.3   0.3   0.3   1.1   0.0   0.0   0.2   0.5   0.6   0.5   0.5  0.59  0.41  0.30  0.00  0.00   87.35   81.06    2.92    0.00    0.32
 1991 343   152    26     2    28.4   14.2   16560    6.5    7.7   0.4   0.4   0.4   0.3   0.3   0.3   0.3   1.0   0.0   0.0   0.1   0.5   0.6   0.5   0.5  0.59  0.41  0.30  0.00  0.00   88.21   81.80    2.92    0.00    0.32
 1991 344   153    26     2    28.4   14.1   16559    6.0    8.1   0.2   0.3   0.3   0.3   0.3   0.3   0.3   1.0   0.0   0.0   0.2   0.6   0.7   0.6   0.5  0.59  0.41  0.29  0.00  0.00   89.02   82.03    2.92    0.00    0.33
 1991 345   154    26     2    28.4   14.2   16559    5.9    8.3   0.5   0.3   0.3   0.3   0.3   0.3   0.3   0.9   0.0   0.0   0.1   0.7   0.8   0.6   0.6  0.59  0.41  0.28  0.00  0.00   89.84   82.37    2.92    0.00    0.33
 1991 346   155    26     2    28.4   14.1   16558    5.7    8.4   0.3   0.3   0.3   0.3   0.3   0.3   0.3   0.9   0.0   0.0   0.1   0.7   0.8   0.6   0.6  0.59  0.40  0.28  0.00  0.00   90.64   82.63    2.92    0.00    0.33
 1991 347   156    26     2    28.4   14.0   16557    5.8    8.2   0.3   0.5   0.3   0.3   0.3   0.3   0.3   0.8   0.0   0.0   0.1   0.5   0.7   0.6   0.6  0.59  0.40  0.27  0.00  0.00   91.43   83.12    2.92    0.00    0.33
 1991 348   157    26     2    28.4   13.9   16557    5.6    8.4   0.3   0.3   0.3   0.3   0.3   0.3   0.3   0.8   0.0   0.0   0.1   0.6   0.8   0.6   0.6  0.60  0.40  0.27  0.00  0.00   92.21   83.37    2.92    0.00    0.34
 1991 349   158    26     2    28.4   13.9   16556    5.3    8.7   0.3   0.3   0.3   0.3   0.3   0.3   0.3   0.7   0.0   0.0   0.2   0.7   0.8   0.6   0.6  0.60  0.40  0.26  0.00  0.00   92.96   83.52    2.93    0.00    0.34
 1991 350   159    26     2    28.4   14.0   16555    5.2    8.8   0.2   0.3   0.3   0.3   0.3   0.3   0.3   0.7   0.0   0.0   0.3   0.7   0.8   0.7   0.6  0.61  0.40  0.26  0.00  0.00   93.71   83.70    2.94    0.00    0.34
 1991 351   160    26     2    28.4   14.1   16555    5.3    8.8   0.6   0.3   0.3   0.3   0.3   0.3   0.3   0.7   0.0   0.0   0.1   0.8   0.8   0.7   0.6  0.61  0.40  0.25  0.00  0.00   94.44   84.05    2.95    0.00    0.35
 1991 352   161    26     2    28.4   14.0   16554    5.1    9.0   0.3   0.3   0.3   0.2   0.2   0.2   0.3   0.7   0.0   0.0   0.1   0.8   0.9   0.7   0.7  0.61  0.40  0.25  0.00  0.00   95.20   84.25    2.96    0.00    0.36
 1991 353   162    26     2    28.4   13.9   16553    5.1    8.8   0.2   0.3   0.3   0.3   0.3   0.3   0.3   0.6   0.0   0.0   0.1   0.7   0.8   0.7   0.7  0.61  0.40  0.24  0.00  0.00   96.00   84.55    2.97    0.00    0.36
 1991 354   163    26     2    28.4   14.0   16553    4.9    9.1   0.3   0.3   0.3   0.3   0.3   0.2   0.3   0.6   0.0   0.0   0.2   0.8   0.9   0.7   0.7  0.62  0.41  0.24  0.00  0.00   96.83   84.70    2.98    0.00    0.36
 1991 355   164    26     2    28.5   14.0   16552    4.9    9.1   0.7   0.3   0.3   0.3   0.3   0.2   0.2   0.5   0.0   0.0   0.0   0.8   0.9   0.7   0.7  0.63  0.42  0.24  0.00  0.00   97.72   85.07    2.99    0.00    0.36
[...]
 1992 294   103     0     0     0.1   68.7   16593   52.1   16.6   0.6   2.0   4.1   8.1   6.8   1.8   1.5   1.4   0.0   0.0   0.1   0.6   0.9   0.6   0.5  2.00  1.16  0.58  0.00  0.00   53.81   59.22    0.18    0.00    0.00
 1992 295   104     0     0     0.1   64.0   16592   47.5   16.5   0.5   1.6   3.3   7.2   6.3   1.8   1.5   1.4   0.0   0.0   0.2   0.7   0.9   0.6   0.5  1.94  1.16  0.57  0.00  0.00   54.40   59.53    0.18    0.00    0.00
 1992 296   105     0     0     0.1   60.4   16591   44.2   16.2   0.6   1.4   2.7   6.6   5.9   1.7   1.5   1.4   0.0   0.0   0.1   0.7   0.9   0.6   0.5  1.88  1.16  0.57  0.00  0.00   54.99   59.95    0.18    0.00    0.00
 1992 297   106     0     0     0.1   56.9   16591   41.2   15.7   0.6   1.2   2.2   6.1   5.5   1.7   1.5   1.4   0.0   0.0   0.1   0.6   0.9   0.6   0.5  1.81  1.16  0.57  0.00  0.00   55.59   60.58    0.18    0.00    0.00
 1992 298   107     0     0     0.1   52.2   16590   37.1   15.1   0.6   1.0   1.6   5.4   4.9   1.6   1.5   1.4   0.0   0.0   0.1   0.6   0.8   0.5   0.5  1.71  1.16  0.56  0.00  0.00   56.22   61.19    0.18    0.00    0.00
 1992 299   108     0     0     0.1   46.5   16590   32.1   14.4   0.5   0.7   1.0   4.5   4.2   1.4   1.5   1.4   0.0   0.0   0.1   0.5   0.7   0.5   0.5  1.58  1.16  0.56  0.00  0.00   56.92   61.83    0.18    0.00    0.00
 1992 300   109     0     0     0.1   45.0   16589   30.8   14.1   0.5   0.7   0.9   4.3   4.0   1.4   1.5   1.4   0.0   0.0   0.1   0.5   0.7   0.5   0.5  1.53  1.16  0.56  0.00  0.00   57.65   62.48    0.18    0.00    0.00
 1992 301   110     0     0     0.1   38.4   16588   25.1   13.2   0.4   0.4   0.4   3.2   3.1   1.1   1.5   1.4   0.0   0.0   0.1   0.5   0.6   0.5   0.5  1.35  1.16  0.56  0.00  0.00   58.41   63.16    0.18    0.00    0.00
 1992 302   111     0     0     0.1   34.2   16587   21.6   12.6   0.4   0.4   0.3   2.4   2.4   1.0   1.6   1.4   0.0   0.0   0.1   0.5   0.6   0.5   0.5  1.21  1.16  0.55  0.00  0.00   59.17   63.83    0.18    0.00    0.00
 1992 303   112     0     0     0.1   30.9   16587   18.9   12.1   0.4   0.4   0.3   1.9   1.9   0.8   1.6   1.4   0.0   0.0   0.1   0.5   0.6   0.5   0.5  1.09  1.16  0.55  0.00  0.00   59.88   64.42    0.18    0.00    0.00
 1992 304   113     0     0     0.1   28.4   16586   16.9   11.5   0.4   0.4   0.3   1.4   1.5   0.7   1.6   1.5   0.0   0.0   0.1   0.5   0.6   0.5   0.5  0.99  1.13  0.54  0.00  0.00   60.52   65.05    0.18    0.00    0.00
 1992 305   114     0     0     0.1   26.4   16586   15.3   11.1   0.4   0.4   0.3   1.1   1.2   0.6   1.6   1.5   0.0   0.0   0.1   0.5   0.6   0.5   0.5  0.91  1.11  0.52  0.00  0.00   61.13   65.64    0.18    0.00    0.00
 1992 306   115     0     0     0.1   24.8   16585   14.1   10.7   0.4   0.4   0.3   0.9   1.0   0.5   1.7   1.5   0.0   0.0   0.1   0.4   0.6   0.5   0.5  0.85  1.09  0.51  0.00  0.00   61.69   66.21    0.18    0.00    0.00
 1992 307   116     0     0     0.1   23.6   16585   13.2   10.4   0.4   0.3   0.3   0.7   0.8   0.4   1.7   1.5   0.0   0.0   0.1   0.4   0.6   0.5   0.5  0.80  1.06  0.50  0.00  0.00   62.21   66.74    0.18    0.00    0.00
 1992 308   117     0     0     0.1   22.6   16584   12.6   10.1   0.1   0.3   0.4   0.6   0.6   0.3   1.7   1.5   0.0   0.0   0.1   0.4   0.5   0.5   0.5  0.76  1.04  0.48  0.00  0.00   62.77   67.33    0.18    0.00    0.00
 1992 309   118     0     0     0.1   22.0   16583   11.8   10.2   0.2   0.3   0.3   0.5   0.5   0.3   1.8   1.6   0.0   0.0   0.2   0.5   0.6   0.5   0.5  0.72  1.02  0.47  0.00  0.00   63.46   67.66    0.18    0.00    0.00
 1992 310   119     0     0     0.1   21.7   16583   11.6   10.1   0.4   0.3   0.3   0.4   0.4   0.3   1.8   1.6   0.0   0.0   0.1   0.6   0.7   0.5   0.5  0.69  1.00  0.46  0.00  0.00   64.12   68.12    0.18    0.00    0.00
 1992 311   120     0     0     0.1   21.4   16582   11.7    9.7   0.4   0.4   0.3   0.3   0.4   0.3   1.8   1.6   0.0   0.0   0.1   0.5   0.6   0.5   0.5  0.67  0.98  0.45  0.00  0.00   64.74   68.69    0.18    0.00    0.00
 1992 312   121     0     0     0.1   21.1   16582   11.5    9.5   0.4   0.4   0.3   0.3   0.3   0.3   1.9   1.6   0.0   0.0   0.1   0.5   0.6   0.5   0.5  0.65  0.96  0.44  0.00  0.00   65.32   69.20    0.18    0.00    0.00
 1992 313   122     0     0     0.1   20.9   16581   11.6    9.4   0.3   0.3   0.3   0.3   0.3   0.3   1.9   1.6   0.0   0.0   0.1   0.5   0.6   0.5   0.5  0.64  0.95  0.43  0.00  0.00   65.84   69.67    0.18    0.00    0.00
 1992 314   123     0     0     0.1   20.9   16581   11.7    9.2   0.4   0.3   0.3   0.3   0.3   0.3   1.9   1.6   0.0   0.0   0.1   0.5   0.6   0.5   0.5  0.62  0.93  0.42  0.00  0.00   66.39   70.15    0.18    0.00    0.00
 1992 315   124     0     0     0.1   21.0   16580   11.8    9.1   0.4   0.4   0.3   0.3   0.3   0.3   1.9   1.6   0.0   0.0   0.1   0.5   0.6   0.5   0.5  0.61  0.91  0.41  0.00  0.00   67.00   70.69    0.18    0.00    0.00
 1992 316   125     0     0     0.1   21.0   16579   11.9    9.0   0.4   0.4   0.3   0.3   0.3   0.3   2.0   1.7   0.0   0.0   0.1   0.5   0.6   0.5   0.5  0.60  0.89  0.40  0.00  0.00   67.63   71.26    0.18    0.00    0.00
 1992 317   126     0     0     0.1   21.0   16579   12.1    8.9   0.4   0.4   0.3   0.3   0.3   0.3   2.0   1.7   0.0   0.0   0.1   0.5   0.6   0.5   0.5  0.60  0.88  0.39  0.00  0.00   68.27   71.86    0.18    0.00    0.00
 1992 318   127     0     0     0.1   21.0   16578   12.2    8.8   0.4   0.4   0.3   0.3   0.3   0.3   2.0   1.7   0.0   0.0   0.1   0.5   0.6   0.5   0.5  0.59  0.86  0.38  0.00  0.00   68.94   72.50    0.18    0.00    0.00
 1992 319   128     0     0     0.1   20.3   16578   11.8    8.5   0.4   0.4   0.3   0.3   0.3   0.3   1.8   1.7   0.0   0.0   0.1   0.5   0.6   0.5   0.5  0.58  0.80  0.38  0.00  0.00   69.59   73.14    0.18    0.00    0.00
 1992 320   129     0     0     0.1   19.6   16577   11.3    8.3   0.2   0.4   0.4   0.3   0.3   0.3   1.6   1.7   0.0   0.0   0.1   0.4   0.6   0.5   0.5  0.58  0.75  0.37  0.00  0.00   70.21   73.76    0.18    0.00    0.00
 1992 321   130     0     0     0.1   19.1   16576   10.6    8.4   0.2   0.3   0.3   0.3   0.3   0.3   1.4   1.7   0.0   0.0   0.2   0.6   0.6   0.5   0.4  0.58  0.71  0.36  0.00  0.00   70.95   74.18    0.18    0.00    0.00
 1992 322   131     0     0     0.1   18.7   16576   10.6    8.1   0.6   0.4   0.3   0.3   0.3   0.3   1.3   1.7   0.0   0.0   0.1   0.5   0.6   0.5   0.4  0.57  0.67  0.35  0.00  0.00   71.65   74.93    0.18    0.00    0.00
 1992 323   132     0     0     0.1   18.1   16575   10.1    8.0   0.3   0.4   0.3   0.3   0.3   0.3   1.1   1.7   0.0   0.0   0.1   0.5   0.6   0.5   0.4  0.57  0.64  0.34  0.00  0.00   72.30   75.47    0.18    0.00    0.00
 1992 324   133     0     0     0.1   17.7   16574    9.9    7.9   0.4   0.4   0.3   0.3   0.3   0.3   1.0   1.8   0.0   0.0   0.1   0.5   0.6   0.5   0.4  0.57  0.61  0.34  0.00  0.00   72.91   76.03    0.18    0.00    0.00
 1992 325   134     0     0     0.1   17.3   16574    9.6    7.7   0.4   0.4   0.3   0.3   0.3   0.3   0.9   1.8   0.0   0.0   0.1   0.5   0.6   0.5   0.4  0.56  0.59  0.33  0.00  0.00   73.50   76.57    0.18    0.00    0.00
 1992 326   135    26     2     0.1   43.0   16573   22.4   20.6  23.9   0.4   0.3   0.3   0.3   0.3   0.8   1.8   0.0   0.0  23.4   0.5   0.6   0.5   0.4  0.56  0.57  0.32  0.00  0.00   74.08   77.12    0.18    0.00    0.03
 1992 327   136    26     2     0.1   25.2   16573   17.8    7.5  15.8   0.4   0.3   0.3   0.3   0.3   0.7   1.8   0.0   0.0   0.0   0.5   0.6   0.5   0.4  0.56  0.55  0.32  0.00  0.00   74.64   82.04    0.18    0.00    0.04
 1992 328   137    26     2     0.1   19.1   16572   11.7    7.4   5.1   0.4   0.3   0.3   0.3   0.3   0.6   1.8   0.0   0.0   0.1   0.5   0.6   0.5   0.4  0.56  0.54  0.31  0.00  0.00   75.17   82.48    0.18    0.00    0.04
 1992 329   138    26     2     0.1   16.9   16572    9.7    7.3   0.0   0.9   0.5   0.3   0.3   0.3   0.6   1.8   0.0   0.0   0.1   0.4   0.5   0.4   0.4  0.55  0.53  0.30  0.00  0.00   75.67   82.98    0.18    0.00    0.07
 1992 330   139    26     2     0.1   16.2   16571    8.7    7.4   0.0   0.5   0.3   0.3   0.3   0.3   0.5   1.8   0.0   0.0   0.2   0.5   0.6   0.4   0.4  0.55  0.51  0.30  0.00  0.00   76.25   83.29    0.18    0.00    0.08
 1992 331   140    26     2     0.1   15.8   16571    8.5    7.3   0.2   0.4   0.3   0.3   0.3   0.3   0.5   1.8   0.0   0.0   0.1   0.5   0.6   0.4   0.4  0.55  0.50  0.29  0.00  0.00   76.80   83.79    0.18    0.00    0.11
 1992 332   141    26     2     0.1   15.8   16570    8.5    7.3   0.3   0.4   0.3   0.3   0.3   0.3   0.4   1.8   0.0   0.0   0.1   0.5   0.6   0.4   0.4  0.55  0.50  0.29  0.00  0.00   77.36   84.26    0.18    0.00    0.12
 1992 333   142    26     2     0.1   15.7   16570    8.5    7.2   0.4   0.4   0.3   0.3   0.3   0.3   0.4   1.8   0.0   0.0   0.1   0.5   0.6   0.4   0.4  0.55  0.49  0.28  0.00  0.00   77.95   84.77    0.18    0.00    0.15
 1992 334   143    26     2     0.1   15.6   16569    8.5    7.1   0.4   0.4   0.3   0.3   0.3   0.3   0.3   1.9   0.0   0.0   0.1   0.5   0.6   0.4   0.4  0.54  0.48  0.28  0.00  0.00   78.55   85.30    0.18    0.00    0.16
 1992 335   144    26     2     0.1   15.5   16569    8.4    7.0   0.2   0.4   0.4   0.3   0.3   0.3   0.3   1.9   0.0   0.0   0.1   0.5   0.6   0.4   0.4  0.54  0.47  0.27  0.00  0.00   79.14   85.85    0.18    0.00    0.18
 1992 336   145    26     2     0.1   15.4   16568    8.0    7.4   0.2   0.3   0.3   0.3   0.3   0.3   0.3   1.9   0.0   0.0   0.2   0.6   0.7   0.4   0.4  0.54  0.47  0.27  0.00  0.00   79.82   86.12    0.18    0.00    0.19
 1992 337   146    26     2     0.1   15.4   16567    8.3    7.0   0.5   0.4   0.3   0.3   0.3   0.3   0.3   1.8   0.0   0.0   0.1   0.5   0.6   0.4   0.4  0.54  0.46  0.26  0.00  0.00   80.51   86.84    0.18    0.00    0.19
 1992 338   147    26     2     0.1   15.0   16567    7.9    7.0   0.3   0.4   0.3   0.3   0.3   0.3   0.3   1.7   0.0   0.0   0.1   0.5   0.6   0.4   0.4  0.54  0.45  0.26  0.00  0.00   81.18   87.38    0.18    0.00    0.19
 1992 339   148    26     2     0.1   14.7   16566    7.8    7.0   0.4   0.4   0.3   0.3   0.3   0.3   0.3   1.6   0.0   0.0   0.1   0.5   0.6   0.4   0.4  0.54  0.44  0.25  0.00  0.00   81.84   87.97    0.18    0.00    0.19
 1992 340   149    26     2     0.1   14.4   16565    7.5    6.9   0.4   0.4   0.3   0.3   0.3   0.3   0.3   1.5   0.0   0.0   0.1   0.5   0.6   0.4   0.4  0.54  0.44  0.25  0.00  0.00   82.50   88.54    0.18    0.00    0.20
 1992 341   150    26     2     0.1   14.1   16565    7.3    6.8   0.2   0.4   0.4   0.3   0.3   0.3   0.3   1.4   0.0   0.0   0.1   0.5   0.6   0.4   0.4  0.54  0.43  0.25  0.00  0.00   83.12   89.10    0.18    0.00    0.20
 1992 342   151    26     2     0.1   13.9   16564    6.8    7.2   0.2   0.3   0.3   0.3   0.3   0.3   0.3   1.3   0.0   0.0   0.2   0.6   0.7   0.4   0.4  0.54  0.42  0.24  0.00  0.00   83.82   89.37    0.18    0.00    0.20
 1992 343   152    26     2     0.1   13.9   16564    7.1    6.8   0.6   0.5   0.3   0.3   0.3   0.3   0.3   1.3   0.0   0.0   0.0   0.5   0.6   0.4   0.4  0.54  0.41  0.24  0.00  0.00   84.52   90.13    0.18    0.00    0.20
 1992 344   153    26     2     0.1   13.6   16563    6.7    6.8   0.3   0.4   0.3   0.3   0.3   0.3   0.3   1.2   0.0   0.0   0.1   0.5   0.6   0.4   0.4  0.53  0.41  0.23  0.00  0.00   85.23   90.68    0.18    0.00    0.21
 1992 345   154    26     2     0.1   13.4   16562    6.6    6.8   0.5   0.4   0.3   0.3   0.3   0.3   0.3   1.1   0.0   0.0   0.1   0.5   0.6   0.4   0.3  0.53  0.40  0.23  0.00  0.00   85.91   91.29    0.18    0.00    0.21
 1992 346   155    26     2     0.1   13.2   16562    6.4    6.7   0.4   0.4   0.3   0.3   0.3   0.3   0.3   1.1   0.0   0.0   0.1   0.5   0.6   0.4   0.3  0.53  0.39  0.23  0.00  0.00   86.60   91.87    0.18    0.00    0.21
 1992 347   156    26     2     0.1   13.0   16561    6.3    6.7   0.4   0.4   0.3   0.3   0.3   0.3   0.3   1.0   0.0   0.0   0.1   0.5   0.6   0.4   0.3  0.53  0.39  0.22  0.00  0.00   87.25   92.43    0.18    0.00    0.22
 1992 348   157    26     2     0.1   12.8   16560    6.2    6.6   0.4   0.4   0.3   0.3   0.3   0.3   0.3   0.9   0.0   0.0   0.1   0.5   0.6   0.4   0.3  0.53  0.38  0.22  0.00  0.00   87.87   93.00    0.18    0.00    0.22
 1992 349   158    26     2     0.1   12.5   16560    6.0    6.5   0.4   0.4   0.3   0.3   0.3   0.3   0.3   0.9   0.0   0.0   0.1   0.4   0.6   0.4   0.3  0.53  0.37  0.21  0.00  0.00   88.45   93.56    0.18    0.00    0.22
 1992 350   159    26     2     0.1   12.3   16559    5.9    6.4   0.2   0.4   0.4   0.3   0.3   0.3   0.3   0.8   0.0   0.0   0.1   0.4   0.6   0.4   0.3  0.53  0.37  0.21  0.00  0.00   89.00   94.11    0.18    0.00    0.22
 1992 351   160    26     2     0.1   12.2   16559    5.6    6.7   0.2   0.3   0.3   0.3   0.3   0.3   0.3   0.8   0.0   0.0   0.2   0.5   0.6   0.4   0.3  0.53  0.36  0.21  0.00  0.00   89.68   94.46    0.18    0.00    0.23
 1992 352   161    26     2     0.1   12.3   16558    5.9    6.5   0.6   0.4   0.3   0.3   0.3   0.3   0.3   0.7   0.0   0.0   0.0   0.5   0.6   0.4   0.3  0.53  0.36  0.20  0.00  0.00   90.37   95.21    0.18    0.00    0.23
 1992 353   162    26     2     0.1   12.1   16558    5.6    6.5   0.3   0.4   0.3   0.3   0.3   0.3   0.3   0.7   0.0   0.0   0.2   0.5   0.6   0.4   0.3  0.53  0.35  0.20  0.00  0.00   91.05   95.75    0.18    0.00    0.23
 1992 354   163    26     2     0.1   12.0   16557    5.6    6.4   0.5   0.4   0.3   0.3   0.3   0.3   0.3   0.7   0.0   0.0   0.1   0.5   0.6   0.4   0.3  0.53  0.34  0.20  0.00  0.00   91.71   96.39    0.18    0.00    0.23
 1992 355   164    26     2     0.1   11.8   16556    5.4    6.3   0.4   0.4   0.3   0.3   0.3   0.3   0.3   0.6   0.0   0.0   0.1   0.5   0.6   0.4   0.3  0.53  0.34  0.19  0.00  0.00   92.34   96.97    0.18    0.00    0.24
 1992 356   165    26     2     0.1   11.6   16556    5.4    6.2   0.3   0.4   0.4   0.3   0.3   0.3   0.3   0.6   0.0   0.0   0.1   0.4   0.5   0.4   0.3  0.53  0.33  0.19  0.00  0.00   92.94   97.60    0.18    0.00    0.24
 1992 357   166    26     2     0.1   11.6   16555    5.1    6.5   0.2   0.3   0.3   0.3   0.3   0.3   0.3   0.6   0.0   0.0   0.2   0.6   0.6   0.4   0.3  0.53  0.33  0.19  0.00  0.00   93.68   97.98    0.18    0.00    0.24
 1992 358   167    26     2     0.1   11.7   16554    5.1    6.6   0.3   0.3   0.3   0.3   0.3   0.3   0.3   0.5   0.0   0.0   0.3   0.7   0.6   0.4   0.3  0.53  0.32  0.18  0.00  0.00   94.43   98.41    0.18    0.00    0.24
 1992 359   168    26     2     0.1   11.7   16554    5.5    6.2   0.6   0.5   0.3   0.3   0.3   0.3   0.3   0.5   0.0   0.0   0.0   0.5   0.6   0.4   0.3  0.53  0.32  0.18  0.00  0.00   95.17   99.33    0.18    0.00    0.25
 1992 360   169    26     2     0.1   11.4   16553    4.7    6.7   0.2   0.3   0.3   0.3   0.3   0.3   0.3   0.5   0.0   0.0   0.2   0.6   0.7   0.4   0.3  0.53  0.31  0.18  0.00  0.00   95.95   99.53    0.18    0.00    0.25
 1992 361   170    26     2     0.1   11.6   16552    5.2    6.4   0.6   0.5   0.3   0.3   0.3   0.3   0.3   0.5   0.0   0.0   0.1   0.5   0.6   0.5   0.3  0.53  0.31  0.17  0.00  0.00   96.71  100.28    0.18    0.00    0.25
 1992 362   171    26     2     0.1   11.4   16552    5.0    6.4   0.4   0.4   0.3   0.3   0.3   0.3   0.3   0.4   0.0   0.0   0.1   0.5   0.6   0.5   0.3  0.52  0.30  0.17  0.00  0.00   97.45  100.84    0.18    0.00    0.25
 1992 363   172    26     2     0.1   11.3   16551    5.0    6.4   0.5   0.4   0.3   0.3   0.3   0.3   0.3   0.4   0.0   0.0   0.1   0.5   0.6   0.5   0.3  0.52  0.30  0.17  0.00  0.00   98.19  101.45    0.18    0.00    0.25
 1992 364   173    26     2     0.1   11.3   16550    4.9    6.4   0.4   0.4   0.3   0.3   0.3   0.3   0.3   0.4   0.0   0.0   0.1   0.5   0.6   0.5   0.3  0.52  0.30  0.16  0.00  0.00   98.94  102.06    0.18    0.00    0.26
 1992 365   174    26     2     0.1   11.2   16550    4.9    6.4   0.4   0.4   0.3   0.3   0.3   0.3   0.3   0.4   0.0   0.0   0.1   0.5   0.6   0.5   0.3  0.52  0.29  0.16  0.00  0.00   99.66  102.66    0.18    0.00    0.26
 1992 366   175    26     2     0.1   11.2   16549    4.7    6.4   0.0   0.3   0.3   0.3   0.4   0.3   0.3   0.3   0.0   0.0   0.2   0.5   0.6   0.5   0.3  0.52  0.29  0.16  0.00  0.00  100.37  103.16    0.18    0.00    0.26
 1993 001   176    26     2     0.1   11.2   16549    4.5    6.8   0.3   0.1   0.2   0.2   0.3   0.3   0.3   0.4   0.0   0.0   0.1   0.6   0.7   0.6   0.4  0.53  0.28  0.16  0.00  0.00  101.06  103.45    0.18    0.00    0.26
 1993 002   177    26     2     0.2   11.4   16548    4.1    7.3   0.2   0.1   0.2   0.2   0.2   0.3   0.3   0.4   0.0   0.0   0.2   0.7   0.8   0.6   0.4  0.54  0.29  0.16  0.00  0.00  101.66  103.50    0.18    0.00    0.26
 1993 003   178    26     2     0.3   11.6   16548    4.0    7.6   0.2   0.2   0.2   0.2   0.2   0.2   0.3   0.4   0.0   0.0   0.3   0.7   0.8   0.6   0.4  0.55  0.30  0.16  0.00  0.00  102.32  103.59    0.18    0.00    0.27
 1993 004   179    26     2     0.4   11.7   16547    3.8    7.9   0.2   0.2   0.2   0.2   0.2   0.2   0.3   0.3   0.0   0.0   0.4   0.8   0.8   0.6   0.5  0.56  0.31  0.16  0.00  0.00  102.96  103.69    0.18    0.00    0.27
 1993 005   180    26     2     0.6   11.9   16546    3.7    8.1   0.3   0.2   0.2   0.2   0.2   0.2   0.2   0.3   0.0   0.0   0.4   0.8   0.8   0.6   0.5  0.58  0.31  0.17  0.00  0.00  103.63  103.81    0.19    0.00    0.27
 1993 006   181    26     2     0.6   12.0   16546    4.0    8.0   0.8   0.2   0.2   0.2   0.2   0.2   0.2   0.3   0.0   0.0   0.1   0.8   0.8   0.7   0.5  0.58  0.32  0.17  0.00  0.00  104.39  104.22    0.19    0.00    0.28
 1993 007   182    26     2     0.6   11.9   16545    4.1    7.7   0.3   0.5   0.2   0.2   0.2   0.2   0.2   0.3   0.0   0.0   0.1   0.5   0.8   0.7   0.5  0.59  0.33  0.17  0.00  0.00  105.22  104.64    0.20    0.00    0.29
 1993 008   183    26     2     0.6   12.0   16544    4.4    7.6   0.3   0.4   0.4   0.2   0.3   0.2   0.3   0.3   0.0   0.0   0.1   0.5   0.7   0.7   0.6  0.59  0.34  0.17  0.00  0.00  106.08  105.19    0.20    0.00    0.29
 1993 009   184    26     2     0.7   12.2   16544    4.0    8.2   0.3   0.3   0.3   0.2   0.2   0.2   0.3   0.2   0.0   0.0   0.3   0.6   0.7   0.7   0.6  0.60  0.35  0.17  0.00  0.00  106.97  105.31    0.20    0.00    0.29
 1993 010   185    26     2     0.7   12.6   16543    4.4    8.2   0.7   0.3   0.3   0.3   0.3   0.3   0.3   0.3   0.0   0.0   0.0   0.7   0.8   0.7   0.6  0.61  0.35  0.18  0.00  0.00  107.87  105.71    0.20    0.00    0.29
 1993 011   186    26     2     0.7   12.5   16542    4.5    8.0   0.3   0.5   0.3   0.3   0.3   0.3   0.3   0.3   0.0   0.0   0.2   0.5   0.8   0.7   0.6  0.60  0.35  0.18  0.00  0.00  108.79  106.19    0.20    0.00    0.30
 1993 012   187    26     2     0.7   12.5   16542    4.8    7.7   0.5   0.4   0.4   0.3   0.3   0.3   0.3   0.3   0.0   0.0   0.1   0.5   0.6   0.6   0.6  0.61  0.35  0.17  0.00  0.00  109.72  106.98    0.20    0.00    0.30
 1993 013   188    26     2     0.7   12.3   16541    4.7    7.6   0.4   0.4   0.3   0.3   0.3   0.3   0.3   0.3   0.0   0.0   0.1   0.5   0.6   0.6   0.6  0.61  0.36  0.17  0.00  0.00  110.67  107.71    0.20    0.00    0.31
 1993 014   189    26     2     0.7   13.3   16540    5.5    7.8   0.6   0.6   0.4   0.4   0.3   0.3   0.3   0.3   0.0   0.0   0.1   0.5   0.7   0.6   0.6  0.63  0.36  0.17  0.00  0.00  111.66  108.48    0.20    0.00    0.31
 1993 015   190    26     2     0.7   14.3   16539    6.3    8.0   0.4   0.7   0.6   0.5   0.4   0.3   0.3   0.3   0.0   0.0   0.1   0.5   0.8   0.6   0.6  0.65  0.36  0.17  0.00  0.00  112.66  109.27    0.20    0.00    0.31
