*PLANT N OUTPUT FILE

*DSSAT Cropping System Model Ver. 4.0.2.000               Aug 03, 2016; 15:30:24

*RUN   1        : UYMZ                    
 MODEL          : MZCER040 - Maize           
 EXPERIMENT     : UYMZ0130 MZ    late to create DSS                             
 TREATMENT  1   : UYMZ                    

@YEAR DOY   DAS   DAP   CNAD   GNAD   VNAD   GN%D   VN%D   NUPC   LNAD   SNAD   LN%D   SN%D   RN%D   SNN0C   SNN1C
 1990 215     3     0    0.0    0.0    0.0   0.00   0.00    0.0    0.0    0.0    0.0   0.00   0.00    0.00    0.00
 1990 216     4     1    0.0    0.0    0.0   0.00   0.00    0.0    0.0    0.0    0.0   0.00   0.00    0.00    0.00
 1990 217     5     2    0.0    0.0    0.0   0.00   0.00    0.0    0.0    0.0    0.0   0.00   0.00    0.00    0.00
 1990 218     6     3    0.0    0.0    0.0   0.00   0.00    0.0    0.0    0.0    0.0   0.00   0.00    0.00    0.00
 1990 219     7     4    0.0    0.0    0.0   0.00   0.00    0.0    0.0    0.0    0.0   0.00   0.00    0.00    0.00
 1990 220     8     5    0.0    0.0    0.0   0.00   0.00    0.0    0.0    0.0    0.0   0.00   0.00    0.00    0.00
 1990 221     9     6    0.0    0.0    0.0   0.00   0.00    0.0    0.0    0.0    0.0   0.00   0.00    0.00    0.00
 1990 222    10     7    0.0    0.0    0.0   0.00   0.00    0.0    0.0    0.0    0.0   0.00   0.00    0.00    0.00
 1990 223    11     8    0.0    0.0    0.0   0.00   0.00    0.0    0.0    0.0    0.0   0.00   0.00    0.00    0.00
 1990 224    12     9    0.0    0.0    0.0   0.00   0.00    0.0    0.0    0.0    0.0   0.00   0.00    0.00    0.00
 1990 225    13    10    0.0    0.0    0.0   0.00   0.00    0.0    0.0    0.0    0.0   0.00   0.00    0.00    0.00
 1990 226    14    11    0.0    0.0    0.0   0.00   0.00    0.0    0.0    0.0    0.0   0.00   0.00    0.00    0.00
 1990 227    15    12    0.0    0.0    0.0   0.00   0.00    0.0    0.0    0.0    0.0   0.00   0.00    0.00    0.00
 1990 228    16    13    0.0    0.0    0.0   0.00   0.00    0.0    0.0    0.0    0.0   0.00   0.00    0.00    0.00
 1990 229    17    14    0.0    0.0    0.0   0.00   0.00    0.0    0.0    0.0    0.0   0.00   0.00    0.00    0.00
 1990 230    18    15    0.0    0.0    0.0   0.00   0.00    0.0    0.0    0.0    0.0   0.00   0.00    0.00    0.00
 1990 231    19    16    0.0    0.0    0.0   0.00   0.00    0.0    0.0    0.0    0.0   0.00   0.00    0.00    0.00
 1990 232    20    17    0.0    0.0    0.0   0.00   0.00    0.0    0.0    0.0    0.0   0.00   0.00    0.00    0.00
 1990 233    21    18    0.0    0.0    0.0   0.00   0.00    0.0    0.0    0.0    0.0   0.00   0.00    0.00    0.00
 1990 234    22    19    0.0    0.0    0.0   0.00   0.00    0.0    0.0    0.0    0.0   0.00   0.00    0.00    0.00
 1990 235    23    20    0.0    0.0    0.0   0.00   0.00    0.0    0.0    0.0    0.0   0.00   0.00    0.00    0.00
 1990 236    24    21    0.0    0.0    0.0   0.00   0.00    0.0    0.0    0.0    0.0   0.00   0.00    0.00    0.00
 1990 237    25    22    1.2    0.0    1.2   0.00   4.40    0.0    0.6    0.6    4.4   4.40   0.00    0.00    0.00
 1990 238    26    23    1.3    0.0    1.3   0.00   4.53    0.2    0.6    0.6    4.5   4.53   1.09    0.00    0.00
 1990 239    27    24    1.3    0.0    1.3   0.00   4.53    0.2    0.6    0.6    4.5   4.53   1.08    0.00    0.00
 1990 240    28    25    1.3    0.0    1.3   0.00   4.52    0.2    0.6    0.6    4.5   4.52   1.20    0.00    0.00
 1990 241    29    26    1.3    0.0    1.3   0.00   4.52    0.2    0.6    0.6    4.5   4.52   1.18    0.00    0.00
 1990 242    30    27    1.3    0.0    1.3   0.00   4.52    0.2    0.6    0.6    4.5   4.52   1.16    0.00    0.00
 1990 243    31    28    1.3    0.0    1.3   0.00   4.52    0.2    0.6    0.6    4.5   4.52   1.16    0.00    0.00
 1990 244    32    29    1.3    0.0    1.3   0.00   4.52    0.2    0.6    0.6    4.5   4.52   1.16    0.00    0.00
 1990 245    33    30    1.3    0.0    1.3   0.00   4.52    0.2    0.6    0.6    4.5   4.52   1.16    0.00    0.00
 1990 246    34    31    1.3    0.0    1.3   0.00   4.52    0.2    0.6    0.6    4.5   4.52   1.15    0.00    0.00
 1990 247    35    32    1.3    0.0    1.3   0.00   4.52    0.2    0.6    0.6    4.5   4.52   1.16    0.00    0.00
 1990 248    36    33    1.3    0.0    1.3   0.00   4.52    0.2    0.6    0.6    4.5   4.52   1.15    0.00    0.00
 1990 249    37    34    1.3    0.0    1.3   0.00   4.52    0.2    0.6    0.6    4.5   4.52   1.14    0.00    0.00
 1990 250    38    35    1.3    0.0    1.3   0.00   4.52    0.2    0.6    0.6    4.5   4.52   1.12    0.00    0.00
 1990 251    39    36    1.3    0.0    1.3   0.00   4.52    0.2    0.6    0.6    4.5   4.52   1.11    0.00    0.00
 1990 252    40    37    1.3    0.0    1.3   0.00   4.52    0.2    0.6    0.6    4.5   4.52   1.00    0.00    0.00
 1990 253    41    38    1.2    0.0    1.2   0.00   4.36    0.2    0.6    0.6    4.4   4.36   1.16    0.00    0.00
 1990 254    42    39    1.2    0.0    1.2   0.00   4.34    0.2    0.6    0.6    4.3   4.34   1.18    0.00    0.00
 1990 255    43    40    1.2    0.0    1.2   0.00   4.27    0.3    0.6    0.6    4.3   4.27   1.42    0.00    0.00
 1990 256    44    41    1.2    0.0    1.2   0.00   4.27    0.4    0.6    0.6    4.3   4.27   1.48    0.00    0.01
 1990 257    45    42    1.2    0.0    1.2   0.00   4.20    0.4    0.7    0.6    4.2   4.20   1.40    0.00    0.01
 1990 258    46    43    1.3    0.0    1.3   0.00   4.02    0.4    0.7    0.6    4.0   4.02   1.22    0.00    0.01
 1990 259    47    44    1.4    0.0    1.4   0.00   3.76    0.5    0.8    0.5    3.8   3.76   1.15    0.00    0.01
 1990 260    48    45    1.6    0.0    1.6   0.00   3.85    0.7    1.0    0.5    3.8   3.85   1.12    0.00    0.01
 1990 261    49    46    1.7    0.0    1.7   0.00   3.83    0.9    1.2    0.5    3.8   3.83   1.12    0.00    0.02
 1990 262    50    47    1.9    0.0    1.9   0.00   3.85    1.2    1.4    0.5    3.8   3.85   1.20    0.00    0.02
 1990 263    51    48    2.1    0.0    2.1   0.00   3.79    1.4    1.6    0.5    3.8   3.79   1.09    0.00    0.02
 1990 264    52    49    2.4    0.0    2.4   0.00   3.62    1.6    1.8    0.5    3.6   3.62   1.09    0.00    0.02
 1990 265    53    50    2.7    0.0    2.7   0.00   3.81    2.3    2.2    0.5    3.8   3.81   1.35    0.00    0.03
 1990 266    54    51    3.0    0.0    3.0   0.00   4.07    2.8    2.4    0.6    4.1   4.07   1.46    0.00    0.03
 1990 267    55    52    3.1    0.0    3.1   0.00   4.04    3.0    2.5    0.6    4.0   4.04   1.48    0.00    0.03
 1990 268    56    53    3.2    0.0    3.2   0.00   4.00    3.3    2.6    0.6    4.0   4.00   1.39    0.00    0.04
 1990 269    57    54    3.3    0.0    3.3   0.00   3.80    3.5    2.8    0.5    3.8   3.80   1.25    0.00    0.05
 1990 270    58    55    3.6    0.0    3.6   0.00   3.61    3.9    3.1    0.5    3.6   3.61   1.21    0.00    0.05
 1990 271    59    56    4.1    0.0    4.1   0.00   3.64    4.3    3.6    0.5    3.6   3.64   1.08    0.00    0.06
 1990 272    60    57    4.6    0.0    4.6   0.00   3.61    5.2    4.1    0.5    3.6   3.61   1.21    0.00    0.07
 1990 273    61    58    5.2    0.0    5.2   0.00   3.57    6.1    4.7    0.5    3.6   3.57   1.21    0.00    0.08
 1990 274    62    59    5.9    0.0    5.9   0.00   3.40    7.1    5.4    0.5    3.4   3.40   1.21    0.00    0.09
 1990 275    63    60    6.9    0.0    6.9   0.00   3.51    8.8    6.4    0.5    3.5   3.51   1.25    0.00    0.10
 1990 276    64    61    7.9    0.0    7.9   0.00   3.42   10.1    7.4    0.5    3.4   3.42   1.21    0.00    0.12
 1990 277    65    62    9.0    0.0    9.0   0.00   3.28   11.4    8.6    0.5    3.3   3.28   1.16    0.00    0.13
 1990 278    66    63   10.8    0.0   10.8   0.00   3.52   13.1   10.3    0.5    3.5   3.52   1.09    0.00    0.15
 1990 279    67    64   12.0    0.0   12.0   0.00   3.65   14.6   11.4    0.5    3.7   3.65   1.14    0.00    0.17
 1990 280    68    65   12.7    0.0   12.7   0.00   3.46   15.3   12.3    0.5    3.5   3.46   1.09    0.00    0.19
 1990 281    69    66   14.1    0.0   14.1   0.00   3.62   17.3   13.5    0.5    3.6   3.62   1.17    0.00    0.21
 1990 282    70    67   15.9    0.0   15.9   0.00   3.78   20.6   15.3    0.5    3.8   3.78   1.27    0.00    0.23
 1990 283    71    68   17.0    0.0   17.0   0.00   3.68   22.5   16.5    0.5    3.7   3.68   1.22    0.00    0.26
 1990 284    72    69   18.3    0.0   18.3   0.00   3.57   23.3   17.8    0.5    3.6   3.57   1.10    0.00    0.29
 1990 285    73    70   19.7    0.0   19.7   0.00   3.54   26.9   19.2    0.5    3.5   3.54   1.25    0.00    0.32
 1990 286    74    71   20.8    0.0   20.8   0.00   3.52   29.5   20.3    0.5    3.5   3.52   1.24    0.00    0.37
 1990 287    75    72   22.5    0.0   22.5   0.00   3.49   32.3   21.9    0.6    3.5   3.49   1.21    0.00    0.41
 1990 288    76    73   23.7    0.0   23.7   0.00   3.47   35.1   23.1    0.6    3.5   3.47   1.21    0.00    0.47
 1990 289    77    74   24.8    0.0   24.8   0.00   3.45   37.7   24.1    0.7    3.5   3.45   1.20    0.00    0.53
 1990 290    78    75   26.2    0.0   26.2   0.00   3.43   39.1   25.5    0.7    3.4   3.43   1.13    0.00    0.60
 1990 291    79    76   29.1    0.0   29.1   0.00   3.40   43.6   28.2    0.9    3.4   3.40   1.16    0.00    0.67
 1990 292    80    77   32.1    0.0   32.1   0.00   3.37   46.8   31.0    1.2    3.4   3.37   1.12    0.00    0.75
 1990 293    81    78   35.2    0.0   35.2   0.00   3.33   50.5   33.7    1.5    3.3   3.33   1.11    0.00    0.83
 1990 294    82    79   38.3    0.0   38.3   0.00   3.30   55.2   36.3    1.9    3.3   3.30   1.14    0.00    0.91
 1990 295    83    80   41.3    0.0   41.3   0.00   3.26   60.3   38.9    2.4    3.3   3.26   1.16    0.00    1.00
 1990 296    84    81   44.6    0.0   44.6   0.00   3.23   64.1   41.6    3.0    3.2   3.23   1.13    0.00    1.10
 1990 297    85    82   47.6    0.0   47.6   0.00   3.20   68.3   43.9    3.7    3.2   3.20   1.13    0.00    1.21
 1990 298    86    83   50.7    0.0   50.7   0.00   3.17   71.4   46.3    4.4    3.2   3.17   1.10    0.00    1.32
 1990 299    87    84   55.1    0.0   55.1   0.00   3.14   77.9   49.5    5.6    3.1   3.14   1.13    0.00    1.43
 1990 300    88    85   59.9    0.0   59.9   0.00   3.09   82.9   52.8    7.1    3.1   3.09   1.11    0.00    1.54
 1990 301    89    86   63.4    0.0   63.4   0.00   3.06   85.6   55.1    8.3    3.1   3.06   1.07    0.00    1.67
 1990 302    90    87   68.5    0.0   68.5   0.00   3.01   90.7   58.2   10.2    3.0   3.01   1.07    0.00    1.78
 1990 303    91    88   74.3    0.0   74.3   0.00   2.97   99.0   61.6   12.6    3.0   2.97   1.13    0.00    1.90
 1990 304    92    89   78.7    0.0   78.7   0.00   2.94  105.3   64.1   14.6    2.9   2.94   1.14    0.00    2.03
 1990 305    93    90   83.8    0.0   83.8   0.00   2.91  111.0   66.8   17.0    2.9   2.91   1.11    0.00    2.16
 1990 306    94    91   89.1    0.0   89.1   0.00   2.87  116.7   69.5   19.6    2.9   2.87   1.10    0.00    2.31
 1990 307    95    92   93.4    0.0   93.4   0.00   2.83  120.3   71.4   22.1    2.8   2.83   1.07    0.00    2.45
 1990 308    96    93   97.0    0.0   97.0   0.00   2.80  125.9   72.9   24.1    2.8   2.80   1.10    0.00    2.59
 1990 309    97    94   98.9    0.0   98.9   0.00   2.78  130.3   73.6   25.3    2.8   2.78   1.11    0.00    2.74
 1990 310    98    95  102.4    0.0  102.4   0.00   2.76  134.2   75.2   27.3    2.8   2.76   1.10    0.00    2.90
 1990 311    99    96  104.9    0.0  104.9   0.00   2.67  137.3   75.4   29.5    2.7   2.67   1.08    0.00    3.06
 1990 312   100    97  107.6    0.0  107.6   0.00   2.64  139.8   76.3   31.3    2.6   2.64   1.08    0.00    3.23
 1990 313   101    98  109.8    0.0  109.8   0.00   2.52  142.0   76.8   33.0    2.5   2.52   1.07    0.00    3.40
 1990 314   102    99  111.6    0.0  111.6   0.00   2.37  143.8   76.2   35.3    2.4   2.37   1.07    0.00    3.56
 1990 315   103   100  113.1    0.0  113.1   0.00   2.24  145.4   75.1   38.0    2.2   2.24   1.06    0.00    3.73
 1990 316   104   101  114.4    0.0  114.4   0.00   2.17  146.8   74.7   39.8    2.2   2.17   1.06    0.00    3.89
 1990 317   105   102  115.6    0.0  115.6   0.00   2.03  148.0   72.7   42.9    2.0   2.03   1.05    0.00    4.06
 1990 318   106   103  116.7    0.0  116.7   0.00   1.96  149.1   71.6   45.0    2.0   1.96   1.05    0.00    4.23
 1990 319   107   104  118.0    0.0  118.0   0.00   1.93  150.5   71.5   46.5    1.9   1.93   1.05    0.00    4.39
 1990 320   108   105  119.3    0.0  119.3   0.00   1.89  151.8   71.2   48.1    1.9   1.89   1.03    0.00    4.56
 1990 321   109   106  120.7    0.0  120.7   0.00   1.86  153.4   70.8   49.8    1.9   1.86   0.99    0.00    4.73
 1990 322   110   107  122.2    0.0  122.2   0.00   1.80  155.1   70.0   52.2    1.8   1.80   0.96    0.00    4.89
 1990 323   111   108  123.7    0.0  123.7   0.00   1.72  156.7   68.8   54.9    1.7   1.72   0.95    0.00    5.06
 1990 324   112   109  125.0    0.0  125.0   0.00   1.69  158.2   68.5   56.6    1.7   1.69   0.96    0.00    5.23
 1990 325   113   110  126.2    0.0  126.2   0.00   1.64  159.6   67.7   58.5    1.6   1.64   0.93    0.00    5.40
 1990 326   114   111  127.4    0.0  127.4   0.00   1.61  161.0   67.2   60.2    1.6   1.61   0.90    0.00    5.57
 1990 327   115   112  128.5    0.0  128.5   0.00   1.57  162.3   66.7   61.8    1.6   1.57   0.87    0.00    5.74
 1990 328   116   113  129.6    0.0  129.6   0.00   1.53  163.5   66.2   63.4    1.5   1.53   0.86    0.00    5.91
 1990 329   117   114  130.5    0.0  130.5   0.00   1.67  164.6   71.5   59.0    1.7   1.67   0.86    0.00    6.09
 1990 330   118   115  131.4    0.0  131.4   0.00   1.68  165.7   71.1   60.3    1.7   1.68   0.84    0.00    6.26
 1990 331   119   116  132.0    0.0  132.0   0.00   1.69  166.6   70.7   61.3    1.7   1.69   0.81    0.00    6.43
 1990 332   120   117  132.9    0.0  132.9   0.00   1.70  167.8   70.3   62.6    1.7   1.70   0.78    0.00    6.61
 1990 333   121   118  133.6    0.0  133.6   0.00   1.71  168.9   69.7   63.9    1.7   1.71   0.76    0.00    6.79
 1990 334   122   119  134.4    0.0  134.4   0.00   1.72  170.1   69.0   65.4    1.7   1.72   0.77    0.00    6.97
 1990 335   123   120  135.1    0.0  135.1   0.00   1.72  171.2   68.3   66.8    1.7   1.72   0.76    0.00    7.15
 1990 336   124   121  135.8    0.0  135.8   0.00   1.74  172.3   67.7   68.1    1.7   1.74   0.77    0.00    7.33
 1990 337   125   122  136.4    0.0  136.4   0.00   1.75  173.4   67.0   69.3    1.7   1.75   0.76    0.00    7.52
 1990 338   126   123  141.0    0.0  141.0   0.00   1.81  182.4   68.2   72.9    1.8   1.81   0.82    0.00    7.70
 1990 339   127   124  143.0    0.0  143.0   0.00   1.83  186.1   67.7   75.3    1.8   1.83   0.85    0.00    7.91
 1990 340   128   125  143.6    0.0  143.6   0.00   1.83  187.6   66.6   77.0    1.8   1.83   0.87    0.00    8.13
 1990 341   129   126  143.9    0.0  143.9   0.00   1.84  188.6   65.4   78.5    1.8   1.84   0.86    0.00    8.35
 1990 342   130   127  144.1    0.0  144.1   0.00   1.84  189.6   64.2   79.9    1.8   1.84   0.85    0.00    8.58
 1990 343   131   128  144.3    2.7  141.6   1.70   1.81  190.6   63.1   78.5    1.8   1.81   0.87    0.00    8.81
 1990 344   132   129  144.4    5.7  138.7   1.70   1.77  191.0   61.8   76.9    1.8   1.77   0.88    0.00    9.04
 1990 345   133   130  144.6    9.5  135.1   1.70   1.73  191.5   60.2   74.9    1.7   1.73   0.88    0.00    9.28
 1990 346   134   131  144.9   11.9  132.9   1.69   1.70  192.1   59.2   73.7    1.7   1.70   0.88    0.00    9.51
 1990 347   135   132  145.2   15.4  129.8   1.69   1.66  192.8   57.8   72.0    1.7   1.66   0.88    0.00    9.75
 1990 348   136   133  145.6   17.7  127.9   1.68   1.64  193.6   57.0   70.9    1.6   1.64   0.88    0.00    9.99
 1990 349   137   134  146.1   21.1  125.0   1.67   1.60  194.5   55.7   69.3    1.6   1.60   0.87    0.00   10.23
 1990 350   138   135  146.6   25.6  121.0   1.66   1.55  195.3   53.9   67.1    1.5   1.55   0.87    0.00   10.47
 1990 351   139   136  147.0   30.2  116.8   1.65   1.50  196.1   52.1   64.7    1.5   1.50   0.88    0.00   10.72
 1990 352   140   137  147.5   34.4  113.2   1.64   1.45  196.9   50.4   62.7    1.4   1.45   0.88    0.00   10.96
 1990 353   141   138  147.9   37.9  110.0   1.63   1.41  197.5   49.0   61.0    1.4   1.41   0.87    0.00   11.21
 1990 354   142   139  148.5   41.6  106.9   1.62   1.37  198.4   47.6   59.3    1.4   1.37   0.87    0.00   11.46
 1990 355   143   140  149.1   45.9  103.2   1.61   1.32  199.4   46.0   57.2    1.3   1.32   0.87    0.00   11.71
 1990 356   144   141  149.6   50.1   99.6   1.59   1.29  200.2   44.9   54.6    1.3   1.29   0.88    0.00   11.96
 1990 357   145   142  150.0   54.2   95.8   1.58   1.24  200.8   43.0   52.8    1.2   1.24   0.88    0.00   12.21
 1990 358   146   143  150.4   57.4   93.0   1.57   1.20  201.4   41.7   51.3    1.2   1.20   0.89    0.00   12.47
 1990 359   147   144  150.8   60.3   90.5   1.56   1.16  202.0   40.3   50.2    1.2   1.16   0.89    0.00   12.72
 1990 360   148   145  151.6   64.2   87.4   1.54   1.12  203.1   39.0   48.5    1.1   1.12   0.89    0.00   12.98
 1990 361   149   146  152.3   68.0   84.2   1.53   1.08  204.0   37.5   46.7    1.1   1.08   0.88    0.00   13.24
 1990 362   150   147  153.1   70.1   83.0   1.52   1.06  205.2   37.0   46.0    1.1   1.06   0.88    0.00   13.49
 1990 363   151   148  153.7   71.9   81.8   1.51   1.05  206.1   36.4   45.4    1.0   1.05   0.87    0.00   13.75
 1990 364   152   149  154.4   74.6   79.7   1.50   1.02  207.0   35.5   44.2    1.0   1.02   0.87    0.00   14.01
 1990 365   153   150  155.0   78.1   76.9   1.49   0.98  207.9   34.3   42.6    1.0   0.98   0.87    0.00   14.28
 1991 001   154   151  155.6   81.6   74.0   1.47   0.95  208.7   33.0   41.0    0.9   0.95   0.87    0.00   14.54
 1991 002   155   152  156.2   85.0   71.2   1.46   0.91  209.6   31.7   39.5    0.9   0.91   0.88    0.00   14.81
 1991 003   156   153  156.8   88.3   68.5   1.44   0.88  210.4   30.5   38.0    0.9   0.88   0.88    0.00   15.07
 1991 004   157   154  157.4   91.1   66.4   1.43   0.85  211.3   29.6   36.8    0.8   0.85   0.88    0.00   15.34
 1991 005   158   155  158.1   93.8   64.3   1.42   0.82  212.2   28.7   35.7    0.8   0.82   0.88    0.00   15.61
 1991 006   159   156  158.7   96.6   62.1   1.40   0.79  213.1   27.7   34.5    0.8   0.79   0.88    0.00   15.88
 1991 007   160   157  159.3   99.5   59.8   1.38   0.77  213.9   26.7   33.2    0.8   0.77   0.88    0.00   16.15
 1991 008   161   158  159.9  102.4   57.5   1.37   0.74  214.7   25.6   31.9    0.7   0.74   0.88    0.00   16.42
 1991 009   162   159  160.4  105.1   55.4   1.35   0.72  215.4   25.2   30.2    0.7   0.72   0.89    0.00   16.69
 1991 010   163   160  161.0  107.7   53.3   1.34   0.69  216.1   24.1   29.2    0.7   0.69   0.90    0.00   16.96
 1991 011   164   161  161.5  110.1   51.4   1.32   0.67  216.9   23.2   28.2    0.7   0.67   0.90    0.00   17.23
 1991 012   165   162  162.0  112.0   50.1   1.31   0.64  217.6   22.5   27.6    0.6   0.64   0.90    0.00   17.51
 1991 013   166   163  162.5  113.8   48.7   1.30   0.63  218.2   21.9   26.8    0.6   0.63   0.91    0.00   17.78
 1991 014   167   164  163.0  115.8   47.1   1.28   0.61  218.8   21.1   26.0    0.6   0.61   0.92    0.00   18.06
 1991 015   168   165  163.4  118.0   45.4   1.27   0.59  219.3   20.4   25.0    0.6   0.59   0.92    0.00   18.34
 1991 016   169   166  163.8  119.2   44.5   1.25   0.57  219.8   20.0   24.5    0.6   0.57   0.93    0.00   18.61
 1991 017   170   167  164.1  120.1   44.0   1.25   0.56  220.2   19.6   24.4    0.6   0.56   0.93    0.00   18.89
 1991 018   171   168  164.5  121.5   43.0   1.23   0.55  220.7   19.1   23.8    0.5   0.55   0.93    0.00   19.17
 1991 019   172   169  165.0  123.1   42.0   1.22   0.54  221.1   18.8   23.1    0.5   0.54   0.94    0.00   19.44
 1991 020   173   170  165.0  123.1   42.0   1.22   0.54  221.6   18.8   23.1    0.5   0.54   0.94    0.00   19.44
 1991 021   174   171  165.0  123.1   42.0   1.22   0.54  222.0   18.8   23.1    0.5   0.54   0.94    0.00   19.44
 1991 022   175   172  165.0  123.1   42.0   1.22   0.54  222.4   18.8   23.1    0.5   0.54   0.94    0.00   19.44
 1991 023   176   173  165.0  123.1   42.0   1.22   0.54  222.9   18.8   23.1    0.5   0.54   0.94    0.00   19.44

*DSSAT Cropping System Model Ver. 4.0.2.000               Aug 03, 2016; 15:30:24

*RUN   2        : UYMZ                    
 MODEL          : MZCER040 - Maize           
 EXPERIMENT     : UYMZ0130 MZ    late to create DSS                             
 TREATMENT  1   : UYMZ                    

@YEAR DOY   DAS   DAP   CNAD   GNAD   VNAD   GN%D   VN%D   NUPC   LNAD   SNAD   LN%D   SN%D   RN%D   SNN0C   SNN1C
 1991 215     3     0    0.0    0.0    0.0   0.00   0.00    0.0    0.0    0.0    0.0   0.00   0.00    0.00    0.00
 1991 216     4     1    0.0    0.0    0.0   0.00   0.00    0.0    0.0    0.0    0.0   0.00   0.00    0.00    0.00
 1991 217     5     2    0.0    0.0    0.0   0.00   0.00    0.0    0.0    0.0    0.0   0.00   0.00    0.00    0.00
 1991 218     6     3    0.0    0.0    0.0   0.00   0.00    0.0    0.0    0.0    0.0   0.00   0.00    0.00    0.00
 1991 219     7     4    0.0    0.0    0.0   0.00   0.00    0.0    0.0    0.0    0.0   0.00   0.00    0.00    0.00
 1991 220     8     5    0.0    0.0    0.0   0.00   0.00    0.0    0.0    0.0    0.0   0.00   0.00    0.00    0.00
 1991 221     9     6    0.0    0.0    0.0   0.00   0.00    0.0    0.0    0.0    0.0   0.00   0.00    0.00    0.00
 1991 222    10     7    0.0    0.0    0.0   0.00   0.00    0.0    0.0    0.0    0.0   0.00   0.00    0.00    0.00
 1991 223    11     8    0.0    0.0    0.0   0.00   0.00    0.0    0.0    0.0    0.0   0.00   0.00    0.00    0.00
 1991 224    12     9    0.0    0.0    0.0   0.00   0.00    0.0    0.0    0.0    0.0   0.00   0.00    0.00    0.00
 1991 225    13    10    0.0    0.0    0.0   0.00   0.00    0.0    0.0    0.0    0.0   0.00   0.00    0.00    0.00
 1991 226    14    11    0.0    0.0    0.0   0.00   0.00    0.0    0.0    0.0    0.0   0.00   0.00    0.00    0.00
 1991 227    15    12    0.0    0.0    0.0   0.00   0.00    0.0    0.0    0.0    0.0   0.00   0.00    0.00    0.00
 1991 228    16    13    1.2    0.0    1.2   0.00   4.40    0.0    0.6    0.6    4.4   4.40   0.00    0.00    0.00
 1991 229    17    14    1.3    0.0    1.3   0.00   4.54    0.2    0.6    0.6    4.5   4.54   1.10    0.00    0.00
 1991 230    18    15    1.3    0.0    1.3   0.00   4.54    0.2    0.6    0.6    4.5   4.54   1.07    0.00    0.00
 1991 231    19    16    1.3    0.0    1.3   0.00   4.48    0.2    0.6    0.6    4.5   4.48   1.13    0.00    0.00
 1991 232    20    17    1.2    0.0    1.2   0.00   4.45    0.2    0.6    0.6    4.5   4.45   1.13    0.00    0.00
 1991 233    21    18    1.2    0.0    1.2   0.00   4.42    0.2    0.6    0.6    4.4   4.42   1.18    0.00    0.00
 1991 234    22    19    1.2    0.0    1.2   0.00   4.39    0.2    0.6    0.6    4.4   4.39   1.19    0.00    0.00
 1991 235    23    20    1.2    0.0    1.2   0.00   4.37    0.3    0.6    0.6    4.4   4.37   1.27    0.00    0.01
 1991 236    24    21    1.2    0.0    1.2   0.00   3.82    0.4    0.7    0.5    3.8   3.82   1.23    0.00    0.01
 1991 237    25    22    1.4    0.0    1.4   0.00   3.61    0.6    0.9    0.5    3.6   3.61   1.19    0.00    0.01
 1991 238    26    23    1.6    0.0    1.6   0.00   3.88    0.8    1.1    0.5    3.9   3.88   1.10    0.00    0.01
 1991 239    27    24    1.8    0.0    1.8   0.00   3.95    1.0    1.3    0.6    4.0   3.95   1.12    0.00    0.01
 1991 240    28    25    2.0    0.0    2.0   0.00   3.70    1.2    1.4    0.5    3.7   3.70   1.19    0.00    0.01
 1991 241    29    26    2.3    0.0    2.3   0.00   3.59    1.6    1.7    0.5    3.6   3.59   1.18    0.00    0.02
 1991 242    30    27    2.6    0.0    2.6   0.00   3.52    1.9    2.1    0.5    3.5   3.52   1.11    0.00    0.02
 1991 243    31    28    3.1    0.0    3.1   0.00   3.87    2.5    2.6    0.5    3.9   3.87   1.14    0.00    0.02
 1991 244    32    29    3.4    0.0    3.4   0.00   3.95    2.9    2.9    0.6    3.9   3.95   1.28    0.00    0.03
 1991 245    33    30    3.6    0.0    3.6   0.00   3.82    3.1    3.1    0.5    3.8   3.82   1.13    0.00    0.03
 1991 246    34    31    3.9    0.0    3.9   0.00   3.60    3.5    3.4    0.5    3.6   3.60   1.21    0.00    0.03
 1991 247    35    32    4.5    0.0    4.5   0.00   3.50    4.5    4.0    0.5    3.5   3.50   1.32    0.00    0.04
 1991 248    36    33    5.2    0.0    5.2   0.00   3.45    5.5    4.7    0.5    3.4   3.45   1.29    0.00    0.04
 1991 249    37    34    6.1    0.0    6.1   0.00   3.54    6.2    5.6    0.5    3.5   3.54   1.09    0.00    0.05
 1991 250    38    35    7.0    0.0    7.0   0.00   3.73    7.2    6.5    0.5    3.7   3.73   1.12    0.00    0.06
 1991 251    39    36    7.6    0.0    7.6   0.00   3.77    7.9    7.0    0.5    3.8   3.77   1.15    0.00    0.06
 1991 252    40    37    8.1    0.0    8.1   0.00   3.72    9.1    7.5    0.5    3.7   3.72   1.29    0.00    0.07
 1991 253    41    38    8.7    0.0    8.7   0.00   3.62   10.1    8.2    0.5    3.6   3.62   1.27    0.00    0.08
 1991 254    42    39    9.5    0.0    9.5   0.00   3.52   11.6    9.0    0.5    3.5   3.52   1.27    0.00    0.10
 1991 255    43    40   10.6    0.0   10.6   0.00   3.40   13.2   10.1    0.5    3.4   3.40   1.23    0.00    0.11
 1991 256    44    41   12.2    0.0   12.2   0.00   3.31   14.9   11.7    0.5    3.3   3.31   1.16    0.00    0.13
 1991 257    45    42   14.3    0.0   14.3   0.00   3.91   17.3   13.8    0.5    3.9   3.91   1.14    0.00    0.15
 1991 258    46    43   14.3    0.0   14.3   0.00   3.82   17.3   13.8    0.5    3.8   3.82   1.12    0.00    0.15
 1991 259    47    44   14.3    0.0   14.3   0.00   3.41   17.6   13.8    0.5    3.4   3.41   1.14    0.00    0.17
 1991 260    48    45   17.5    0.0   17.5   0.00   3.78   20.6   16.9    0.5    3.8   3.78   1.09    0.00    0.20
 1991 261    49    46   18.3    0.0   18.3   0.00   3.68   23.1   17.8    0.5    3.7   3.68   1.25    0.00    0.22
 1991 262    50    47   18.8    0.0   18.8   0.00   3.60   24.9   18.3    0.5    3.6   3.60   1.28    0.00    0.25
 1991 263    51    48   20.1    0.0   20.1   0.00   3.56   26.0   19.6    0.5    3.6   3.56   1.16    0.00    0.28
 1991 264    52    49   22.2    0.0   22.2   0.00   3.52   28.2   21.7    0.5    3.5   3.52   1.12    0.00    0.32
 1991 265    53    50   23.5    0.0   23.5   0.00   3.50   31.4   23.0    0.6    3.5   3.50   1.22    0.00    0.36
 1991 266    54    51   24.4    0.0   24.4   0.00   3.52   33.7   23.8    0.6    3.5   3.52   1.27    0.00    0.40
 1991 267    55    52   25.1    0.0   25.1   0.00   3.48   35.3   24.5    0.6    3.5   3.48   1.22    0.00    0.45
 1991 268    56    53   26.5    0.0   26.5   0.00   3.45   37.3   25.8    0.7    3.4   3.45   1.17    0.00    0.51
 1991 269    57    54   28.4    0.0   28.4   0.00   3.43   40.4   27.6    0.8    3.4   3.43   1.17    0.00    0.57
 1991 270    58    55   31.7    0.0   31.7   0.00   3.39   43.8   30.7    1.0    3.4   3.39   1.12    0.00    0.64
 1991 271    59    56   33.1    0.0   33.1   0.00   3.40   47.3   32.0    1.1    3.4   3.40   1.20    0.00    0.70
 1991 272    60    57   34.2    0.0   34.2   0.00   3.37   49.4   33.0    1.2    3.4   3.37   1.18    0.00    0.78
 1991 273    61    58   35.9    0.0   35.9   0.00   3.34   52.1   34.5    1.4    3.3   3.34   1.15    0.00    0.86
 1991 274    62    59   37.3    0.0   37.3   0.00   3.33   54.7   35.7    1.5    3.3   3.33   1.15    0.00    0.95
 1991 275    63    60   38.5    0.0   38.5   0.00   3.32   57.5   36.8    1.7    3.3   3.32   1.16    0.00    1.04
 1991 276    64    61   39.7    0.0   39.7   0.00   3.30   60.2   37.9    1.9    3.3   3.30   1.16    0.00    1.14
 1991 277    65    62   41.4    0.0   41.4   0.00   3.27   62.5   39.3    2.1    3.3   3.27   1.13    0.00    1.25
 1991 278    66    63   43.2    0.0   43.2   0.00   3.31   63.5   40.9    2.3    3.3   3.31   1.08    0.00    1.36
 1991 279    67    64   43.7    0.0   43.7   0.00   3.30   65.4   41.3    2.4    3.3   3.30   1.13    0.00    1.47
 1991 280    68    65   44.3    0.0   44.3   0.00   3.29   66.5   41.8    2.5    3.3   3.29   1.14    0.00    1.58
 1991 281    69    66   45.1    0.0   45.1   0.00   3.27   69.1   42.4    2.7    3.3   3.27   1.17    0.00    1.70
 1991 282    70    67   46.5    0.0   46.5   0.00   3.22   70.8   43.5    3.0    3.2   3.22   1.12    0.00    1.82
 1991 283    71    68   48.6    0.0   48.6   0.00   3.20   74.7   45.2    3.4    3.2   3.20   1.13    0.00    1.95
 1991 284    72    69   51.3    0.0   51.3   0.00   3.18   78.8   47.2    4.0    3.2   3.18   1.13    0.00    2.09
 1991 285    73    70   55.3    0.0   55.3   0.00   3.14   83.7   50.2    5.1    3.1   3.14   1.12    0.00    2.23
 1991 286    74    71   61.4    0.0   61.4   0.00   3.09   89.8   54.5    7.0    3.1   3.09   1.09    0.00    2.38
 1991 287    75    72   65.9    0.0   65.9   0.00   3.04   93.6   57.3    8.6    3.0   3.04   1.07    0.00    2.52
 1991 288    76    73   68.6    0.0   68.6   0.00   3.00   96.2   58.8    9.7    3.0   3.00   1.07    0.00    2.67
 1991 289    77    74   71.0    0.0   71.0   0.00   2.98   98.9   60.3   10.7    3.0   2.98   1.07    0.00    2.81
 1991 290    78    75   72.5    0.0   72.5   0.00   2.99  102.3   61.3   11.3    3.0   2.99   1.12    0.00    2.95
 1991 291    79    76   74.6    0.0   74.6   0.00   2.95  106.8   62.3   12.2    3.0   2.95   1.13    0.00    3.11
 1991 292    80    77   78.4    0.0   78.4   0.00   2.92  111.9   64.4   14.0    2.9   2.92   1.12    0.00    3.27
 1991 293    81    78   82.1    0.0   82.1   0.00   2.87  116.8   66.2   15.9    2.9   2.87   1.11    0.00    3.44
 1991 294    82    79   85.7    0.0   85.7   0.00   2.76  120.7   67.3   18.3    2.8   2.76   1.09    0.00    3.62
 1991 295    83    80   89.0    0.0   89.0   0.00   2.61  123.9   67.8   21.3    2.6   2.61   1.08    0.00    3.80
 1991 296    84    81   91.9    0.0   91.9   0.00   2.59  126.7   69.0   22.9    2.6   2.59   1.08    0.00    3.98
 1991 297    85    82   94.4    0.0   94.4   0.00   2.57  129.1   70.1   24.3    2.6   2.57   1.08    0.00    4.16
 1991 298    86    83   96.4    0.0   96.4   0.00   2.54  131.1   70.7   25.7    2.5   2.54   1.08    0.00    4.34
 1991 299    87    84   98.2    0.0   98.2   0.00   2.34  132.8   70.2   28.0    2.3   2.34   1.08    0.00    4.51
 1991 300    88    85   99.6    0.0   99.6   0.00   2.26  134.3   70.0   29.7    2.3   2.26   1.08    0.00    4.69
 1991 301    89    86  100.9    0.0  100.9   0.00   2.22  135.5   70.0   30.9    2.2   2.22   1.08    0.00    4.87
 1991 302    90    87  102.0    0.0  102.0   0.00   2.18  136.6   69.8   32.2    2.2   2.18   1.08    0.00    5.04
 1991 303    91    88  102.9    0.0  102.9   0.00   2.14  137.5   69.5   33.4    2.1   2.14   1.08    0.00    5.22
 1991 304    92    89  103.7    0.0  103.7   0.00   2.09  138.2   69.0   34.6    2.1   2.09   1.09    0.00    5.40
 1991 305    93    90  104.4    0.0  104.4   0.00   2.02  138.9   68.0   36.4    2.0   2.02   1.07    0.00    5.57
 1991 306    94    91  104.9    0.0  104.9   0.00   1.95  139.5   67.0   37.9    2.0   1.95   1.03    0.00    5.75
 1991 307    95    92  105.5    0.0  105.5   0.00   1.89  140.2   66.1   39.4    1.9   1.89   1.01    0.00    5.93
 1991 308    96    93  106.1    0.0  106.1   0.00   1.83  140.9   65.2   40.9    1.8   1.83   0.97    0.00    6.10
 1991 309    97    94  107.5    0.0  107.5   0.00   1.79  142.4   64.7   42.8    1.8   1.79   0.96    0.00    6.28
 1991 310    98    95  108.9    0.0  108.9   0.00   1.75  144.0   64.4   44.5    1.8   1.75   0.97    0.00    6.46
 1991 311    99    96  110.2    0.0  110.2   0.00   1.72  145.5   64.1   46.1    1.7   1.72   0.95    0.00    6.64
 1991 312   100    97  111.5    0.0  111.5   0.00   1.70  146.9   63.9   47.6    1.7   1.70   0.93    0.00    6.82
 1991 313   101    98  112.6    0.0  112.6   0.00   1.67  148.2   63.7   48.9    1.7   1.67   0.90    0.00    7.00
 1991 314   102    99  113.6    0.0  113.6   0.00   1.64  149.4   63.3   50.3    1.6   1.64   0.89    0.00    7.18
 1991 315   103   100  114.5    0.0  114.5   0.00   1.63  150.5   63.2   51.3    1.6   1.63   0.88    0.00    7.36
 1991 316   104   101  115.3    0.0  115.3   0.00   1.62  151.5   63.2   52.1    1.6   1.62   0.84    0.00    7.54
 1991 317   105   102  116.1    0.0  116.1   0.00   1.60  152.5   63.0   53.0    1.6   1.60   0.83    0.00    7.72
 1991 318   106   103  116.8    0.0  116.8   0.00   1.58  153.4   62.8   54.0    1.6   1.58   0.84    0.00    7.91
 1991 319   107   104  117.5    0.0  117.5   0.00   1.55  154.2   62.4   55.1    1.6   1.55   0.84    0.00    8.09
 1991 320   108   105  118.1    0.0  118.1   0.00   1.53  154.9   61.9   56.1    1.5   1.53   0.83    0.00    8.28
 1991 321   109   106  118.7    0.0  118.7   0.00   1.50  155.6   61.6   57.1    1.5   1.50   0.81    0.00    8.46
 1991 322   110   107  119.2    0.0  119.2   0.00   1.47  156.3   61.1   58.2    1.5   1.47   0.80    0.00    8.65
 1991 323   111   108  119.8    0.0  119.8   0.00   1.61  157.0   66.1   53.7    1.6   1.61   0.78    0.00    8.84
 1991 324   112   109  120.2    0.0  120.2   0.00   1.61  157.7   65.6   54.7    1.6   1.61   0.76    0.00    9.03
 1991 325   113   110  120.7    0.0  120.7   0.00   1.61  158.3   64.9   55.8    1.6   1.61   0.74    0.00    9.22
 1991 326   114   111  121.1    0.0  121.1   0.00   1.61  158.9   64.1   57.0    1.6   1.61   0.73    0.00    9.40
 1991 327   115   112  121.5    0.0  121.5   0.00   1.61  159.6   63.1   58.5    1.6   1.61   0.73    0.00    9.60
 1991 328   116   113  122.0    0.0  122.0   0.00   1.62  160.3   62.5   59.5    1.6   1.62   0.74    0.00    9.79
 1991 329   117   114  122.5    0.0  122.5   0.00   1.63  161.0   62.0   60.5    1.6   1.63   0.75    0.00    9.98
 1991 330   118   115  123.0    0.0  123.0   0.00   1.63  161.7   61.3   61.6    1.6   1.63   0.75    0.00   10.17
 1991 331   119   116  123.3    0.0  123.3   0.00   1.64  162.4   60.6   62.7    1.6   1.64   0.74    0.00   10.37
 1991 332   120   117  123.8    0.0  123.8   0.00   1.65  163.1   59.7   64.0    1.6   1.65   0.73    0.00   10.56
 1991 333   121   118  124.2    0.0  124.2   0.00   1.65  163.9   58.8   65.4    1.6   1.65   0.74    0.00   10.76
 1991 334   122   119  124.7    0.0  124.7   0.00   1.65  164.8   57.8   66.9    1.7   1.65   0.73    0.00   10.96
 1991 335   123   120  125.2    0.0  125.2   0.00   1.66  166.0   56.8   68.4    1.7   1.66   0.73    0.00   11.16
 1991 336   124   121  125.8    0.0  125.8   0.00   1.66  167.2   55.8   70.0    1.7   1.66   0.73    0.00   11.37
 1991 337   125   122  126.3    4.2  122.1   1.58   1.62  168.3   54.2   68.0    1.6   1.62   0.74    0.00   11.57
 1991 338   126   123  131.3    8.3  122.9   1.56   1.63  177.4   54.5   68.4    1.6   1.63   0.81    0.00   11.78
 1991 339   127   124  132.5   12.5  120.0   1.57   1.59  179.7   53.2   66.8    1.6   1.59   0.83    0.00   12.02
 1991 340   128   125  134.1   16.7  117.4   1.58   1.55  182.4   52.0   65.3    1.6   1.55   0.84    0.00   12.25
 1991 341   129   126  135.2   20.9  114.3   1.57   1.51  184.3   50.7   63.6    1.5   1.51   0.86    0.00   12.49
 1991 342   130   127  135.9   25.0  110.8   1.57   1.47  185.4   49.2   61.7    1.5   1.47   0.86    0.00   12.74
 1991 343   131   128  136.4   28.6  107.9   1.57   1.44  186.4   48.2   59.6    1.4   1.44   0.87    0.00   12.99
 1991 344   132   129  136.9   32.6  104.4   1.56   1.38  187.1   46.3   58.1    1.4   1.38   0.87    0.00   13.23
 1991 345   133   130  137.4   36.5  100.9   1.55   1.34  187.9   44.8   56.2    1.3   1.34   0.88    0.00   13.49
 1991 346   134   131  138.1   39.7   98.4   1.54   1.31  188.9   43.9   54.5    1.3   1.31   0.89    0.00   13.74
 1991 347   135   132  138.6   43.2   95.4   1.53   1.26  189.7   42.3   53.1    1.3   1.26   0.89    0.00   13.99
 1991 348   136   133  139.1   46.0   93.1   1.53   1.24  190.4   41.4   51.6    1.2   1.24   0.89    0.00   14.25
 1991 349   137   134  139.5   49.0   90.6   1.52   1.21  191.1   40.6   50.0    1.2   1.21   0.90    0.00   14.50
 1991 350   138   135  140.0   52.5   87.5   1.51   1.16  191.7   39.0   48.5    1.2   1.16   0.90    0.00   14.76
 1991 351   139   136  140.5   56.1   84.4   1.50   1.12  192.4   37.4   47.0    1.1   1.12   0.90    0.00   15.02
 1991 352   140   137  141.2   59.6   81.6   1.48   1.08  193.4   36.2   45.4    1.1   1.08   0.90    0.00   15.27
 1991 353   141   138  141.9   63.0   78.9   1.47   1.04  194.3   35.0   43.9    1.0   1.04   0.91    0.00   15.53
 1991 354   142   139  142.5   66.3   76.2   1.46   1.01  195.1   33.8   42.4    1.0   1.01   0.91    0.00   15.79
 1991 355   143   140  143.3   69.6   73.6   1.45   0.97  196.2   32.7   41.0    1.0   0.97   0.91    0.00   16.05
 1991 356   144   141  144.1   72.8   71.3   1.43   0.95  197.3   32.0   39.3    1.0   0.95   0.92    0.00   16.32
 1991 357   145   142  144.8   76.0   68.8   1.42   0.91  198.1   30.6   38.2    0.9   0.91   0.92    0.00   16.58
 1991 358   146   143  145.4   79.1   66.3   1.41   0.88  198.9   29.4   36.9    0.9   0.88   0.92    0.00   16.85
 1991 359   147   144  146.3   81.8   64.5   1.40   0.85  200.1   28.6   35.9    0.9   0.85   0.93    0.00   17.11
 1991 360   148   145  147.0   83.7   63.4   1.39   0.84  201.0   28.1   35.3    0.8   0.84   0.93    0.00   17.38
 1991 361   149   146  147.7   85.6   62.0   1.38   0.82  201.9   27.5   34.5    0.8   0.82   0.93    0.00   17.64
 1991 362   150   147  148.7   88.1   60.6   1.37   0.80  203.1   26.9   33.7    0.8   0.80   0.93    0.00   17.91
 1991 363   151   148  149.4   90.7   58.7   1.36   0.78  204.1   26.0   32.6    0.8   0.78   0.93    0.00   18.18
 1991 364   152   149  150.1   93.4   56.7   1.34   0.75  205.0   25.2   31.6    0.8   0.75   0.93    0.00   18.45
 1991 365   153   150  150.8   96.1   54.8   1.33   0.73  205.9   24.3   30.5    0.7   0.73   0.94    0.00   18.72
 1992 001   154   151  151.6   98.6   53.0   1.32   0.71  206.9   24.0   29.1    0.7   0.71   0.95    0.00   19.00
 1992 002   155   152  152.3  101.0   51.3   1.30   0.69  207.8   23.3   28.0    0.7   0.69   0.96    0.00   19.27
 1992 003   156   153  152.9  102.7   50.3   1.29   0.67  208.5   22.6   27.7    0.7   0.67   0.96    0.00   19.54
 1992 004   157   154  153.8  104.7   49.1   1.28   0.65  209.6   21.9   27.2    0.7   0.65   0.96    0.00   19.82
 1992 005   158   155  154.6  106.7   47.9   1.27   0.63  210.6   21.2   26.6    0.6   0.63   0.96    0.00   20.09
 1992 006   159   156  155.4  108.7   46.6   1.26   0.62  211.5   20.8   25.8    0.6   0.62   0.97    0.00   20.37
 1992 007   160   157  156.1  110.8   45.2   1.24   0.60  212.3   20.3   25.0    0.6   0.60   0.98    0.00   20.65
 1992 008   161   158  156.8  112.9   43.9   1.23   0.59  213.2   19.7   24.2    0.6   0.59   0.98    0.00   20.92
 1992 009   162   159  156.8  112.9   43.9   1.23   0.59  214.0   19.7   24.2    0.6   0.59   0.98    0.00   20.92
 1992 010   163   160  156.8  112.9   43.9   1.23   0.59  214.9   19.7   24.2    0.6   0.59   0.98    0.00   20.92
 1992 011   164   161  156.8  112.9   43.9   1.23   0.59  215.8   19.7   24.2    0.6   0.59   0.98    0.00   20.92

*DSSAT Cropping System Model Ver. 4.0.2.000               Aug 03, 2016; 15:30:24

*RUN   3        : UYMZ                    
 MODEL          : MZCER040 - Maize           
 EXPERIMENT     : UYMZ0130 MZ    late to create DSS                             
 TREATMENT  1   : UYMZ                    

@YEAR DOY   DAS   DAP   CNAD   GNAD   VNAD   GN%D   VN%D   NUPC   LNAD   SNAD   LN%D   SN%D   RN%D   SNN0C   SNN1C
 1992 215     3     0    0.0    0.0    0.0   0.00   0.00    0.0    0.0    0.0    0.0   0.00   0.00    0.00    0.00
 1992 216     4     1    0.0    0.0    0.0   0.00   0.00    0.0    0.0    0.0    0.0   0.00   0.00    0.00    0.00
 1992 217     5     2    0.0    0.0    0.0   0.00   0.00    0.0    0.0    0.0    0.0   0.00   0.00    0.00    0.00
 1992 218     6     3    0.0    0.0    0.0   0.00   0.00    0.0    0.0    0.0    0.0   0.00   0.00    0.00    0.00
 1992 219     7     4    0.0    0.0    0.0   0.00   0.00    0.0    0.0    0.0    0.0   0.00   0.00    0.00    0.00
 1992 220     8     5    0.0    0.0    0.0   0.00   0.00    0.0    0.0    0.0    0.0   0.00   0.00    0.00    0.00
 1992 221     9     6    0.0    0.0    0.0   0.00   0.00    0.0    0.0    0.0    0.0   0.00   0.00    0.00    0.00
 1992 222    10     7    0.0    0.0    0.0   0.00   0.00    0.0    0.0    0.0    0.0   0.00   0.00    0.00    0.00
 1992 223    11     8    0.0    0.0    0.0   0.00   0.00    0.0    0.0    0.0    0.0   0.00   0.00    0.00    0.00
 1992 224    12     9    0.0    0.0    0.0   0.00   0.00    0.0    0.0    0.0    0.0   0.00   0.00    0.00    0.00
 1992 225    13    10    0.0    0.0    0.0   0.00   0.00    0.0    0.0    0.0    0.0   0.00   0.00    0.00    0.00
 1992 226    14    11    0.0    0.0    0.0   0.00   0.00    0.0    0.0    0.0    0.0   0.00   0.00    0.00    0.00
 1992 227    15    12    0.0    0.0    0.0   0.00   0.00    0.0    0.0    0.0    0.0   0.00   0.00    0.00    0.00
 1992 228    16    13    0.0    0.0    0.0   0.00   0.00    0.0    0.0    0.0    0.0   0.00   0.00    0.00    0.00
 1992 229    17    14    0.0    0.0    0.0   0.00   0.00    0.0    0.0    0.0    0.0   0.00   0.00    0.00    0.00
 1992 230    18    15    0.0    0.0    0.0   0.00   0.00    0.0    0.0    0.0    0.0   0.00   0.00    0.00    0.00
 1992 231    19    16    0.0    0.0    0.0   0.00   0.00    0.0    0.0    0.0    0.0   0.00   0.00    0.00    0.00
 1992 232    20    17    0.0    0.0    0.0   0.00   0.00    0.0    0.0    0.0    0.0   0.00   0.00    0.00    0.00
 1992 233    21    18    0.0    0.0    0.0   0.00   0.00    0.0    0.0    0.0    0.0   0.00   0.00    0.00    0.00
 1992 234    22    19    0.0    0.0    0.0   0.00   0.00    0.0    0.0    0.0    0.0   0.00   0.00    0.00    0.00
 1992 235    23    20    0.0    0.0    0.0   0.00   0.00    0.0    0.0    0.0    0.0   0.00   0.00    0.00    0.00
 1992 236    24    21    0.0    0.0    0.0   0.00   0.00    0.0    0.0    0.0    0.0   0.00   0.00    0.00    0.00
 1992 237    25    22    0.0    0.0    0.0   0.00   0.00    0.0    0.0    0.0    0.0   0.00   0.00    0.00    0.00
 1992 238    26    23    0.0    0.0    0.0   0.00   0.00    0.0    0.0    0.0    0.0   0.00   0.00    0.00    0.00
 1992 239    27    24    0.0    0.0    0.0   0.00   0.00    0.0    0.0    0.0    0.0   0.00   0.00    0.00    0.00
 1992 240    28    25    0.0    0.0    0.0   0.00   0.00    0.0    0.0    0.0    0.0   0.00   0.00    0.00    0.00
 1992 241    29    26    0.0    0.0    0.0   0.00   0.00    0.0    0.0    0.0    0.0   0.00   0.00    0.00    0.00
 1992 242    30    27    0.0    0.0    0.0   0.00   0.00    0.0    0.0    0.0    0.0   0.00   0.00    0.00    0.00
 1992 243    31    28    0.0    0.0    0.0   0.00   0.00    0.0    0.0    0.0    0.0   0.00   0.00    0.00    0.00
 1992 244    32    29    1.2    0.0    1.2   0.00   4.40    0.0    0.6    0.6    4.4   4.40   0.00    0.00    0.00
 1992 245    33    30    1.3    0.0    1.3   0.00   4.56    0.2    0.6    0.6    4.6   4.56   1.08    0.00    0.00
 1992 246    34    31    1.3    0.0    1.3   0.00   4.56    0.2    0.6    0.6    4.6   4.56   1.08    0.00    0.00
 1992 247    35    32    1.3    0.0    1.3   0.00   4.56    0.2    0.6    0.6    4.6   4.56   1.06    0.00    0.00
 1992 248    36    33    1.3    0.0    1.3   0.00   4.53    0.2    0.6    0.6    4.5   4.53   1.11    0.00    0.00
 1992 249    37    34    1.3    0.0    1.3   0.00   4.51    0.2    0.6    0.6    4.5   4.51   1.12    0.00    0.00
 1992 250    38    35    1.3    0.0    1.3   0.00   4.49    0.2    0.6    0.6    4.5   4.49   1.14    0.00    0.00
 1992 251    39    36    1.3    0.0    1.3   0.00   4.47    0.2    0.6    0.6    4.5   4.47   1.15    0.00    0.00
 1992 252    40    37    1.3    0.0    1.3   0.00   4.47    0.2    0.6    0.6    4.5   4.47   1.13    0.00    0.00
 1992 253    41    38    1.3    0.0    1.3   0.00   4.47    0.2    0.6    0.6    4.5   4.47   1.08    0.00    0.00
 1992 254    42    39    1.2    0.0    1.2   0.00   4.40    0.2    0.6    0.6    4.4   4.40   1.16    0.00    0.00
 1992 255    43    40    1.2    0.0    1.2   0.00   4.40    0.2    0.6    0.6    4.4   4.40   1.12    0.00    0.00
 1992 256    44    41    1.2    0.0    1.2   0.00   4.36    0.2    0.6    0.6    4.4   4.36   1.32    0.00    0.01
 1992 257    45    42    1.2    0.0    1.2   0.00   4.36    0.2    0.6    0.6    4.4   4.36   1.25    0.00    0.01
 1992 258    46    43    1.2    0.0    1.2   0.00   4.33    0.3    0.6    0.6    4.3   4.33   1.33    0.00    0.01
 1992 259    47    44    1.2    0.0    1.2   0.00   4.31    0.3    0.6    0.6    4.3   4.31   1.38    0.00    0.01
 1992 260    48    45    1.2    0.0    1.2   0.00   4.31    0.3    0.6    0.6    4.3   4.31   1.30    0.00    0.01
 1992 261    49    46    1.2    0.0    1.2   0.00   4.25    0.3    0.6    0.6    4.2   4.25   1.33    0.00    0.01
 1992 262    50    47    1.2    0.0    1.2   0.00   4.24    0.4    0.6    0.6    4.2   4.24   1.46    0.00    0.01
 1992 263    51    48    1.2    0.0    1.2   0.00   4.22    0.4    0.6    0.6    4.2   4.22   1.46    0.00    0.01
 1992 264    52    49    1.2    0.0    1.2   0.00   4.06    0.4    0.6    0.6    4.1   4.06   1.36    0.00    0.01
 1992 265    53    50    1.2    0.0    1.2   0.00   3.78    0.4    0.7    0.5    3.8   3.78   1.26    0.00    0.02
 1992 266    54    51    1.3    0.0    1.3   0.00   3.86    0.5    0.8    0.5    3.9   3.86   1.10    0.00    0.02
 1992 267    55    52    1.4    0.0    1.4   0.00   3.61    0.7    0.9    0.5    3.6   3.61   1.21    0.00    0.02
 1992 268    56    53    1.6    0.0    1.6   0.00   3.76    0.8    1.1    0.5    3.8   3.76   1.10    0.00    0.02
 1992 269    57    54    1.8    0.0    1.8   0.00   3.99    1.3    1.2    0.6    4.0   3.99   1.53    0.00    0.02
 1992 270    58    55    1.9    0.0    1.9   0.00   3.96    1.4    1.3    0.6    4.0   3.96   1.46    0.00    0.03
 1992 271    59    56    1.9    0.0    1.9   0.00   3.61    1.4    1.4    0.5    3.6   3.61   1.22    0.00    0.03
 1992 272    60    57    2.2    0.0    2.2   0.00   3.52    1.8    1.7    0.5    3.5   3.52   1.23    0.00    0.03
 1992 273    61    58    2.6    0.0    2.6   0.00   3.44    2.3    2.1    0.5    3.4   3.44   1.24    0.00    0.04
 1992 274    62    59    3.0    0.0    3.0   0.00   3.24    2.9    2.6    0.5    3.2   3.24   1.22    0.00    0.04
 1992 275    63    60    3.8    0.0    3.8   0.00   3.30    3.6    3.3    0.5    3.3   3.30   1.13    0.00    0.05
 1992 276    64    61    4.6    0.0    4.6   0.00   3.42    4.6    4.1    0.5    3.4   3.42   1.15    0.00    0.06
 1992 277    65    62    5.3    0.0    5.3   0.00   3.50    5.7    4.8    0.5    3.5   3.50   1.26    0.00    0.06
 1992 278    66    63    6.0    0.0    6.0   0.00   3.34    6.7    5.5    0.5    3.3   3.34   1.23    0.00    0.07
 1992 279    67    64    7.1    0.0    7.1   0.00   3.58    7.7    6.6    0.5    3.6   3.58   1.12    0.00    0.08
 1992 280    68    65    7.8    0.0    7.8   0.00   3.70    9.5    7.3    0.5    3.7   3.70   1.44    0.00    0.09
 1992 281    69    66    8.3    0.0    8.3   0.00   3.78   10.3    7.7    0.5    3.8   3.78   1.39    0.00    0.10
 1992 282    70    67    8.6    0.0    8.6   0.00   3.68   11.1    8.0    0.5    3.7   3.68   1.32    0.00    0.12
 1992 283    71    68    9.1    0.0    9.1   0.00   3.56   12.1    8.6    0.5    3.6   3.56   1.24    0.00    0.14
 1992 284    72    69    9.9    0.0    9.9   0.00   3.63   13.7    9.4    0.5    3.6   3.63   1.24    0.00    0.16
 1992 285    73    70   10.6    0.0   10.6   0.00   3.36   14.4   10.1    0.5    3.4   3.36   1.15    0.00    0.18
 1992 286    74    71   12.1    0.0   12.1   0.00   3.32   16.8   11.6    0.5    3.3   3.32   1.20    0.00    0.21
 1992 287    75    72   15.7    0.0   15.7   0.00   3.78   21.4   15.1    0.5    3.8   3.78   1.21    0.00    0.24
 1992 288    76    73   17.8    0.0   17.8   0.00   3.68   24.4   17.3    0.5    3.7   3.68   1.20    0.00    0.27
 1992 289    77    74   19.6    0.0   19.6   0.00   3.56   25.4   19.1    0.5    3.6   3.56   1.07    0.00    0.31
 1992 290    78    75   21.5    0.0   21.5   0.00   3.52   27.6   20.9    0.6    3.5   3.52   1.10    0.00    0.35
 1992 291    79    76   23.2    0.0   23.2   0.00   3.50   31.4   22.6    0.6    3.5   3.50   1.22    0.00    0.38
 1992 292    80    77   24.8    0.0   24.8   0.00   3.48   34.6   24.1    0.7    3.5   3.48   1.23    0.00    0.43
 1992 293    81    78   26.6    0.0   26.6   0.00   3.45   35.6   25.9    0.8    3.5   3.45   1.10    0.00    0.49
 1992 294    82    79   28.3    0.0   28.3   0.00   3.43   39.7   27.4    0.9    3.4   3.43   1.20    0.00    0.54
 1992 295    83    80   29.7    0.0   29.7   0.00   3.42   42.9   28.8    1.0    3.4   3.42   1.20    0.00    0.60
 1992 296    84    81   31.9    0.0   31.9   0.00   3.39   46.3   30.7    1.1    3.4   3.39   1.18    0.00    0.67
 1992 297    85    82   35.0    0.0   35.0   0.00   3.36   50.5   33.5    1.4    3.4   3.36   1.16    0.00    0.75
 1992 298    86    83   39.1    0.0   39.1   0.00   3.32   55.6   37.1    2.0    3.3   3.32   1.15    0.00    0.83
 1992 299    87    84   42.9    0.0   42.9   0.00   3.28   58.3   40.2    2.6    3.3   3.28   1.07    0.00    0.92
 1992 300    88    85   47.1    0.0   47.1   0.00   3.24   65.4   43.6    3.5    3.2   3.24   1.16    0.00    1.00
 1992 301    89    86   50.3    0.0   50.3   0.00   3.19   70.5   46.0    4.3    3.2   3.19   1.16    0.00    1.10
 1992 302    90    87   51.8    0.0   51.8   0.00   3.21   71.4   47.2    4.6    3.2   3.21   1.11    0.00    1.21
 1992 303    91    88   52.4    0.0   52.4   0.00   3.18   75.7   47.6    4.8    3.2   3.18   1.19    0.00    1.31
 1992 304    92    89   53.5    0.0   53.5   0.00   3.17   78.4   48.4    5.1    3.2   3.17   1.18    0.00    1.43
 1992 305    93    90   54.8    0.0   54.8   0.00   3.16   81.1   49.3    5.5    3.2   3.16   1.18    0.00    1.56
 1992 306    94    91   56.5    0.0   56.5   0.00   3.16   83.9   50.5    6.0    3.2   3.16   1.18    0.00    1.70
 1992 307    95    92   58.5    0.0   58.5   0.00   3.16   86.8   51.9    6.7    3.2   3.16   1.17    0.00    1.84
 1992 308    96    93   58.3    0.0   58.3   0.00   3.07   87.0   51.3    7.0    3.1   3.07   1.15    0.00    1.99
 1992 309    97    94   59.5    0.0   59.5   0.00   3.08   90.3   52.1    7.3    3.1   3.08   1.18    0.00    2.14
 1992 310    98    95   60.4    0.0   60.4   0.00   3.06   91.9   52.7    7.7    3.1   3.06   1.16    0.00    2.30
 1992 311    99    96   60.9    0.0   60.9   0.00   3.02   93.9   52.8    8.1    3.0   3.02   1.14    0.00    2.46
 1992 312   100    97   62.4    0.0   62.4   0.00   3.03   97.0   53.8    8.6    3.0   3.03   1.15    0.00    2.63
 1992 313   101    98   64.1    0.0   64.1   0.00   3.03   99.9   54.8    9.3    3.0   3.03   1.15    0.00    2.81
 1992 314   102    99   66.1    0.0   66.1   0.00   3.03  102.6   56.0   10.1    3.0   3.03   1.15    0.00    2.99
 1992 315   103   100   66.1    0.0   66.1   0.00   2.87  102.6   55.0   11.2    2.9   2.87   1.15    0.00    2.99
 1992 316   104   101   71.4    0.0   71.4   0.00   2.99  107.4   58.6   12.8    3.0   2.99   1.12    0.00    3.18
 1992 317   105   102   73.3    0.0   73.3   0.00   2.98  110.4   59.5   13.8    3.0   2.98   1.14    0.00    3.36
 1992 318   106   103   74.0    0.0   74.0   0.00   2.93  111.7   59.5   14.5    2.9   2.93   1.14    0.00    3.55
 1992 319   107   104   76.0    0.0   76.0   0.00   2.89  112.1   60.0   15.9    2.9   2.89   1.09    0.00    3.74
 1992 320   108   105   77.6    0.0   77.6   0.00   2.87  114.6   60.5   17.1    2.9   2.87   1.11    0.00    3.93
 1992 321   109   106   78.7    0.0   78.7   0.00   2.73  117.1   59.7   19.0    2.7   2.73   1.11    0.00    4.12
 1992 322   110   107   82.2    0.0   82.2   0.00   2.72  122.3   61.0   21.2    2.7   2.72   1.11    0.00    4.31
 1992 323   111   108   85.5    0.0   85.5   0.00   2.59  125.8   62.4   23.1    2.6   2.59   1.09    0.00    4.52
 1992 324   112   109   87.2    0.0   87.2   0.00   2.54  127.8   62.8   24.4    2.5   2.54   1.08    0.00    4.72
 1992 325   113   110   88.5    0.0   88.5   0.00   2.48  129.2   62.6   25.8    2.5   2.48   1.08    0.00    4.93
 1992 326   114   111   89.7    0.0   89.7   0.00   2.42  130.3   62.4   27.3    2.4   2.42   1.08    0.00    5.14
 1992 327   115   112   90.4    0.0   90.4   0.00   2.41  131.2   62.5   27.9    2.4   2.41   1.07    0.00    5.34
 1992 328   116   113   90.9    0.0   90.9   0.00   2.40  131.9   62.5   28.4    2.4   2.40   1.07    0.00    5.55
 1992 329   117   114   91.4    0.0   91.4   0.00   2.37  132.5   62.3   29.1    2.4   2.37   1.06    0.00    5.76
 1992 330   118   115   91.9    0.0   91.9   0.00   2.35  133.1   62.1   29.9    2.3   2.35   1.06    0.00    5.97
 1992 331   119   116   92.5    0.0   92.5   0.00   2.30  133.8   61.5   31.0    2.3   2.30   1.06    0.00    6.18
 1992 332   120   117   93.1    0.0   93.1   0.00   2.28  134.6   61.3   31.8    2.3   2.28   1.05    0.00    6.39
 1992 333   121   118   93.7    0.0   93.7   0.00   2.22  135.3   60.5   33.1    2.2   2.22   1.04    0.00    6.60
 1992 334   122   119   94.2    0.0   94.2   0.00   2.15  135.9   59.5   34.7    2.2   2.15   1.04    0.00    6.81
 1992 335   123   120   95.2    0.0   95.2   0.00   2.11  137.0   59.0   36.2    2.1   2.11   1.04    0.00    7.02
 1992 336   124   121   95.9    0.0   95.9   0.00   2.02  137.9   57.8   38.1    2.0   2.02   1.01    0.00    7.23
 1992 337   125   122   96.8    0.0   96.8   0.00   1.97  139.1   57.0   39.8    2.0   1.97   0.99    0.00    7.44
 1992 338   126   123  103.9    0.0  103.9   0.00   2.02  148.0   59.8   44.2    2.0   2.02   1.00    0.00    7.66
 1992 339   127   124  105.6    0.0  105.6   0.00   1.95  150.1   59.0   46.6    2.0   1.95   0.99    0.00    7.88
 1992 340   128   125  106.2    0.0  106.2   0.00   1.90  150.9   58.3   47.9    1.9   1.90   0.99    0.00    8.11
 1992 341   129   126  108.5    0.0  108.5   0.00   1.91  153.7   58.9   49.6    1.9   1.91   0.99    0.00    8.33
 1992 342   130   127  110.2    0.0  110.2   0.00   2.08  155.7   63.6   46.6    2.1   2.08   0.99    0.00    8.56
 1992 343   131   128  111.1    0.0  111.1   0.00   2.08  157.0   62.9   48.2    2.1   2.08   0.98    0.00    8.79
 1992 344   132   129  111.7    0.0  111.7   0.00   2.08  158.0   62.0   49.7    2.1   2.08   0.99    0.00    9.02
 1992 345   133   130  112.3    0.0  112.3   0.00   2.07  159.0   61.0   51.3    2.1   2.07   0.99    0.00    9.25
 1992 346   134   131  112.7    0.0  112.7   0.00   2.07  159.8   60.1   52.7    2.1   2.07   0.99    0.00    9.49
 1992 347   135   132  112.9    0.0  112.9   0.00   2.08  160.4   59.4   53.5    2.1   2.08   0.98    0.00    9.72
 1992 348   136   133  112.9    0.0  112.9   0.00   2.08  161.2   58.6   54.2    2.1   2.08   0.98    0.00    9.96
 1992 349   137   134  112.6    0.0  112.6   0.00   2.08  161.8   57.6   55.0    2.1   2.08   0.99    0.00   10.21
 1992 350   138   135  111.7    0.0  111.7   0.00   2.08  162.4   56.4   55.3    2.1   2.08   1.00    0.00   10.45
 1992 351   139   136  106.9    0.0  106.9   0.00   1.99  162.6   53.1   53.8    2.0   1.99   1.09    0.00   10.71
 1992 352   140   137  106.9    0.0  106.9   0.00   2.00  162.6   52.1   54.8    2.0   2.00   1.08    0.00   10.71
 1992 353   141   138  106.9    0.0  106.9   0.00   2.01  162.6   51.3   55.7    2.0   2.01   1.08    0.00   10.71
 1992 354   142   139  106.9    0.0  106.9   0.00   2.02  162.6   50.3   56.6    2.0   2.02   1.08    0.00   10.71
 1992 355   143   140  106.9    2.4  104.5   1.86   1.97  162.6   49.2   55.4    2.0   1.97   1.08    0.00   10.71
 1992 356   144   141  106.9    4.9  102.1   1.86   1.92  162.6   48.0   54.1    1.9   1.92   1.08    0.00   10.71
 1992 357   145   142  106.9    8.2   98.7   1.83   1.87  162.6   46.7   52.0    1.9   1.87   1.09    0.00   10.71
 1992 358   146   143  106.9   11.3   95.6   1.83   1.83  162.6   45.6   50.0    1.8   1.83   1.09    0.00   10.71
 1992 359   147   144  106.9   13.6   93.3   1.83   1.79  162.6   44.5   48.8    1.8   1.79   1.10    0.00   10.71
 1992 360   148   145  106.9   16.8   90.2   1.81   1.70  162.6   42.4   47.8    1.7   1.70   1.10    0.00   10.71
 1992 361   149   146  108.8   19.6   89.2   1.79   1.68  164.4   41.9   47.2    1.7   1.68   1.08    0.00   10.99
 1992 362   150   147  109.5   22.4   87.1   1.78   1.64  165.3   41.0   46.1    1.6   1.64   1.07    0.00   11.27
 1992 363   151   148  110.1   26.0   84.0   1.78   1.58  165.9   39.5   44.5    1.6   1.58   1.07    0.00   11.54
 1992 364   152   149  110.7   29.6   81.1   1.77   1.55  166.5   38.6   42.5    1.5   1.55   1.07    0.00   11.82
 1992 365   153   150  111.5   32.8   78.7   1.77   1.51  167.2   37.8   40.9    1.5   1.51   1.07    0.00   12.10
 1992 366   154   151  113.1   35.5   77.6   1.76   1.50  168.4   37.4   40.2    1.5   1.50   1.07    0.00   12.38
 1993 001   155   152  116.3   38.3   78.0   1.76   1.51  171.1   37.7   40.2    1.5   1.51   1.07    0.00   12.66
 1993 002   156   153  117.9   41.3   76.6   1.75   1.50  172.4   37.3   39.3    1.5   1.50   1.07    0.00   12.93
 1993 003   157   154  119.3   44.3   75.1   1.75   1.48  173.6   36.8   38.3    1.5   1.48   1.07    0.00   13.20
 1993 004   158   155  121.9   47.7   74.1   1.75   1.45  176.0   36.2   37.9    1.5   1.45   1.07    0.00   13.48
 1993 005   159   156  124.6   51.2   73.4   1.74   1.42  179.3   35.3   38.1    1.4   1.42   1.07    0.00   13.75
 1993 006   160   157  126.9   54.8   72.2   1.74   1.36  182.0   34.0   38.2    1.4   1.36   1.07    0.00   14.02
 1993 007   161   158  129.7   58.2   71.5   1.74   1.35  184.3   33.7   37.8    1.3   1.35   1.07    0.00   14.29
 1993 008   162   159  131.2   61.7   69.6   1.74   1.31  186.0   32.7   36.8    1.3   1.31   1.07    0.00   14.57
 1993 009   163   160  132.6   64.9   67.7   1.74   1.28  187.6   31.8   35.9    1.3   1.28   1.06    0.00   14.84
 1993 010   164   161  134.0   68.3   65.7   1.73   1.24  189.3   30.9   34.8    1.2   1.24   1.06    0.00   15.11
 1993 011   165   162  135.2   71.8   63.4   1.73   1.20  190.8   29.8   33.6    1.2   1.20   1.06    0.00   15.39
 1993 012   166   163  136.3   75.3   61.0   1.73   1.15  192.2   28.7   32.3    1.2   1.15   1.05    0.00   15.66
 1993 013   167   164  137.3   78.8   58.6   1.73   1.10  193.3   27.5   31.0    1.1   1.10   1.05    0.00   15.94
 1993 014   168   165  138.3   82.1   56.2   1.73   1.06  194.5   26.4   29.8    1.1   1.06   1.06    0.00   16.22
 1993 015   169   166  139.2   85.4   53.8   1.72   1.01  195.4   25.3   28.5    1.0   1.01   1.05    0.00   16.50
 1993 016   170   167  139.9   88.5   51.4   1.71   0.97  196.2   24.2   27.2    1.0   0.97   1.06    0.00   16.78
 1993 017   171   168  140.7   90.9   49.9   1.71   0.94  197.2   23.4   26.4    0.9   0.94   1.05    0.00   17.06
 1993 018   172   169  141.7   92.7   49.0   1.70   0.92  198.3   23.0   25.9    0.9   0.92   1.05    0.00   17.34
 1993 019   173   170  142.6   95.3   47.3   1.69   0.89  199.4   22.3   25.1    0.9   0.89   1.05    0.00   17.62
 1993 020   174   171  143.5   98.1   45.4   1.68   0.86  200.4   21.4   24.1    0.9   0.86   1.05    0.00   17.90
 1993 021   175   172  144.3  100.8   43.6   1.67   0.82  201.3   20.5   23.1    0.8   0.82   1.04    0.00   18.18
 1993 022   176   173  145.2  103.4   41.7   1.66   0.79  202.3   19.6   22.1    0.8   0.79   1.04    0.00   18.46
 1993 023   177   174  146.0  106.0   40.0   1.64   0.75  203.3   18.8   21.2    0.8   0.75   1.04    0.00   18.74
 1993 024   178   175  146.0  106.0   40.0   1.64   0.75  204.3   18.8   21.2    0.8   0.75   1.04    0.00   18.74
 1993 025   179   176  146.0  106.0   40.0   1.64   0.75  205.3   18.8   21.2    0.8   0.75   1.04    0.00   18.74
 1993 026   180   177  146.0  106.0   40.0   1.64   0.75  206.3   18.8   21.2    0.8   0.75   1.04    0.00   18.74
