*WATER BALANCE OUTPUT FILE

*DSSAT Cropping System Model Ver. 4.0.2.000               Aug 03, 2016; 15:30:24

*RUN   1        : UYMZ                    
 MODEL          : MZCER040 - Maize           
 EXPERIMENT     : UYMZ0130 MZ    late to create DSS                             
 TREATMENT  1   : UYMZ                    


     WATER BALANCE PARAMETERS
     ========================                  --mm--

     Soil H20 (start) on Year/day 1990/212     490.84
     Soil H20 (final) on Year/day 1991/023     456.52
     Effective Irrigation                        0.00
     Precipitation                             751.80
     Drainage                                  141.68
     Runoff                                      5.89
     Soil Evaporation                          170.72
     Transpiration                             467.84
     Potential ET                              761.49

     Final Balance                             0.0001


*DSSAT Cropping System Model Ver. 4.0.2.000               Aug 03, 2016; 15:30:24

*RUN   2        : UYMZ                    
 MODEL          : MZCER040 - Maize           
 EXPERIMENT     : UYMZ0130 MZ    late to create DSS                             
 TREATMENT  1   : UYMZ                    


     WATER BALANCE PARAMETERS
     ========================                  --mm--

     Soil H20 (start) on Year/day 1991/212     490.84
     Soil H20 (final) on Year/day 1992/011     490.64
     Effective Irrigation                        0.00
     Precipitation                             695.30
     Drainage                                  128.36
     Runoff                                      8.18
     Soil Evaporation                          138.72
     Transpiration                             420.24
     Potential ET                              629.66

     Final Balance                             0.0000


*DSSAT Cropping System Model Ver. 4.0.2.000               Aug 03, 2016; 15:30:24

*RUN   3        : UYMZ                    
 MODEL          : MZCER040 - Maize           
 EXPERIMENT     : UYMZ0130 MZ    late to create DSS                             
 TREATMENT  1   : UYMZ                    


     WATER BALANCE PARAMETERS
     ========================                  --mm--

     Soil H20 (start) on Year/day 1992/212     490.84
     Soil H20 (final) on Year/day 1993/026     511.19
     Effective Irrigation                        0.00
     Precipitation                             555.20
     Drainage                                    0.00
     Runoff                                     17.41
     Soil Evaporation                          201.96
     Transpiration                             315.48
     Potential ET                              796.50

     Final Balance                             0.0002

