*SOIL N BALANCE - CERES SOIL N&C ROUTINES

*DSSAT Cropping System Model Ver. 4.0.2.000               Aug 03, 2016; 15:30:24

*RUN   1        : UYMZ                    
 MODEL          : MZCER040 - Maize           
 EXPERIMENT     : UYMZ0130 MZ    late to create DSS                             
 TREATMENT  1   : UYMZ                    



                                         INITIAL Year/Doy      FINAL Year/Doy
                                                 1990/212            1991/023
SOIL N BALANCE                                  -----------kg N/ha-----------

   Soil Humus N                                  16646.04            16540.92
   Soil Litter N                                     0.00               14.01
   N in Surface Residue                              0.00                0.00
   Soil NO3                                         74.81                5.93
   Soil NH4                                         23.95                6.67
   Soil Urea                                         0.00                0.00

   Added to / Removed from Soil:
   N in Harvest Residues from Previous Crop          0.00
   N from Organic Applications                       0.00
   N from senesced plant matter                     19.44
   Fertilizer N                                     33.00
   Leached NO3                                                           6.08
   N Denitrified                                                         1.47
   N Uptake From Soil                                                  221.14
   Ammonia volatilization                                                1.03

   Total N balance                               16797.25            16797.25

================================================================================

*DSSAT Cropping System Model Ver. 4.0.2.000               Aug 03, 2016; 15:30:24

*RUN   2        : UYMZ                    
 MODEL          : MZCER040 - Maize           
 EXPERIMENT     : UYMZ0130 MZ    late to create DSS                             
 TREATMENT  1   : UYMZ                    



                                         INITIAL Year/Doy      FINAL Year/Doy
                                                 1991/212            1992/011
SOIL N BALANCE                                  -----------kg N/ha-----------

   Soil Humus N                                  16646.04            16548.52
   Soil Litter N                                     0.00               13.59
   N in Surface Residue                              0.00                0.00
   Soil NO3                                         74.81                6.03
   Soil NH4                                         23.95                7.75
   Soil Urea                                         0.00                0.00

   Added to / Removed from Soil:
   N in Harvest Residues from Previous Crop          0.00
   N from Organic Applications                       0.00
   N from senesced plant matter                     20.92
   Fertilizer N                                     33.00
   Leached NO3                                                           8.15
   N Denitrified                                                         0.36
   N Uptake From Soil                                                  213.18
   Ammonia volatilization                                                1.15

   Total N balance                               16798.73            16798.73

================================================================================

*DSSAT Cropping System Model Ver. 4.0.2.000               Aug 03, 2016; 15:30:24

*RUN   3        : UYMZ                    
 MODEL          : MZCER040 - Maize           
 EXPERIMENT     : UYMZ0130 MZ    late to create DSS                             
 TREATMENT  1   : UYMZ                    



                                         INITIAL Year/Doy      FINAL Year/Doy
                                                 1992/212            1993/026
SOIL N BALANCE                                  -----------kg N/ha-----------

   Soil Humus N                                  16646.04            16564.74
   Soil Litter N                                     0.00               13.46
   N in Surface Residue                              0.00                0.00
   Soil NO3                                         74.81                6.30
   Soil NH4                                         23.95                7.91
   Soil Urea                                         0.00                0.00

   Added to / Removed from Soil:
   N in Harvest Residues from Previous Crop          0.00
   N from Organic Applications                       0.00
   N from senesced plant matter                     18.74
   Fertilizer N                                     33.00
   Leached NO3                                                           0.00
   N Denitrified                                                         0.03
   N Uptake From Soil                                                  203.31
   Ammonia volatilization                                                0.81

   Total N balance                               16796.55            16796.55
