*SOIL WATER DAILY OUTPUT FILE

*DSSAT Cropping System Model Ver. 4.0.2.000               Aug 03, 2016; 15:30:24

*RUN   1        : UYMZ                    
 MODEL          : MZCER040 - Maize           
 EXPERIMENT     : UYMZ0130 MZ    late to create DSS                             
 TREATMENT  1   : UYMZ                    

@YEAR DOY   DAS  SWXD   ROFC   DRNC   PREC  IR#C  IRRC  DTWT   SW1D   SW2D   SW3D   SW4D   SW5D   SW6D   SW7D   SW8D   SW9D   SW10
 1990 212     0   116      0      0      0     0     0   125  0.347  0.394  0.394  0.335  0.375  0.419  0.408  0.395  0.000  0.000
 1990 213     1   114      0      0      0     0     0   125  0.322  0.393  0.394  0.335  0.376  0.418  0.408  0.395  0.000  0.000
 1990 214     2   113      0      0      0     0     0   125  0.303  0.391  0.394  0.336  0.376  0.418  0.408  0.395  0.000  0.000
 1990 215     3   112      0      0      0     0     0   125  0.288  0.390  0.394  0.336  0.377  0.417  0.408  0.395  0.000  0.000
 1990 216     4   111      0      0      0     0     0   125  0.274  0.389  0.394  0.337  0.377  0.417  0.408  0.395  0.000  0.000
 1990 217     5   111      0      0      0     0     0   125  0.262  0.387  0.394  0.337  0.378  0.416  0.408  0.395  0.000  0.000
 1990 218     6   110      0      0      0     0     0   125  0.251  0.386  0.394  0.338  0.378  0.416  0.408  0.395  0.000  0.000
 1990 219     7   109      0      0      0     0     0   125  0.241  0.385  0.394  0.338  0.378  0.415  0.408  0.395  0.000  0.000
 1990 220     8   109      0      0      0     0     0   125  0.232  0.384  0.394  0.339  0.378  0.415  0.408  0.395  0.000  0.000
 1990 221     9   110      0      0      2     0     0   125  0.262  0.383  0.394  0.339  0.379  0.415  0.408  0.395  0.000  0.000
 1990 222    10   109      0      0      2     0     0   125  0.251  0.382  0.393  0.340  0.379  0.414  0.408  0.395  0.000  0.000
 1990 223    11   109      0      0      2     0     0   125  0.241  0.381  0.393  0.340  0.379  0.414  0.407  0.395  0.000  0.000
 1990 224    12   108      0      0      2     0     0   125  0.232  0.381  0.393  0.340  0.380  0.414  0.407  0.395  0.000  0.000
 1990 225    13   108      0      0      2     0     0   125  0.223  0.380  0.393  0.341  0.380  0.413  0.407  0.395  0.000  0.000
 1990 226    14   108      0      0      2     0     0   125  0.221  0.379  0.393  0.341  0.380  0.413  0.407  0.395  0.000  0.000
 1990 227    15   135      0      0     30     0     0   125  0.568  0.485  0.393  0.342  0.380  0.413  0.407  0.395  0.000  0.000
 1990 228    16   132      0      0     30     0     0   125  0.465  0.500  0.396  0.342  0.380  0.412  0.407  0.395  0.000  0.000
 1990 229    17   129      0      0     30     0     0   125  0.412  0.489  0.399  0.343  0.381  0.412  0.407  0.395  0.000  0.000
 1990 230    18   126      0      0     30     0     0   125  0.372  0.476  0.401  0.343  0.381  0.412  0.407  0.395  0.000  0.000
 1990 231    19   125      0      0     30     0     0   125  0.360  0.465  0.403  0.344  0.381  0.411  0.407  0.395  0.000  0.000
 1990 232    20   123      0      0     30     0     0   125  0.353  0.456  0.405  0.344  0.381  0.411  0.407  0.395  0.000  0.000
 1990 233    21   123      0      0     30     0     0   125  0.346  0.448  0.406  0.345  0.381  0.411  0.407  0.395  0.000  0.000
 1990 234    22   122      0      0     30     0     0   125  0.340  0.442  0.407  0.345  0.381  0.411  0.407  0.395  0.000  0.000
 1990 235    23   121      0      0     30     0     0   125  0.334  0.436  0.407  0.346  0.381  0.410  0.406  0.395  0.000  0.000
 1990 236    24   120      0      0     30     0     0   125  0.329  0.431  0.408  0.346  0.382  0.410  0.406  0.395  0.000  0.000
 1990 237    25   120      0      0     30     0     0   125  0.324  0.427  0.408  0.347  0.382  0.410  0.406  0.395  0.000  0.000
 1990 238    26   119      0      0     30     0     0   125  0.319  0.423  0.409  0.347  0.382  0.410  0.406  0.395  0.000  0.000
 1990 239    27   160      0      0     72     0     0   125  0.546  0.564  0.509  0.348  0.382  0.409  0.406  0.395  0.000  0.000
 1990 240    28   158      0      0     74     0     0   125  0.502  0.554  0.519  0.351  0.382  0.409  0.406  0.395  0.000  0.000
 1990 241    29   155      0      0     74     0     0   125  0.472  0.529  0.522  0.355  0.382  0.409  0.406  0.394  0.000  0.000
 1990 242    30   152      0      0     74     0     0   125  0.440  0.515  0.518  0.358  0.382  0.409  0.406  0.394  0.000  0.000
 1990 243    31   151      0      0     74     0     0   125  0.449  0.503  0.513  0.362  0.383  0.408  0.406  0.394  0.000  0.000
 1990 244    32   152      0      0     77     0     0   125  0.491  0.497  0.509  0.364  0.383  0.408  0.406  0.394  0.000  0.000
 1990 245    33   151      0      0     77     0     0   125  0.464  0.497  0.505  0.367  0.383  0.408  0.406  0.394  0.000  0.000
 1990 246    34   150      0      0     77     0     0   125  0.454  0.493  0.502  0.369  0.383  0.408  0.405  0.394  0.000  0.000
 1990 247    35   149      0      0     77     0     0   125  0.448  0.489  0.499  0.371  0.384  0.408  0.405  0.394  0.000  0.000
 1990 248    36   148      0      0     77     0     0   125  0.443  0.485  0.496  0.373  0.384  0.407  0.405  0.394  0.000  0.000
 1990 249    37   148      0      0     78     0     0   125  0.459  0.481  0.493  0.374  0.384  0.407  0.405  0.394  0.000  0.000
 1990 250    38   155      0      0     86     0     0   125  0.556  0.505  0.491  0.376  0.385  0.407  0.405  0.394  0.000  0.000
 1990 251    39   172      0      0    104     0     0   125  0.520  0.576  0.557  0.387  0.385  0.407  0.405  0.394  0.000  0.000
 1990 252    40   167      0      0    104     0     0   125  0.450  0.553  0.547  0.405  0.385  0.407  0.405  0.394  0.000  0.000
 1990 253    41   165      0      0    104     0     0   125  0.454  0.526  0.540  0.413  0.386  0.406  0.405  0.394  0.000  0.000
 1990 254    42   187      0      0    128     0     0   125  0.541  0.564  0.562  0.464  0.404  0.406  0.405  0.394  0.000  0.000
 1990 255    43   183      0      0    128     0     0   125  0.477  0.554  0.554  0.452  0.430  0.406  0.405  0.394  0.000  0.000
 1990 256    44   181      0      0    128     0     0   125  0.475  0.530  0.548  0.447  0.431  0.413  0.404  0.394  0.000  0.000
 1990 257    45   179      0      0    128     0     0   125  0.461  0.520  0.541  0.443  0.431  0.416  0.405  0.394  0.000  0.000
 1990 258    46   177      0      0    128     0     0   125  0.461  0.514  0.536  0.441  0.431  0.417  0.405  0.394  0.000  0.000
 1990 259    47   176      0      0    128     0     0   125  0.462  0.509  0.532  0.440  0.431  0.417  0.405  0.394  0.000  0.000
 1990 260    48   175      0      0    128     0     0   125  0.463  0.505  0.529  0.439  0.431  0.417  0.405  0.394  0.000  0.000
 1990 261    49   205      0      0    160     0     0   125  0.545  0.565  0.565  0.469  0.460  0.429  0.413  0.397  0.000  0.000
 1990 262    50   195      0      7    160     0     0   125  0.487  0.555  0.556  0.456  0.449  0.425  0.411  0.397  0.000  0.000
 1990 263    51   189      0     12    160     0     0   125  0.500  0.532  0.549  0.449  0.442  0.422  0.411  0.397  0.000  0.000
 1990 264    52   186      0     14    160     0     0   125  0.493  0.526  0.542  0.445  0.437  0.421  0.411  0.397  0.000  0.000
 1990 265    53   182      0     15    160     0     0   125  0.465  0.521  0.538  0.442  0.435  0.421  0.411  0.397  0.000  0.000
 1990 266    54   180      0     15    160     0     0   125  0.463  0.513  0.533  0.440  0.433  0.421  0.411  0.397  0.000  0.000
 1990 267    55   179      0     15    160     0     0   125  0.462  0.507  0.529  0.439  0.433  0.421  0.411  0.397  0.000  0.000
 1990 268    56   177      0     15    160     0     0   125  0.460  0.502  0.525  0.438  0.433  0.421  0.411  0.397  0.000  0.000
 1990 269    57   176      0     15    160     0     0   125  0.459  0.498  0.522  0.436  0.433  0.421  0.411  0.397  0.000  0.000
 1990 270    58   175      0     15    160     0     0   125  0.457  0.494  0.519  0.435  0.433  0.421  0.411  0.397  0.000  0.000
 1990 271    59   174      0     15    160     0     0   125  0.456  0.492  0.516  0.434  0.433  0.421  0.411  0.397  0.000  0.000
 1990 272    60   173      0     15    160     0     0   125  0.453  0.489  0.513  0.433  0.433  0.421  0.411  0.397  0.000  0.000
 1990 273    61   172      0     15    160     0     0   125  0.451  0.485  0.510  0.432  0.432  0.421  0.411  0.397  0.000  0.000
 1990 274    62   171      0     15    160     0     0   125  0.447  0.481  0.506  0.431  0.432  0.421  0.411  0.397  0.000  0.000
 1990 275    63   169      0     15    160     0     0   125  0.443  0.477  0.502  0.429  0.432  0.421  0.411  0.397  0.000  0.000
 1990 276    64   167      0     15    160     0     0   125  0.438  0.472  0.497  0.428  0.431  0.421  0.411  0.397  0.000  0.000
 1990 277    65   166      0     15    160     0     0   125  0.434  0.468  0.493  0.427  0.431  0.421  0.411  0.397  0.000  0.000
 1990 278    66   165      0     15    160     0     0   125  0.431  0.465  0.491  0.426  0.430  0.421  0.411  0.397  0.000  0.000
 1990 279    67   187      0     15    184     0     0   125  0.543  0.565  0.535  0.424  0.430  0.421  0.411  0.397  0.000  0.000
 1990 280    68   190      0     15    189     0     0   125  0.544  0.564  0.550  0.432  0.429  0.421  0.411  0.397  0.000  0.000
 1990 281    69   221      1     20    228     0     0   125  0.533  0.565  0.564  0.470  0.460  0.447  0.439  0.432  0.000  0.000
 1990 282    70   202      1     34    228     0     0   125  0.469  0.547  0.550  0.456  0.449  0.436  0.427  0.417  0.000  0.000
 1990 283    71   190      1     42    228     0     0   125  0.468  0.521  0.539  0.447  0.442  0.429  0.419  0.408  0.000  0.000
 1990 284    72   184      1     46    228     0     0   125  0.469  0.512  0.532  0.442  0.437  0.425  0.415  0.403  0.000  0.000
 1990 285    73   215      1     48    266     0     0   125  0.522  0.558  0.557  0.467  0.460  0.447  0.438  0.413  0.000  0.000
 1990 286    74   198      1     60    266     0     0   125  0.477  0.535  0.542  0.454  0.448  0.436  0.426  0.406  0.000  0.000
 1990 287    75   187      1     66    266     0     0   125  0.476  0.516  0.530  0.445  0.441  0.429  0.419  0.401  0.000  0.000
 1990 288    76   179      1     70    266     0     0   125  0.448  0.503  0.520  0.438  0.437  0.425  0.415  0.399  0.000  0.000
 1990 289    77   173      1     71    266     0     0   125  0.438  0.490  0.511  0.433  0.433  0.423  0.412  0.397  0.000  0.000
 1990 290    78   170      1     72    266     0     0   125  0.430  0.482  0.505  0.429  0.432  0.421  0.410  0.397  0.000  0.000
 1990 291    79   166      1     72    266     0     0   125  0.423  0.472  0.496  0.423  0.431  0.421  0.410  0.397  0.000  0.000
 1990 292    80   170      1     72    274     0     0   125  0.550  0.472  0.490  0.419  0.429  0.421  0.410  0.397  0.000  0.000
 1990 293    81   171      1     72    279     0     0   125  0.507  0.523  0.485  0.414  0.427  0.421  0.410  0.397  0.000  0.000
 1990 294    82   167      1     72    279     0     0   125  0.480  0.507  0.482  0.408  0.424  0.421  0.410  0.397  0.000  0.000
 1990 295    83   161      1     72    279     0     0   125  0.454  0.490  0.475  0.401  0.420  0.421  0.410  0.397  0.000  0.000
 1990 296    84   156      1     72    279     0     0   125  0.433  0.477  0.470  0.395  0.416  0.421  0.410  0.397  0.000  0.000
 1990 297    85   152      1     72    279     0     0   125  0.417  0.465  0.464  0.389  0.412  0.421  0.410  0.397  0.000  0.000
 1990 298    86   149      1     72    279     0     0   125  0.409  0.456  0.459  0.386  0.409  0.420  0.410  0.397  0.000  0.000
 1990 299    87   143      1     72    279     0     0   125  0.389  0.444  0.450  0.379  0.403  0.420  0.410  0.397  0.000  0.000
 1990 300    88   139      1     72    279     0     0   125  0.374  0.433  0.442  0.376  0.397  0.420  0.410  0.397  0.000  0.000
 1990 301    89   137      1     72    279     0     0   125  0.372  0.428  0.439  0.374  0.394  0.419  0.410  0.397  0.000  0.000
 1990 302    90   139      1     72    285     0     0   125  0.476  0.422  0.433  0.372  0.390  0.418  0.410  0.397  0.000  0.000
 1990 303    91   154      1     72    306     0     0   125  0.531  0.565  0.434  0.367  0.381  0.417  0.410  0.397  0.000  0.000
 1990 304    92   148      1     72    306     0     0   125  0.518  0.528  0.437  0.363  0.376  0.416  0.410  0.397  0.000  0.000
 1990 305    93   145      1     72    308     0     0   125  0.540  0.510  0.432  0.361  0.372  0.414  0.410  0.397  0.000  0.000
 1990 306    94   141      1     72    308     0     0   125  0.503  0.502  0.429  0.359  0.369  0.412  0.410  0.397  0.000  0.000
 1990 307    95   138      1     72    308     0     0   125  0.493  0.491  0.428  0.358  0.368  0.410  0.410  0.397  0.000  0.000
 1990 308    96   167      1     72    341     0     0   125  0.553  0.554  0.556  0.368  0.366  0.407  0.410  0.397  0.000  0.000
 1990 309    97   162      1     72    341     0     0   125  0.532  0.539  0.536  0.379  0.364  0.404  0.410  0.397  0.000  0.000
 1990 310    98   158      1     72    341     0     0   125  0.528  0.530  0.526  0.379  0.364  0.401  0.409  0.397  0.000  0.000
 1990 311    99   155      1     72    343     0     0   125  0.545  0.525  0.516  0.377  0.363  0.396  0.409  0.397  0.000  0.000
 1990 312   100   154      1     72    343     0     0   125  0.526  0.527  0.513  0.378  0.363  0.395  0.409  0.397  0.000  0.000
 1990 313   101   150      1     72    343     0     0   125  0.517  0.518  0.507  0.377  0.362  0.392  0.409  0.397  0.000  0.000
 1990 314   102   146      1     72    343     0     0   125  0.517  0.508  0.498  0.375  0.361  0.388  0.408  0.397  0.000  0.000
 1990 315   103   141      1     72    343     0     0   125  0.499  0.499  0.488  0.372  0.360  0.384  0.408  0.397  0.000  0.000
 1990 316   104   139      1     72    343     0     0   125  0.493  0.492  0.483  0.371  0.359  0.382  0.407  0.397  0.000  0.000
 1990 317   105   132      1     72    343     0     0   125  0.477  0.478  0.469  0.367  0.357  0.378  0.407  0.397  0.000  0.000
 1990 318   106   130      1     72    345     0     0   125  0.508  0.469  0.461  0.365  0.356  0.376  0.406  0.397  0.000  0.000
 1990 319   107   128      1     72    345     0     0   125  0.490  0.470  0.457  0.364  0.356  0.375  0.406  0.397  0.000  0.000
 1990 320   108   178      1     72    398     0     0   125  0.553  0.562  0.560  0.468  0.401  0.373  0.405  0.397  0.000  0.000
 1990 321   109   172      1     72    398     0     0   125  0.537  0.545  0.544  0.446  0.419  0.371  0.404  0.397  0.000  0.000
 1990 322   110   165      1     72    398     0     0   125  0.529  0.533  0.536  0.434  0.415  0.370  0.401  0.397  0.000  0.000
 1990 323   111   159      1     72    398     0     0   125  0.519  0.524  0.527  0.425  0.406  0.369  0.397  0.397  0.000  0.000
 1990 324   112   156      1     72    398     0     0   125  0.516  0.519  0.522  0.421  0.403  0.368  0.395  0.396  0.000  0.000
 1990 325   113   150      1     72    400     0     0   125  0.532  0.511  0.513  0.412  0.394  0.367  0.390  0.396  0.000  0.000
 1990 326   114   144      1     72    400     0     0   125  0.506  0.509  0.505  0.404  0.387  0.366  0.384  0.396  0.000  0.000
 1990 327   115   137      1     72    400     0     0   125  0.494  0.500  0.497  0.396  0.382  0.364  0.377  0.395  0.000  0.000
 1990 328   116   132      1     72    400     0     0   125  0.483  0.490  0.489  0.389  0.378  0.363  0.372  0.395  0.000  0.000
 1990 329   117   127      1     72    400     0     0   125  0.474  0.482  0.481  0.383  0.375  0.362  0.369  0.394  0.000  0.000
 1990 330   118   143      1     72    421     0     0   125  0.557  0.559  0.522  0.378  0.372  0.361  0.366  0.393  0.000  0.000
 1990 331   119   137      1     72    421     0     0   125  0.535  0.537  0.519  0.376  0.368  0.359  0.363  0.393  0.000  0.000
 1990 332   120   130      1     72    421     0     0   125  0.519  0.521  0.507  0.373  0.365  0.358  0.360  0.392  0.000  0.000
 1990 333   121   124      1     72    421     0     0   125  0.500  0.505  0.494  0.370  0.362  0.356  0.357  0.391  0.000  0.000
 1990 334   122   121      1     72    421     0     0   125  0.493  0.496  0.487  0.369  0.361  0.355  0.356  0.390  0.000  0.000
 1990 335   123   115      1     72    421     0     0   125  0.478  0.484  0.476  0.367  0.359  0.353  0.354  0.388  0.000  0.000
 1990 336   124   114      1     72    421     0     0   125  0.475  0.479  0.472  0.366  0.358  0.353  0.354  0.387  0.000  0.000
 1990 337   125   117      1     72    431     0     0   125  0.550  0.519  0.460  0.363  0.356  0.351  0.352  0.385  0.000  0.000
 1990 338   126   111      1     72    431     0     0   125  0.510  0.509  0.452  0.361  0.354  0.350  0.350  0.381  0.000  0.000
 1990 339   127   107      1     72    431     0     0   125  0.496  0.496  0.446  0.359  0.353  0.349  0.349  0.379  0.000  0.000
 1990 340   128   145      1     72    473     0     0   125  0.555  0.556  0.562  0.441  0.355  0.348  0.348  0.377  0.000  0.000
 1990 341   129   200      3     72    536     0     0   125  0.551  0.558  0.558  0.458  0.461  0.446  0.391  0.374  0.000  0.000
 1990 342   130   192      3     74    536     0     0   125  0.535  0.546  0.546  0.445  0.444  0.430  0.403  0.394  0.000  0.000
 1990 343   131   189      3     75    536     0     0   125  0.538  0.540  0.543  0.441  0.437  0.424  0.407  0.394  0.000  0.000
 1990 344   132   222      6    108    606     0     0   125  0.566  0.566  0.566  0.468  0.459  0.446  0.438  0.431  0.000  0.000
 1990 345   133   202      6    122    606     0     0   125  0.543  0.554  0.554  0.449  0.445  0.432  0.419  0.414  0.000  0.000
 1990 346   134   193      6    128    606     0     0   125  0.537  0.547  0.547  0.442  0.437  0.425  0.412  0.405  0.000  0.000
 1990 347   135   186      6    131    606     0     0   125  0.533  0.540  0.542  0.436  0.432  0.419  0.407  0.400  0.000  0.000
 1990 348   136   180      6    131    606     0     0   125  0.527  0.533  0.536  0.432  0.427  0.415  0.402  0.396  0.000  0.000
 1990 349   137   173      6    131    606     0     0   125  0.518  0.527  0.530  0.426  0.421  0.409  0.396  0.394  0.000  0.000
 1990 350   138   167      6    131    606     0     0   125  0.511  0.520  0.523  0.421  0.415  0.404  0.391  0.392  0.000  0.000
 1990 351   139   163      6    131    606     0     0   125  0.509  0.515  0.519  0.419  0.413  0.401  0.389  0.391  0.000  0.000
 1990 352   140   193      6    131    642     0     0   125  0.559  0.562  0.562  0.465  0.455  0.415  0.384  0.389  0.000  0.000
 1990 353   141   187      6    131    642     0     0   125  0.538  0.548  0.548  0.449  0.440  0.413  0.403  0.387  0.000  0.000
 1990 354   142   180      6    131    642     0     0   125  0.527  0.538  0.540  0.439  0.431  0.413  0.398  0.385  0.000  0.000
 1990 355   143   174      6    131    642     0     0   125  0.524  0.531  0.535  0.434  0.426  0.409  0.393  0.383  0.000  0.000
 1990 356   144   200      6    131    670     0     0   125  0.568  0.565  0.565  0.468  0.459  0.424  0.399  0.382  0.000  0.000
 1990 357   145   192      6    134    670     0     0   125  0.548  0.552  0.552  0.452  0.444  0.418  0.404  0.394  0.000  0.000
 1990 358   146   204      6    134    684     0     0   125  0.561  0.566  0.566  0.468  0.458  0.425  0.409  0.395  0.000  0.000
 1990 359   147   191      6    141    684     0     0   125  0.541  0.553  0.553  0.452  0.444  0.416  0.402  0.392  0.000  0.000
 1990 360   148   183      6    142    684     0     0   125  0.525  0.544  0.544  0.441  0.434  0.412  0.401  0.392  0.000  0.000
 1990 361   149   176      6    142    684     0     0   125  0.522  0.532  0.538  0.434  0.428  0.407  0.395  0.390  0.000  0.000
 1990 362   150   169      6    142    684     0     0   125  0.515  0.526  0.531  0.429  0.422  0.402  0.390  0.388  0.000  0.000
 1990 363   151   163      6    142    684     0     0   125  0.507  0.519  0.525  0.424  0.417  0.397  0.386  0.385  0.000  0.000
 1990 364   152   157      6    142    684     0     0   125  0.498  0.512  0.518  0.419  0.412  0.392  0.381  0.383  0.000  0.000
 1990 365   153   150      6    142    684     0     0   125  0.486  0.504  0.511  0.413  0.406  0.387  0.376  0.380  0.000  0.000
 1991 001   154   144      6    142    684     0     0   125  0.478  0.496  0.504  0.407  0.400  0.384  0.373  0.378  0.000  0.000
 1991 002   155   138      6    142    684     0     0   125  0.468  0.489  0.497  0.402  0.395  0.381  0.370  0.375  0.000  0.000
 1991 003   156   132      6    142    684     0     0   125  0.456  0.481  0.490  0.396  0.389  0.378  0.368  0.372  0.000  0.000
 1991 004   157   125      6    142    684     0     0   125  0.445  0.471  0.481  0.389  0.383  0.375  0.365  0.369  0.000  0.000
 1991 005   158   118      6    142    684     0     0   125  0.427  0.461  0.472  0.382  0.378  0.372  0.362  0.366  0.000  0.000
 1991 006   159   111      6    142    684     0     0   125  0.410  0.449  0.461  0.376  0.374  0.369  0.359  0.363  0.000  0.000
 1991 007   160   104      6    142    684     0     0   125  0.394  0.436  0.450  0.371  0.370  0.366  0.356  0.360  0.000  0.000
 1991 008   161    97      6    142    684     0     0   125  0.377  0.423  0.436  0.366  0.366  0.363  0.354  0.357  0.000  0.000
 1991 009   162    94      6    142    684     0     0   125  0.375  0.419  0.431  0.365  0.365  0.362  0.353  0.356  0.000  0.000
 1991 010   163    94      6    142    690     0     0   125  0.477  0.411  0.420  0.361  0.361  0.359  0.350  0.353  0.000  0.000
 1991 011   164    88      6    142    690     0     0   125  0.436  0.412  0.413  0.357  0.358  0.356  0.347  0.351  0.000  0.000
 1991 012   165    82      6    142    690     0     0   125  0.394  0.407  0.407  0.353  0.354  0.353  0.344  0.348  0.000  0.000
 1991 013   166    78      6    142    690     0     0   125  0.377  0.402  0.403  0.350  0.352  0.351  0.342  0.346  0.000  0.000
 1991 014   167    71      6    142    690     0     0   125  0.350  0.395  0.397  0.346  0.347  0.347  0.338  0.342  0.000  0.000
 1991 015   168    64      6    142    690     0     0   125  0.324  0.388  0.390  0.341  0.343  0.343  0.334  0.338  0.000  0.000
 1991 016   169    59      6    142    690     0     0   125  0.306  0.383  0.386  0.338  0.340  0.340  0.332  0.336  0.000  0.000
 1991 017   170    53      6    142    690     0     0   125  0.289  0.378  0.381  0.334  0.336  0.336  0.328  0.332  0.000  0.000
 1991 018   171    47      6    142    690     0     0   125  0.274  0.372  0.376  0.329  0.332  0.332  0.324  0.329  0.000  0.000
 1991 019   172    42      6    142    690     0     0   125  0.260  0.368  0.371  0.325  0.328  0.328  0.320  0.325  0.000  0.000
 1991 020   173    37      6    142    690     0     0   125  0.248  0.364  0.368  0.322  0.324  0.325  0.317  0.322  0.000  0.000
 1991 021   174    89      6    142    744     0     0   125  0.555  0.566  0.483  0.320  0.323  0.324  0.316  0.321  0.000  0.000
 1991 022   175    90      6    142    752     0     0   125  0.513  0.543  0.518  0.322  0.322  0.323  0.315  0.320  0.000  0.000
 1991 023   176    84      6    142    752     0     0   125  0.492  0.515  0.503  0.325  0.322  0.323  0.315  0.320  0.000  0.000

*DSSAT Cropping System Model Ver. 4.0.2.000               Aug 03, 2016; 15:30:24

*RUN   2        : UYMZ                    
 MODEL          : MZCER040 - Maize           
 EXPERIMENT     : UYMZ0130 MZ    late to create DSS                             
 TREATMENT  1   : UYMZ                    

@YEAR DOY   DAS  SWXD   ROFC   DRNC   PREC  IR#C  IRRC  DTWT   SW1D   SW2D   SW3D   SW4D   SW5D   SW6D   SW7D   SW8D   SW9D   SW10
 1991 212     0   142      0      0     26     0     0   125  0.523  0.557  0.401  0.335  0.375  0.419  0.408  0.395  0.000  0.000
 1991 213     1   139      0      0     26     0     0   125  0.489  0.533  0.411  0.335  0.376  0.418  0.408  0.395  0.000  0.000
 1991 214     2   137      0      0     26     0     0   125  0.480  0.512  0.415  0.336  0.376  0.418  0.408  0.395  0.000  0.000
 1991 215     3   160      0      0     51     0     0   125  0.534  0.555  0.519  0.337  0.377  0.417  0.408  0.395  0.000  0.000
 1991 216     4   186      0      0     78     0     0   125  0.559  0.559  0.568  0.448  0.381  0.417  0.408  0.395  0.000  0.000
 1991 217     5   183      0      0     78     0     0   125  0.495  0.552  0.558  0.442  0.404  0.416  0.408  0.395  0.000  0.000
 1991 218     6   182      0      0     78     0     0   125  0.514  0.533  0.550  0.439  0.416  0.416  0.408  0.395  0.000  0.000
 1991 219     7   181      0      0     78     0     0   125  0.499  0.530  0.544  0.439  0.421  0.416  0.408  0.395  0.000  0.000
 1991 220     8   179      0      0     78     0     0   125  0.491  0.525  0.540  0.438  0.421  0.416  0.408  0.395  0.000  0.000
 1991 221     9   178      0      0     78     0     0   125  0.490  0.521  0.537  0.437  0.422  0.416  0.408  0.395  0.000  0.000
 1991 222    10   177      0      0     78     0     0   125  0.489  0.518  0.534  0.436  0.422  0.416  0.408  0.395  0.000  0.000
 1991 223    11   176      0      0     78     0     0   125  0.475  0.515  0.531  0.435  0.423  0.416  0.408  0.395  0.000  0.000
 1991 224    12   175      0      0     78     0     0   125  0.471  0.511  0.528  0.434  0.423  0.416  0.408  0.395  0.000  0.000
 1991 225    13   174      0      0     78     0     0   125  0.470  0.507  0.526  0.433  0.423  0.416  0.408  0.395  0.000  0.000
 1991 226    14   173      0      0     78     0     0   125  0.469  0.504  0.523  0.432  0.423  0.416  0.407  0.395  0.000  0.000
 1991 227    15   172      0      0     78     0     0   125  0.468  0.501  0.521  0.431  0.424  0.416  0.407  0.395  0.000  0.000
 1991 228    16   172      0      0     78     0     0   125  0.467  0.499  0.519  0.431  0.424  0.416  0.407  0.395  0.000  0.000
 1991 229    17   171      0      0     78     0     0   125  0.467  0.497  0.517  0.430  0.424  0.416  0.407  0.395  0.000  0.000
 1991 230    18   170      0      0     78     0     0   125  0.466  0.496  0.515  0.429  0.424  0.416  0.407  0.395  0.000  0.000
 1991 231    19   170      0      0     78     0     0   125  0.465  0.494  0.514  0.428  0.424  0.416  0.407  0.395  0.000  0.000
 1991 232    20   169      0      0     78     0     0   125  0.464  0.493  0.512  0.427  0.424  0.416  0.407  0.395  0.000  0.000
 1991 233    21   169      0      0     78     0     0   125  0.463  0.491  0.511  0.426  0.424  0.416  0.407  0.395  0.000  0.000
 1991 234    22   168      0      0     78     0     0   125  0.462  0.490  0.509  0.426  0.424  0.416  0.407  0.395  0.000  0.000
 1991 235    23   168      0      0     78     0     0   125  0.461  0.488  0.508  0.425  0.423  0.416  0.407  0.395  0.000  0.000
 1991 236    24   167      0      0     78     0     0   125  0.459  0.486  0.507  0.424  0.423  0.416  0.407  0.395  0.000  0.000
 1991 237    25   166      0      0     78     0     0   125  0.458  0.485  0.505  0.424  0.423  0.416  0.407  0.395  0.000  0.000
 1991 238    26   166      0      0     78     0     0   125  0.457  0.484  0.504  0.423  0.423  0.416  0.407  0.395  0.000  0.000
 1991 239    27   167      0      0     80     0     0   125  0.483  0.482  0.503  0.422  0.423  0.416  0.407  0.395  0.000  0.000
 1991 240    28   166      0      0     80     0     0   125  0.473  0.484  0.502  0.422  0.423  0.416  0.407  0.395  0.000  0.000
 1991 241    29   166      0      0     80     0     0   125  0.467  0.484  0.501  0.421  0.422  0.416  0.407  0.395  0.000  0.000
 1991 242    30   165      0      0     80     0     0   125  0.463  0.483  0.500  0.421  0.422  0.415  0.407  0.395  0.000  0.000
 1991 243    31   166      0      0     82     0     0   125  0.487  0.482  0.499  0.420  0.422  0.415  0.407  0.395  0.000  0.000
 1991 244    32   179      0      0     97     0     0   125  0.534  0.570  0.514  0.420  0.422  0.415  0.407  0.395  0.000  0.000
 1991 245    33   179      0      0     97     0     0   125  0.534  0.548  0.525  0.420  0.422  0.415  0.407  0.395  0.000  0.000
 1991 246    34   176      0      0     97     0     0   125  0.497  0.537  0.528  0.421  0.421  0.415  0.407  0.395  0.000  0.000
 1991 247    35   174      0      0     97     0     0   125  0.488  0.521  0.526  0.422  0.421  0.415  0.407  0.395  0.000  0.000
 1991 248    36   172      0      0     97     0     0   125  0.479  0.512  0.522  0.422  0.421  0.415  0.407  0.395  0.000  0.000
 1991 249    37   171      0      0     97     0     0   125  0.473  0.506  0.519  0.423  0.421  0.415  0.407  0.395  0.000  0.000
 1991 250    38   177      0      0    105     0     0   125  0.562  0.530  0.516  0.423  0.421  0.415  0.407  0.395  0.000  0.000
 1991 251    39   176      0      0    105     0     0   125  0.522  0.534  0.518  0.423  0.421  0.415  0.407  0.395  0.000  0.000
 1991 252    40   172      0      0    105     0     0   125  0.477  0.524  0.518  0.423  0.421  0.415  0.407  0.394  0.000  0.000
 1991 253    41   170      0      0    105     0     0   125  0.470  0.509  0.515  0.423  0.421  0.415  0.407  0.394  0.000  0.000
 1991 254    42   168      0      0    105     0     0   125  0.460  0.499  0.510  0.422  0.421  0.415  0.407  0.394  0.000  0.000
 1991 255    43   166      0      0    105     0     0   125  0.451  0.490  0.505  0.422  0.421  0.415  0.407  0.394  0.000  0.000
 1991 256    44   163      0      0    105     0     0   125  0.442  0.483  0.500  0.421  0.421  0.415  0.407  0.394  0.000  0.000
 1991 257    45   162      0      0    105     0     0   125  0.436  0.478  0.498  0.420  0.421  0.415  0.407  0.394  0.000  0.000
 1991 258    46   178      0      0    122     0     0   125  0.562  0.563  0.507  0.419  0.420  0.415  0.407  0.394  0.000  0.000
 1991 259    47   178      0      0    125     0     0   125  0.532  0.558  0.522  0.419  0.420  0.415  0.407  0.394  0.000  0.000
 1991 260    48   190      0      0    138     0     0   125  0.558  0.556  0.569  0.441  0.420  0.415  0.406  0.394  0.000  0.000
 1991 261    49   220      2     22    196     0     0   125  0.514  0.564  0.562  0.468  0.461  0.447  0.439  0.432  0.000  0.000
 1991 262    50   201      2     36    196     0     0   125  0.482  0.541  0.547  0.455  0.449  0.436  0.427  0.417  0.000  0.000
 1991 263    51   191      2     43    196     0     0   125  0.490  0.522  0.538  0.447  0.442  0.429  0.419  0.408  0.000  0.000
 1991 264    52   185      2     47    196     0     0   125  0.478  0.515  0.531  0.442  0.437  0.425  0.415  0.403  0.000  0.000
 1991 265    53   178      2     50    196     0     0   125  0.449  0.505  0.522  0.438  0.435  0.423  0.412  0.400  0.000  0.000
 1991 266    54   173      2     51    196     0     0   125  0.436  0.493  0.514  0.435  0.433  0.421  0.410  0.398  0.000  0.000
 1991 267    55   170      2     51    196     0     0   125  0.426  0.483  0.506  0.431  0.433  0.421  0.410  0.398  0.000  0.000
 1991 268    56   167      2     51    196     0     0   125  0.419  0.473  0.499  0.428  0.432  0.421  0.410  0.398  0.000  0.000
 1991 269    57   164      2     51    196     0     0   125  0.411  0.464  0.491  0.424  0.431  0.421  0.410  0.398  0.000  0.000
 1991 270    58   161      2     51    196     0     0   125  0.404  0.456  0.484  0.420  0.429  0.421  0.410  0.398  0.000  0.000
 1991 271    59   158      2     51    196     0     0   125  0.397  0.448  0.477  0.415  0.428  0.421  0.410  0.398  0.000  0.000
 1991 272    60   154      2     51    196     0     0   125  0.391  0.440  0.470  0.411  0.426  0.421  0.410  0.398  0.000  0.000
 1991 273    61   151      2     51    196     0     0   125  0.384  0.432  0.463  0.406  0.424  0.421  0.410  0.398  0.000  0.000
 1991 274    62   148      2     51    196     0     0   125  0.377  0.427  0.456  0.401  0.422  0.421  0.410  0.398  0.000  0.000
 1991 275    63   145      2     51    196     0     0   125  0.371  0.422  0.449  0.395  0.419  0.421  0.410  0.398  0.000  0.000
 1991 276    64   142      2     51    196     0     0   125  0.364  0.418  0.441  0.389  0.416  0.421  0.410  0.398  0.000  0.000
 1991 277    65   139      2     51    196     0     0   125  0.358  0.414  0.435  0.384  0.412  0.420  0.410  0.398  0.000  0.000
 1991 278    66   137      2     51    196     0     0   125  0.353  0.412  0.433  0.382  0.411  0.420  0.410  0.398  0.000  0.000
 1991 279    67   160      2     51    221     0     0   125  0.556  0.549  0.433  0.379  0.408  0.420  0.410  0.398  0.000  0.000
 1991 280    68   180      2     51    243     0     0   125  0.547  0.554  0.559  0.386  0.405  0.420  0.410  0.398  0.000  0.000
 1991 281    69   175      2     51    243     0     0   125  0.510  0.543  0.542  0.396  0.402  0.420  0.410  0.398  0.000  0.000
 1991 282    70   171      2     51    243     0     0   125  0.503  0.529  0.532  0.395  0.400  0.419  0.410  0.398  0.000  0.000
 1991 283    71   166      2     51    243     0     0   125  0.481  0.517  0.522  0.391  0.396  0.419  0.410  0.398  0.000  0.000
 1991 284    72   162      2     51    243     0     0   125  0.469  0.504  0.512  0.387  0.392  0.419  0.410  0.398  0.000  0.000
 1991 285    73   156      2     51    243     0     0   125  0.442  0.492  0.501  0.383  0.387  0.418  0.410  0.398  0.000  0.000
 1991 286    74   151      2     51    243     0     0   125  0.419  0.479  0.491  0.379  0.383  0.418  0.410  0.398  0.000  0.000
 1991 287    75   155      2     51    250     0     0   125  0.549  0.472  0.483  0.378  0.381  0.417  0.410  0.398  0.000  0.000
 1991 288    76   189      2     51    286     0     0   125  0.528  0.580  0.564  0.453  0.391  0.417  0.410  0.398  0.000  0.000
 1991 289    77   226      6     83    360     0     0   125  0.573  0.559  0.569  0.488  0.461  0.447  0.439  0.432  0.000  0.000
 1991 290    78   207      6     99    360     0     0   125  0.545  0.549  0.555  0.464  0.445  0.436  0.427  0.417  0.000  0.000
 1991 291    79   194      6    107    360     0     0   125  0.515  0.540  0.544  0.448  0.430  0.429  0.419  0.408  0.000  0.000
 1991 292    80   185      6    110    360     0     0   125  0.507  0.526  0.535  0.437  0.423  0.424  0.415  0.403  0.000  0.000
 1991 293    81   177      6    112    360     0     0   125  0.493  0.517  0.526  0.429  0.416  0.421  0.412  0.400  0.000  0.000
 1991 294    82   171      6    113    360     0     0   125  0.482  0.508  0.517  0.422  0.410  0.418  0.410  0.398  0.000  0.000
 1991 295    83   166      6    113    360     0     0   125  0.474  0.499  0.510  0.415  0.405  0.416  0.410  0.398  0.000  0.000
 1991 296    84   168      6    113    363     0     0   125  0.538  0.495  0.506  0.413  0.403  0.415  0.410  0.398  0.000  0.000
 1991 297    85   166      6    113    363     0     0   125  0.509  0.505  0.504  0.411  0.402  0.414  0.410  0.398  0.000  0.000
 1991 298    86   165      6    113    363     0     0   125  0.501  0.504  0.503  0.409  0.401  0.413  0.410  0.398  0.000  0.000
 1991 299    87   160      6    113    363     0     0   125  0.485  0.497  0.496  0.403  0.395  0.410  0.410  0.398  0.000  0.000
 1991 300    88   157      6    113    363     0     0   125  0.482  0.492  0.493  0.400  0.392  0.409  0.410  0.398  0.000  0.000
 1991 301    89   156      6    113    363     0     0   125  0.481  0.489  0.490  0.398  0.391  0.408  0.410  0.398  0.000  0.000
 1991 302    90   154      6    113    363     0     0   125  0.479  0.486  0.488  0.396  0.390  0.407  0.410  0.398  0.000  0.000
 1991 303    91   168      6    113    379     0     0   125  0.565  0.565  0.507  0.394  0.389  0.406  0.409  0.398  0.000  0.000
 1991 304    92   168      6    113    380     0     0   125  0.563  0.552  0.517  0.393  0.388  0.404  0.409  0.398  0.000  0.000
 1991 305    93   164      6    113    380     0     0   125  0.543  0.538  0.519  0.390  0.385  0.402  0.409  0.398  0.000  0.000
 1991 306    94   159      6    113    380     0     0   125  0.525  0.529  0.513  0.385  0.381  0.399  0.409  0.398  0.000  0.000
 1991 307    95   155      6    113    380     0     0   125  0.514  0.518  0.507  0.383  0.378  0.396  0.408  0.398  0.000  0.000
 1991 308    96   149      6    113    380     0     0   125  0.498  0.506  0.497  0.379  0.374  0.392  0.408  0.398  0.000  0.000
 1991 309    97   144      6    113    380     0     0   125  0.487  0.496  0.489  0.376  0.372  0.389  0.407  0.398  0.000  0.000
 1991 310    98   151      6    113    389     0     0   125  0.563  0.538  0.486  0.375  0.371  0.387  0.406  0.398  0.000  0.000
 1991 311    99   146      6    113    389     0     0   125  0.536  0.528  0.483  0.373  0.369  0.385  0.405  0.398  0.000  0.000
 1991 312   100   142      6    113    389     0     0   125  0.516  0.517  0.479  0.371  0.367  0.383  0.403  0.398  0.000  0.000
 1991 313   101   137      6    113    389     0     0   125  0.499  0.503  0.472  0.369  0.365  0.380  0.400  0.398  0.000  0.000
 1991 314   102   133      6    113    389     0     0   125  0.489  0.493  0.468  0.367  0.364  0.378  0.396  0.397  0.000  0.000
 1991 315   103   130      6    113    389     0     0   125  0.479  0.484  0.463  0.366  0.363  0.377  0.393  0.397  0.000  0.000
 1991 316   104   124      6    113    389     0     0   125  0.465  0.473  0.455  0.364  0.361  0.375  0.387  0.397  0.000  0.000
 1991 317   105   121      6    113    389     0     0   125  0.456  0.465  0.450  0.363  0.360  0.374  0.383  0.396  0.000  0.000
 1991 318   106   119      6    113    389     0     0   125  0.453  0.461  0.448  0.363  0.360  0.373  0.381  0.396  0.000  0.000
 1991 319   107   117      6    113    389     0     0   125  0.447  0.455  0.444  0.362  0.359  0.372  0.379  0.395  0.000  0.000
 1991 320   108   113      6    113    389     0     0   125  0.435  0.447  0.437  0.361  0.358  0.371  0.375  0.395  0.000  0.000
 1991 321   109   108      6    113    389     0     0   125  0.424  0.438  0.430  0.359  0.357  0.369  0.371  0.394  0.000  0.000
 1991 322   110   103      6    113    389     0     0   125  0.412  0.426  0.423  0.357  0.355  0.367  0.366  0.394  0.000  0.000
 1991 323   111    97      6    113    389     0     0   125  0.399  0.415  0.414  0.353  0.353  0.363  0.360  0.393  0.000  0.000
 1991 324   112    92      6    113    389     0     0   125  0.389  0.407  0.408  0.350  0.350  0.360  0.355  0.392  0.000  0.000
 1991 325   113    86      6    113    389     0     0   125  0.376  0.399  0.400  0.346  0.347  0.355  0.349  0.391  0.000  0.000
 1991 326   114    79      6    113    389     0     0   125  0.364  0.391  0.393  0.341  0.342  0.349  0.343  0.391  0.000  0.000
 1991 327   115    73      6    113    389     0     0   125  0.357  0.385  0.387  0.337  0.338  0.344  0.337  0.390  0.000  0.000
 1991 328   116    71      6    113    389     0     0   125  0.355  0.382  0.385  0.335  0.337  0.343  0.336  0.389  0.000  0.000
 1991 329   117   150      7    113    471     0     0   125  0.581  0.566  0.566  0.468  0.359  0.341  0.335  0.388  0.000  0.000
 1991 330   118   177      8    113    502     0     0   125  0.558  0.563  0.563  0.463  0.461  0.389  0.336  0.387  0.000  0.000
 1991 331   119   176      8    113    505     0     0   125  0.554  0.563  0.559  0.457  0.453  0.395  0.336  0.386  0.000  0.000
 1991 332   120   171      8    113    505     0     0   125  0.536  0.552  0.549  0.445  0.437  0.405  0.337  0.385  0.000  0.000
 1991 333   121   175      8    113    512     0     0   125  0.563  0.562  0.559  0.447  0.436  0.403  0.338  0.383  0.000  0.000
 1991 334   122   168      8    113    512     0     0   125  0.538  0.550  0.548  0.436  0.426  0.405  0.338  0.381  0.000  0.000
 1991 335   123   162      8    113    512     0     0   125  0.526  0.541  0.541  0.433  0.423  0.400  0.339  0.379  0.000  0.000
 1991 336   124   156      8    113    512     0     0   125  0.520  0.531  0.534  0.426  0.417  0.393  0.339  0.377  0.000  0.000
 1991 337   125   152      8    113    512     0     0   125  0.518  0.525  0.529  0.423  0.413  0.390  0.340  0.375  0.000  0.000
 1991 338   126   145      8    113    512     0     0   125  0.502  0.517  0.521  0.417  0.406  0.385  0.340  0.372  0.000  0.000
 1991 339   127   158      8    113    528     0     0   125  0.566  0.561  0.555  0.425  0.403  0.383  0.340  0.370  0.000  0.000
 1991 340   128   151      8    113    528     0     0   125  0.534  0.546  0.541  0.431  0.396  0.379  0.340  0.367  0.000  0.000
 1991 341   129   147      8    113    528     0     0   125  0.529  0.536  0.537  0.426  0.393  0.377  0.340  0.366  0.000  0.000
 1991 342   130   140      8    113    528     0     0   125  0.513  0.526  0.528  0.418  0.387  0.374  0.340  0.363  0.000  0.000
 1991 343   131   154      8    113    544     0     0   125  0.570  0.562  0.564  0.437  0.386  0.373  0.340  0.362  0.000  0.000
 1991 344   132   167      8    113    562     0     0   125  0.549  0.561  0.561  0.461  0.448  0.377  0.340  0.360  0.000  0.000
 1991 345   133   162      8    113    562     0     0   125  0.531  0.548  0.548  0.447  0.436  0.390  0.340  0.359  0.000  0.000
 1991 346   134   160      8    113    562     0     0   125  0.534  0.539  0.544  0.441  0.431  0.393  0.340  0.358  0.000  0.000
 1991 347   135   163      8    113    572     0     0   125  0.550  0.561  0.557  0.442  0.428  0.389  0.340  0.356  0.000  0.000
 1991 348   136   175      8    113    586     0     0   125  0.561  0.567  0.566  0.467  0.453  0.395  0.341  0.356  0.000  0.000
 1991 349   137   175      8    113    587     0     0   125  0.561  0.563  0.562  0.463  0.451  0.401  0.341  0.355  0.000  0.000
 1991 350   138   178      8    113    595     0     0   125  0.554  0.565  0.565  0.467  0.454  0.408  0.341  0.354  0.000  0.000
 1991 351   139   178      8    113    601     0     0   125  0.546  0.564  0.564  0.466  0.456  0.410  0.341  0.352  0.000  0.000
 1991 352   140   172      8    113    601     0     0   125  0.522  0.552  0.552  0.450  0.441  0.410  0.356  0.350  0.000  0.000
 1991 353   141   192      8    113    627     0     0   125  0.566  0.556  0.564  0.465  0.456  0.436  0.380  0.350  0.000  0.000
 1991 354   142   190      8    113    631     0     0   125  0.541  0.563  0.563  0.460  0.453  0.426  0.391  0.349  0.000  0.000
 1991 355   143   184      8    113    631     0     0   125  0.519  0.552  0.552  0.448  0.441  0.417  0.402  0.364  0.000  0.000
 1991 356   144   181      8    113    631     0     0   125  0.529  0.537  0.546  0.442  0.435  0.417  0.405  0.367  0.000  0.000
 1991 357   145   213      8    114    670     0     0   125  0.553  0.563  0.563  0.465  0.456  0.443  0.434  0.401  0.000  0.000
 1991 358   146   196      8    124    670     0     0   125  0.520  0.551  0.551  0.450  0.442  0.430  0.416  0.395  0.000  0.000
 1991 359   147   187      8    128    670     0     0   125  0.519  0.535  0.544  0.442  0.435  0.422  0.409  0.393  0.000  0.000
 1991 360   148   187      8    128    675     0     0   125  0.559  0.547  0.541  0.438  0.431  0.418  0.406  0.393  0.000  0.000
 1991 361   149   180      8    128    675     0     0   125  0.525  0.540  0.538  0.434  0.427  0.415  0.403  0.391  0.000  0.000
 1991 362   150   174      8    128    675     0     0   125  0.509  0.530  0.533  0.429  0.422  0.410  0.398  0.389  0.000  0.000
 1991 363   151   167      8    128    675     0     0   125  0.492  0.520  0.526  0.424  0.417  0.405  0.393  0.386  0.000  0.000
 1991 364   152   161      8    128    675     0     0   125  0.481  0.511  0.520  0.421  0.414  0.401  0.390  0.384  0.000  0.000
 1991 365   153   157      8    128    675     0     0   125  0.477  0.504  0.515  0.417  0.410  0.398  0.387  0.382  0.000  0.000
 1992 001   154   154      8    128    675     0     0   125  0.476  0.499  0.512  0.416  0.409  0.396  0.385  0.381  0.000  0.000
 1992 002   155   170      8    128    695     0     0   125  0.553  0.563  0.555  0.424  0.406  0.393  0.382  0.380  0.000  0.000
 1992 003   156   164      8    128    695     0     0   125  0.516  0.550  0.544  0.433  0.402  0.390  0.379  0.378  0.000  0.000
 1992 004   157   157      8    128    695     0     0   125  0.497  0.532  0.538  0.430  0.398  0.386  0.376  0.375  0.000  0.000
 1992 005   158   150      8    128    695     0     0   125  0.479  0.519  0.530  0.424  0.393  0.383  0.373  0.372  0.000  0.000
 1992 006   159   146      8    128    695     0     0   125  0.470  0.509  0.523  0.420  0.391  0.381  0.371  0.370  0.000  0.000
 1992 007   160   140      8    128    695     0     0   125  0.449  0.500  0.515  0.414  0.387  0.379  0.369  0.368  0.000  0.000
 1992 008   161   133      8    128    695     0     0   125  0.428  0.489  0.507  0.408  0.384  0.376  0.366  0.366  0.000  0.000
 1992 009   162   128      8    128    695     0     0   125  0.418  0.479  0.499  0.403  0.381  0.374  0.364  0.364  0.000  0.000
 1992 010   163   123      8    128    695     0     0   125  0.410  0.470  0.492  0.397  0.379  0.372  0.363  0.362  0.000  0.000
 1992 011   164   118      8    128    695     0     0   125  0.403  0.460  0.483  0.390  0.376  0.370  0.361  0.360  0.000  0.000

*DSSAT Cropping System Model Ver. 4.0.2.000               Aug 03, 2016; 15:30:24

*RUN   3        : UYMZ                    
 MODEL          : MZCER040 - Maize           
 EXPERIMENT     : UYMZ0130 MZ    late to create DSS                             
 TREATMENT  1   : UYMZ                    

@YEAR DOY   DAS  SWXD   ROFC   DRNC   PREC  IR#C  IRRC  DTWT   SW1D   SW2D   SW3D   SW4D   SW5D   SW6D   SW7D   SW8D   SW9D   SW10
 1992 212     0   121      0      0      4     0     0   125  0.447  0.394  0.394  0.335  0.375  0.419  0.408  0.395  0.000  0.000
 1992 213     1   119      0      0      4     0     0   125  0.419  0.397  0.394  0.335  0.376  0.418  0.408  0.395  0.000  0.000
 1992 214     2   118      0      0      4     0     0   125  0.385  0.397  0.394  0.336  0.376  0.418  0.408  0.395  0.000  0.000
 1992 215     3   115      0      0      4     0     0   125  0.337  0.397  0.394  0.336  0.377  0.417  0.408  0.395  0.000  0.000
 1992 216     4   114      0      0      4     0     0   125  0.311  0.395  0.394  0.337  0.377  0.417  0.408  0.395  0.000  0.000
 1992 217     5   113      0      0      4     0     0   125  0.292  0.394  0.394  0.337  0.378  0.416  0.408  0.395  0.000  0.000
 1992 218     6   112      0      0      4     0     0   125  0.276  0.392  0.394  0.338  0.378  0.416  0.408  0.395  0.000  0.000
 1992 219     7   111      0      0      4     0     0   125  0.263  0.391  0.394  0.338  0.378  0.415  0.408  0.395  0.000  0.000
 1992 220     8   110      0      0      4     0     0   125  0.251  0.389  0.394  0.339  0.378  0.415  0.408  0.395  0.000  0.000
 1992 221     9   111      0      0      6     0     0   125  0.270  0.388  0.394  0.339  0.379  0.415  0.408  0.395  0.000  0.000
 1992 222    10   110      0      0      6     0     0   125  0.258  0.387  0.394  0.340  0.379  0.414  0.408  0.395  0.000  0.000
 1992 223    11   110      0      0      6     0     0   125  0.246  0.386  0.394  0.340  0.379  0.414  0.407  0.395  0.000  0.000
 1992 224    12   109      0      0      6     0     0   125  0.236  0.385  0.394  0.341  0.380  0.414  0.407  0.395  0.000  0.000
 1992 225    13   108      0      0      6     0     0   125  0.226  0.384  0.394  0.341  0.380  0.413  0.407  0.395  0.000  0.000
 1992 226    14   108      0      0      6     0     0   125  0.222  0.383  0.394  0.341  0.380  0.413  0.407  0.395  0.000  0.000
 1992 227    15   108      0      0      6     0     0   125  0.222  0.382  0.394  0.342  0.380  0.413  0.407  0.395  0.000  0.000
 1992 228    16   108      0      0      6     0     0   125  0.221  0.381  0.394  0.342  0.380  0.412  0.407  0.395  0.000  0.000
 1992 229    17   108      0      0      6     0     0   125  0.221  0.380  0.394  0.343  0.381  0.412  0.407  0.395  0.000  0.000
 1992 230    18   108      0      0      6     0     0   125  0.221  0.380  0.394  0.343  0.381  0.412  0.407  0.395  0.000  0.000
 1992 231    19   108      0      0      6     0     0   125  0.221  0.379  0.394  0.344  0.381  0.411  0.407  0.395  0.000  0.000
 1992 232    20   107      0      0      6     0     0   125  0.221  0.378  0.394  0.344  0.381  0.411  0.407  0.395  0.000  0.000
 1992 233    21   107      0      0      6     0     0   125  0.221  0.378  0.393  0.344  0.381  0.411  0.407  0.395  0.000  0.000
 1992 234    22   107      0      0      6     0     0   125  0.221  0.377  0.393  0.345  0.381  0.411  0.407  0.395  0.000  0.000
 1992 235    23   109      0      0      7     0     0   125  0.251  0.376  0.393  0.345  0.381  0.410  0.406  0.395  0.000  0.000
 1992 236    24   113      0      0     13     0     0   125  0.339  0.376  0.393  0.346  0.382  0.410  0.406  0.395  0.000  0.000
 1992 237    25   112      0      0     13     0     0   125  0.321  0.375  0.393  0.346  0.382  0.410  0.406  0.395  0.000  0.000
 1992 238    26   111      0      0     13     0     0   125  0.306  0.375  0.393  0.346  0.382  0.410  0.406  0.395  0.000  0.000
 1992 239    27   110      0      0     13     0     0   125  0.293  0.374  0.393  0.347  0.382  0.409  0.406  0.395  0.000  0.000
 1992 240    28   110      0      0     13     0     0   125  0.281  0.374  0.393  0.347  0.382  0.409  0.406  0.395  0.000  0.000
 1992 241    29   109      0      0     13     0     0   125  0.270  0.373  0.393  0.348  0.382  0.409  0.406  0.394  0.000  0.000
 1992 242    30   108      0      0     13     0     0   125  0.259  0.373  0.393  0.348  0.382  0.409  0.406  0.394  0.000  0.000
 1992 243    31   108      0      0     13     0     0   125  0.249  0.373  0.393  0.348  0.382  0.408  0.406  0.394  0.000  0.000
 1992 244    32   112      0      0     19     0     0   125  0.342  0.372  0.393  0.349  0.382  0.408  0.406  0.394  0.000  0.000
 1992 245    33   112      0      0     19     0     0   125  0.325  0.372  0.393  0.349  0.382  0.408  0.406  0.394  0.000  0.000
 1992 246    34   111      0      0     19     0     0   125  0.311  0.371  0.393  0.349  0.382  0.408  0.405  0.394  0.000  0.000
 1992 247    35   110      0      0     19     0     0   125  0.298  0.371  0.393  0.349  0.383  0.408  0.405  0.394  0.000  0.000
 1992 248    36   109      0      0     19     0     0   125  0.286  0.371  0.393  0.350  0.383  0.407  0.405  0.394  0.000  0.000
 1992 249    37   109      0      0     19     0     0   125  0.275  0.370  0.393  0.350  0.383  0.407  0.405  0.394  0.000  0.000
 1992 250    38   108      0      0     19     0     0   125  0.265  0.370  0.393  0.350  0.383  0.407  0.405  0.394  0.000  0.000
 1992 251    39   108      0      0     19     0     0   125  0.255  0.369  0.393  0.351  0.383  0.407  0.405  0.394  0.000  0.000
 1992 252    40   107      0      0     19     0     0   125  0.246  0.369  0.392  0.351  0.383  0.407  0.405  0.394  0.000  0.000
 1992 253    41   107      0      0     19     0     0   125  0.237  0.369  0.392  0.351  0.383  0.406  0.405  0.394  0.000  0.000
 1992 254    42   106      0      0     19     0     0   125  0.229  0.368  0.392  0.351  0.383  0.406  0.405  0.394  0.000  0.000
 1992 255    43   110      0      0     23     0     0   125  0.301  0.368  0.392  0.352  0.383  0.406  0.405  0.394  0.000  0.000
 1992 256    44   110      0      0     25     0     0   125  0.308  0.367  0.392  0.352  0.383  0.406  0.404  0.394  0.000  0.000
 1992 257    45   109      0      0     25     0     0   125  0.296  0.367  0.392  0.352  0.383  0.406  0.404  0.394  0.000  0.000
 1992 258    46   108      0      0     25     0     0   125  0.285  0.367  0.392  0.352  0.383  0.405  0.404  0.394  0.000  0.000
 1992 259    47   108      0      0     25     0     0   125  0.274  0.366  0.392  0.353  0.383  0.405  0.404  0.394  0.000  0.000
 1992 260    48   107      0      0     25     0     0   125  0.265  0.366  0.392  0.353  0.383  0.405  0.404  0.394  0.000  0.000
 1992 261    49   107      0      0     25     0     0   125  0.255  0.366  0.392  0.353  0.383  0.405  0.404  0.393  0.000  0.000
 1992 262    50   109      0      0     29     0     0   125  0.301  0.365  0.392  0.353  0.383  0.405  0.404  0.393  0.000  0.000
 1992 263    51   108      0      0     29     0     0   125  0.290  0.365  0.392  0.354  0.383  0.405  0.404  0.393  0.000  0.000
 1992 264    52   108      0      0     29     0     0   125  0.279  0.365  0.391  0.354  0.383  0.404  0.404  0.393  0.000  0.000
 1992 265    53   107      0      0     29     0     0   125  0.269  0.364  0.391  0.354  0.383  0.404  0.404  0.393  0.000  0.000
 1992 266    54   118      0      0     41     0     0   125  0.492  0.364  0.391  0.354  0.383  0.404  0.404  0.393  0.000  0.000
 1992 267    55   124      0      0     50     0     0   125  0.490  0.430  0.391  0.354  0.383  0.404  0.403  0.393  0.000  0.000
 1992 268    56   123      0      0     50     0     0   125  0.452  0.434  0.392  0.354  0.383  0.404  0.403  0.393  0.000  0.000
 1992 269    57   136      0      0     68     0     0   125  0.488  0.544  0.394  0.355  0.383  0.404  0.403  0.393  0.000  0.000
 1992 270    58   133      0      0     68     0     0   125  0.464  0.516  0.399  0.355  0.383  0.404  0.403  0.393  0.000  0.000
 1992 271    59   130      0      0     68     0     0   125  0.431  0.498  0.403  0.355  0.383  0.403  0.403  0.393  0.000  0.000
 1992 272    60   128      0      0     68     0     0   125  0.422  0.482  0.405  0.355  0.383  0.403  0.403  0.393  0.000  0.000
 1992 273    61   127      0      0     68     0     0   125  0.414  0.469  0.407  0.356  0.383  0.403  0.403  0.393  0.000  0.000
 1992 274    62   125      0      0     68     0     0   125  0.405  0.458  0.409  0.356  0.383  0.403  0.403  0.393  0.000  0.000
 1992 275    63   124      0      0     68     0     0   125  0.397  0.450  0.410  0.356  0.383  0.403  0.403  0.393  0.000  0.000
 1992 276    64   124      0      0     70     0     0   125  0.412  0.442  0.410  0.357  0.383  0.403  0.403  0.392  0.000  0.000
 1992 277    65   123      0      0     70     0     0   125  0.400  0.435  0.411  0.357  0.383  0.403  0.402  0.392  0.000  0.000
 1992 278    66   122      0      0     70     0     0   125  0.389  0.427  0.410  0.357  0.383  0.402  0.402  0.392  0.000  0.000
 1992 279    67   121      0      0     70     0     0   125  0.379  0.423  0.410  0.357  0.383  0.402  0.402  0.392  0.000  0.000
 1992 280    68   128      0      0     82     0     0   125  0.506  0.440  0.408  0.358  0.383  0.402  0.402  0.392  0.000  0.000
 1992 281    69   125      0      0     82     0     0   125  0.430  0.442  0.408  0.358  0.383  0.402  0.402  0.392  0.000  0.000
 1992 282    70   122      0      0     82     0     0   125  0.400  0.433  0.408  0.358  0.383  0.402  0.402  0.392  0.000  0.000
 1992 283    71   120      0      0     82     0     0   125  0.380  0.423  0.407  0.358  0.383  0.402  0.402  0.392  0.000  0.000
 1992 284    72   118      0      0     82     0     0   125  0.365  0.413  0.404  0.358  0.383  0.402  0.402  0.392  0.000  0.000
 1992 285    73   116      0      0     82     0     0   125  0.351  0.406  0.401  0.358  0.383  0.401  0.402  0.392  0.000  0.000
 1992 286    74   114      0      0     82     0     0   125  0.340  0.397  0.397  0.357  0.383  0.401  0.402  0.392  0.000  0.000
 1992 287    75   111      0      0     82     0     0   125  0.329  0.388  0.391  0.356  0.383  0.401  0.402  0.392  0.000  0.000
 1992 288    76   108      0      0     82     0     0   125  0.319  0.380  0.383  0.354  0.383  0.401  0.401  0.392  0.000  0.000
 1992 289    77   107      0      0     82     0     0   125  0.309  0.376  0.381  0.353  0.383  0.401  0.401  0.392  0.000  0.000
 1992 290    78   135      0      0    112     0     0   125  0.547  0.543  0.380  0.352  0.383  0.401  0.401  0.391  0.000  0.000
 1992 291    79   130      0      0    112     0     0   125  0.483  0.518  0.386  0.351  0.382  0.401  0.401  0.391  0.000  0.000
 1992 292    80   125      0      0    112     0     0   125  0.439  0.487  0.388  0.351  0.382  0.401  0.401  0.391  0.000  0.000
 1992 293    81   123      0      0    112     0     0   125  0.429  0.471  0.390  0.351  0.382  0.401  0.401  0.391  0.000  0.000
 1992 294    82   133      0      0    126     0     0   125  0.523  0.521  0.392  0.350  0.382  0.400  0.401  0.391  0.000  0.000
 1992 295    83   127      0      0    126     0     0   125  0.460  0.498  0.394  0.350  0.381  0.400  0.401  0.391  0.000  0.000
 1992 296    84   122      0      0    126     0     0   125  0.419  0.471  0.395  0.349  0.380  0.400  0.401  0.391  0.000  0.000
 1992 297    85   117      0      0    126     0     0   125  0.376  0.442  0.394  0.348  0.379  0.400  0.401  0.391  0.000  0.000
 1992 298    86   111      0      0    126     0     0   125  0.347  0.411  0.392  0.347  0.377  0.400  0.401  0.391  0.000  0.000
 1992 299    87   109      0      0    126     0     0   125  0.336  0.402  0.389  0.345  0.376  0.400  0.400  0.391  0.000  0.000
 1992 300    88   104      0      0    126     0     0   125  0.318  0.386  0.382  0.340  0.370  0.400  0.400  0.391  0.000  0.000
 1992 301    89    98      0      0    126     0     0   125  0.302  0.374  0.373  0.334  0.362  0.399  0.400  0.391  0.000  0.000
 1992 302    90    98      0      0    128     0     0   125  0.324  0.371  0.371  0.332  0.360  0.399  0.400  0.391  0.000  0.000
 1992 303    91    94      0      0    129     0     0   125  0.318  0.364  0.365  0.326  0.353  0.398  0.400  0.390  0.000  0.000
 1992 304    92    90      0      0    129     0     0   125  0.302  0.359  0.361  0.322  0.347  0.397  0.400  0.390  0.000  0.000
 1992 305    93    86      0      0    129     0     0   125  0.287  0.356  0.357  0.317  0.342  0.395  0.400  0.390  0.000  0.000
 1992 306    94    83      0      0    129     0     0   125  0.273  0.352  0.354  0.314  0.337  0.393  0.400  0.390  0.000  0.000
 1992 307    95    80      0      0    129     0     0   125  0.261  0.350  0.352  0.311  0.333  0.391  0.400  0.390  0.000  0.000
 1992 308    96    94      0      0    146     0     0   125  0.546  0.367  0.349  0.309  0.330  0.388  0.399  0.390  0.000  0.000
 1992 309    97    89      0      0    146     0     0   125  0.447  0.376  0.349  0.308  0.329  0.387  0.399  0.390  0.000  0.000
 1992 310    98    85      0      0    146     0     0   125  0.376  0.376  0.348  0.307  0.328  0.386  0.399  0.390  0.000  0.000
 1992 311    99    80      0      0    146     0     0   125  0.339  0.369  0.346  0.305  0.324  0.382  0.399  0.390  0.000  0.000
 1992 312   100    76      0      0    146     0     0   125  0.313  0.363  0.345  0.303  0.321  0.379  0.399  0.390  0.000  0.000
 1992 313   101    72      0      0    146     0     0   125  0.280  0.358  0.343  0.302  0.318  0.375  0.398  0.390  0.000  0.000
 1992 314   102    68      0      0    146     0     0   125  0.244  0.354  0.342  0.300  0.315  0.372  0.398  0.390  0.000  0.000
 1992 315   103    66      0      0    146     0     0   125  0.234  0.352  0.341  0.299  0.314  0.370  0.398  0.389  0.000  0.000
 1992 316   104    67      0      0    150     0     0   125  0.300  0.349  0.339  0.298  0.312  0.367  0.397  0.389  0.000  0.000
 1992 317   105    63      0      0    150     0     0   125  0.265  0.347  0.338  0.297  0.310  0.364  0.397  0.389  0.000  0.000
 1992 318   106    60      0      0    150     0     0   125  0.232  0.345  0.337  0.295  0.308  0.361  0.397  0.389  0.000  0.000
 1992 319   107    58      0      0    150     0     0   125  0.220  0.343  0.336  0.294  0.306  0.359  0.397  0.389  0.000  0.000
 1992 320   108    83      0      0    177     0     0   125  0.568  0.437  0.335  0.293  0.305  0.356  0.396  0.389  0.000  0.000
 1992 321   109    77      0      0    177     0     0   125  0.467  0.430  0.336  0.293  0.304  0.356  0.396  0.389  0.000  0.000
 1992 322   110    72      0      0    177     0     0   125  0.398  0.410  0.336  0.293  0.304  0.355  0.396  0.389  0.000  0.000
 1992 323   111    66      0      0    177     0     0   125  0.354  0.384  0.336  0.292  0.303  0.353  0.395  0.389  0.000  0.000
 1992 324   112    62      0      0    177     0     0   125  0.327  0.372  0.335  0.291  0.302  0.350  0.395  0.388  0.000  0.000
 1992 325   113    59      0      0    177     0     0   125  0.305  0.365  0.334  0.290  0.301  0.347  0.395  0.388  0.000  0.000
 1992 326   114    57      0      0    177     0     0   125  0.298  0.361  0.334  0.290  0.300  0.345  0.394  0.388  0.000  0.000
 1992 327   115    54      0      0    177     0     0   125  0.277  0.356  0.333  0.290  0.298  0.343  0.394  0.388  0.000  0.000
 1992 328   116    52      0      0    177     0     0   125  0.258  0.353  0.332  0.290  0.297  0.340  0.394  0.388  0.000  0.000
 1992 329   117    50      0      0    177     0     0   125  0.234  0.350  0.331  0.290  0.296  0.339  0.393  0.388  0.000  0.000
 1992 330   118    48      0      0    177     0     0   125  0.220  0.347  0.331  0.290  0.295  0.337  0.391  0.388  0.000  0.000
 1992 331   119    46      0      0    177     0     0   125  0.220  0.345  0.331  0.290  0.294  0.335  0.387  0.387  0.000  0.000
 1992 332   120    44      0      0    177     0     0   125  0.220  0.343  0.331  0.290  0.294  0.334  0.382  0.387  0.000  0.000
 1992 333   121    42      0      0    177     0     0   125  0.220  0.341  0.331  0.290  0.293  0.332  0.375  0.387  0.000  0.000
 1992 334   122    40      0      0    177     0     0   125  0.220  0.339  0.331  0.290  0.292  0.330  0.366  0.386  0.000  0.000
 1992 335   123    72      0      0    211     0     0   125  0.568  0.504  0.331  0.290  0.292  0.329  0.358  0.386  0.000  0.000
 1992 336   124    65      0      0    211     0     0   125  0.472  0.487  0.334  0.290  0.292  0.329  0.357  0.385  0.000  0.000
 1992 337   125    59      0      0    211     0     0   125  0.417  0.454  0.336  0.290  0.292  0.328  0.355  0.385  0.000  0.000
 1992 338   126    53      0      0    211     0     0   125  0.383  0.418  0.337  0.290  0.292  0.328  0.353  0.384  0.000  0.000
 1992 339   127    46      0      0    211     0     0   125  0.349  0.382  0.337  0.290  0.292  0.327  0.348  0.383  0.000  0.000
 1992 340   128    43      0      0    211     0     0   125  0.331  0.371  0.336  0.290  0.292  0.325  0.343  0.383  0.000  0.000
 1992 341   129    69      0      0    241     0     0   125  0.542  0.542  0.338  0.290  0.292  0.324  0.338  0.382  0.000  0.000
 1992 342   130    64      0      0    241     0     0   125  0.493  0.510  0.342  0.290  0.292  0.324  0.338  0.381  0.000  0.000
 1992 343   131    58      0      0    241     0     0   125  0.448  0.474  0.345  0.290  0.292  0.323  0.338  0.381  0.000  0.000
 1992 344   132    54      0      0    241     0     0   125  0.409  0.445  0.346  0.290  0.292  0.323  0.338  0.380  0.000  0.000
 1992 345   133    49      0      0    241     0     0   125  0.383  0.409  0.347  0.290  0.292  0.323  0.337  0.380  0.000  0.000
 1992 346   134    43      0      0    241     0     0   125  0.353  0.382  0.346  0.290  0.292  0.322  0.335  0.379  0.000  0.000
 1992 347   135    39      0      0    241     0     0   125  0.323  0.372  0.344  0.290  0.292  0.320  0.332  0.376  0.000  0.000
 1992 348   136    35      0      0    241     0     0   125  0.292  0.365  0.343  0.290  0.292  0.319  0.329  0.370  0.000  0.000
 1992 349   137    31      0      0    241     0     0   125  0.270  0.360  0.341  0.290  0.292  0.318  0.327  0.362  0.000  0.000
 1992 350   138    27      0      0    241     0     0   125  0.251  0.356  0.340  0.290  0.292  0.317  0.325  0.354  0.000  0.000
 1992 351   139    24      0      0    241     0     0   125  0.235  0.352  0.338  0.290  0.292  0.315  0.323  0.346  0.000  0.000
 1992 352   140    20      0      0    241     0     0   125  0.220  0.349  0.337  0.290  0.292  0.314  0.320  0.339  0.000  0.000
 1992 353   141    18      0      0    241     0     0   125  0.220  0.347  0.336  0.290  0.292  0.313  0.318  0.334  0.000  0.000
 1992 354   142    17      0      0    241     0     0   125  0.220  0.345  0.335  0.290  0.292  0.312  0.317  0.329  0.000  0.000
 1992 355   143    15      0      0    241     0     0   125  0.220  0.343  0.334  0.290  0.292  0.310  0.315  0.325  0.000  0.000
 1992 356   144    13      0      0    241     0     0   125  0.220  0.341  0.333  0.290  0.292  0.309  0.313  0.322  0.000  0.000
 1992 357   145    18      0      0    247     0     0   125  0.340  0.339  0.332  0.290  0.292  0.308  0.312  0.319  0.000  0.000
 1992 358   146    16      0      0    247     0     0   125  0.322  0.338  0.331  0.290  0.292  0.307  0.310  0.317  0.000  0.000
 1992 359   147    44      0      0    278     0     0   125  0.525  0.524  0.331  0.290  0.292  0.306  0.309  0.315  0.000  0.000
 1992 360   148    38      0      0    278     0     0   125  0.467  0.496  0.334  0.290  0.292  0.306  0.309  0.314  0.000  0.000
 1992 361   149    31      0      0    278     0     0   125  0.404  0.458  0.336  0.290  0.292  0.306  0.309  0.314  0.000  0.000
 1992 362   150    24      0      0    278     0     0   125  0.356  0.412  0.337  0.290  0.292  0.306  0.308  0.313  0.000  0.000
 1992 363   151    18      0      0    278     0     0   125  0.326  0.375  0.337  0.290  0.292  0.305  0.307  0.311  0.000  0.000
 1992 364   152    16      0      0    278     0     0   125  0.313  0.369  0.336  0.290  0.292  0.304  0.306  0.309  0.000  0.000
 1992 365   153    19      0      0    283     0     0   125  0.400  0.364  0.335  0.290  0.292  0.303  0.305  0.307  0.000  0.000
 1992 366   154    74      0      0    340     0     0   125  0.541  0.566  0.523  0.290  0.292  0.303  0.305  0.306  0.000  0.000
 1993 001   155   144     17      0    429     0     0   125  0.567  0.559  0.563  0.473  0.460  0.338  0.305  0.306  0.000  0.000
 1993 002   156   148     17      0    435     0     0   125  0.552  0.565  0.565  0.468  0.457  0.353  0.305  0.306  0.000  0.000
 1993 003   157   154     17      0    443     0     0   125  0.552  0.567  0.565  0.468  0.457  0.374  0.305  0.306  0.000  0.000
 1993 004   158   167     17      0    460     0     0   125  0.538  0.565  0.565  0.467  0.456  0.420  0.308  0.306  0.000  0.000
 1993 005   159   161     17      0    460     0     0   125  0.494  0.551  0.552  0.452  0.443  0.415  0.340  0.306  0.000  0.000
 1993 006   160   154     17      0    460     0     0   125  0.470  0.526  0.541  0.441  0.432  0.414  0.347  0.306  0.000  0.000
 1993 007   161   151     17      0    460     0     0   125  0.484  0.516  0.535  0.438  0.430  0.412  0.347  0.306  0.000  0.000
 1993 008   162   172     17      0    486     0     0   125  0.548  0.561  0.561  0.465  0.454  0.418  0.347  0.306  0.000  0.000
 1993 009   163   165     17      0    486     0     0   125  0.491  0.548  0.547  0.449  0.439  0.415  0.373  0.306  0.000  0.000
 1993 010   164   158     17      0    486     0     0   125  0.476  0.524  0.537  0.439  0.430  0.415  0.374  0.306  0.000  0.000
 1993 011   165   150     17      0    486     0     0   125  0.443  0.511  0.528  0.433  0.423  0.411  0.373  0.307  0.000  0.000
 1993 012   166   144     17      0    486     0     0   125  0.431  0.498  0.519  0.426  0.417  0.406  0.371  0.307  0.000  0.000
 1993 013   167   139     17      0    486     0     0   125  0.424  0.488  0.512  0.421  0.413  0.403  0.370  0.308  0.000  0.000
 1993 014   168   135     17      0    486     0     0   125  0.419  0.481  0.506  0.417  0.410  0.400  0.369  0.308  0.000  0.000
 1993 015   169   180     17      0    538     0     0   125  0.533  0.559  0.560  0.464  0.455  0.426  0.380  0.308  0.000  0.000
 1993 016   170   176     17      0    538     0     0   125  0.509  0.545  0.550  0.450  0.442  0.421  0.407  0.312  0.000  0.000
 1993 017   171   170     17      0    538     0     0   125  0.492  0.529  0.541  0.441  0.434  0.418  0.405  0.323  0.000  0.000
 1993 018   172   165     17      0    538     0     0   125  0.487  0.519  0.534  0.436  0.430  0.416  0.402  0.324  0.000  0.000
 1993 019   173   159     17      0    538     0     0   125  0.457  0.511  0.527  0.431  0.426  0.413  0.399  0.324  0.000  0.000
 1993 020   174   153     17      0    538     0     0   125  0.444  0.500  0.519  0.426  0.421  0.409  0.395  0.325  0.000  0.000
 1993 021   175   147     17      0    538     0     0   125  0.434  0.490  0.512  0.420  0.416  0.405  0.391  0.326  0.000  0.000
 1993 022   176   141     17      0    538     0     0   125  0.427  0.481  0.504  0.415  0.410  0.401  0.388  0.326  0.000  0.000
 1993 023   177   136     17      0    538     0     0   125  0.420  0.474  0.497  0.410  0.406  0.398  0.385  0.326  0.000  0.000
 1993 024   178   131     17      0    538     0     0   125  0.414  0.466  0.490  0.405  0.401  0.394  0.381  0.327  0.000  0.000
 1993 025   179   144     17      0    555     0     0   125  0.548  0.548  0.491  0.402  0.398  0.392  0.380  0.327  0.000  0.000
 1993 026   180   138     17      0    555     0     0   125  0.496  0.532  0.494  0.398  0.394  0.389  0.378  0.327  0.000  0.000
