*SOIL-PLANT-ATMOSPHERE MODULE OUTPUT FILE

*DSSAT Cropping System Model Ver. 4.0.2.000               Aug 03, 2016; 15:30:22

*RUN   1        : UYMZ                    
 MODEL          : MZCER040 - Maize           
 EXPERIMENT     : UYMZ0129 MZ    late to create DSS                             
 TREATMENT  1   : UYMZ                    

@YEAR DOY   DAS   SRAA   TMXA   TMNA   EOAA   ETAA   EPAA   ESAA   EFAD   ETAC   EPAC   ESAC   EFAC
 1990 212     0  13.00  14.90  -1.90  2.385  2.370  0.000  2.370  0.000    2.4    0.0    2.4    0.0
 1990 213     1  13.00  17.50   3.80  2.632  1.374  0.000  1.374  0.000    3.7    0.0    3.7    0.0
 1990 214     2  14.40  19.90   3.70  3.014  1.078  0.000  1.078  0.000    4.8    0.0    4.8    0.0
 1990 215     3  14.80  21.50   5.00  3.206  3.206  0.000  3.206  0.000    8.0    0.0    8.0    0.0
 1990 216     4  14.80  21.90   5.70  3.244  3.064  0.000  3.064  0.000   11.1    0.0   11.1    0.0
 1990 217     5  14.50  25.90  10.20  3.479  3.240  0.000  3.240  0.000   14.3    0.0   14.3    0.0
 1990 218     6  15.60  23.40  13.90  3.741  1.447  0.000  1.447  0.000   15.8    0.0   15.8    0.0
 1990 219     7  15.20  25.90  14.40  3.773  1.111  0.000  1.111  0.000   16.9    0.0   16.9    0.0
 1990 220     8  12.90  25.00  12.80  3.127  0.937  0.000  0.937  0.000   17.8    0.0   17.8    0.0
 1990 221     9  14.70  20.50  10.30  3.295  1.600  0.000  1.600  0.000   19.4    0.0   19.4    0.0
 1990 222    10  15.10  22.30   8.90  3.423  0.870  0.000  0.870  0.000   20.3    0.0   20.3    0.0
 1990 223    11  15.40  28.00  11.90  3.842  0.785  0.006  0.779  0.000   21.1    0.0   21.1    0.0
 1990 224    12  15.30  28.40  12.10  3.840  0.725  0.014  0.711  0.000   21.8    0.0   21.8    0.0
 1990 225    13  14.50  28.00  12.80  3.640  0.681  0.022  0.659  0.000   22.5    0.0   22.4    0.0
 1990 226    14   5.20  25.80  14.90  1.293  0.628  0.011  0.617  0.000   23.1    0.1   23.1    0.0
 1990 227    15   7.50  15.80  10.50  1.577  1.577  0.018  1.559  0.000   24.7    0.1   24.6    0.0
 1990 228    16  14.80  18.90   8.50  3.189  3.189  0.040  3.149  0.000   27.9    0.1   27.8    0.0
 1990 229    17  16.80  21.40   7.70  3.716  2.767  0.051  2.716  0.000   30.6    0.2   30.5    0.0
 1990 230    18  16.20  20.80   6.00  3.498  2.422  0.067  2.355  0.000   33.1    0.2   32.8    0.0
 1990 231    19  12.80  20.80  10.40  2.873  1.441  0.069  1.372  0.000   34.5    0.3   34.2    0.0
 1990 232    20  17.30  21.00  10.30  3.885  1.197  0.120  1.077  0.000   35.7    0.4   35.3    0.0
 1990 233    21  14.80  20.90   6.70  3.211  1.039  0.123  0.916  0.000   36.7    0.5   36.2    0.0
 1990 234    22  13.00  18.40   8.30  2.763  0.934  0.123  0.811  0.000   37.7    0.7   37.0    0.0
 1990 235    23  17.00  15.60   4.40  3.341  0.904  0.168  0.736  0.000   38.6    0.8   37.8    0.0
 1990 236    24  11.20  18.10   3.70  2.267  0.796  0.117  0.678  0.000   39.4    0.9   38.4    0.0
 1990 237    25  13.00  24.60   9.60  3.030  0.791  0.159  0.632  0.000   40.2    1.1   39.1    0.0
 1990 238    26  16.40  25.50  11.70  3.926  0.845  0.250  0.595  0.000   41.0    1.4   39.7    0.0
 1990 239    27   6.80  17.60   5.50  1.385  1.385  0.108  1.277  0.000   42.4    1.5   40.9    0.0
 1990 240    28  18.80   9.70   2.00  3.264  3.264  0.268  2.996  0.000   45.7    1.7   43.9    0.0
 1990 241    29  17.80  14.60  -1.20  3.241  3.236  0.225  3.011  0.000   48.9    2.0   46.9    0.0
 1990 242    30  16.80  21.80   2.90  3.566  3.566  0.124  3.442  0.000   52.5    2.1   50.4    0.0
 1990 243    31   5.50  11.80   5.50  1.033  1.033  0.039  0.994  0.000   53.5    2.1   51.4    0.0
 1990 244    32  10.70  10.20   0.80  1.860  1.860  0.073  1.788  0.000   55.4    2.2   53.2    0.0
 1990 245    33  17.70  11.60  -2.30  3.048  1.620  0.087  1.532  0.000   57.0    2.3   54.7    0.0
 1990 246    34  19.80  16.80   2.50  3.911  1.183  0.036  1.148  0.000   58.2    2.3   55.8    0.0
 1990 247    35   5.60  16.40   7.10  1.150  0.972  0.014  0.959  0.000   59.1    2.3   56.8    0.0
 1990 248    36   6.00  18.60  13.40  1.344  0.864  0.023  0.840  0.000   60.0    2.4   57.6    0.0
 1990 249    37   5.70  15.40  13.40  1.221  0.837  0.037  0.800  0.000   60.8    2.4   58.4    0.0
 1990 250    38   5.80  15.90  12.80  1.242  0.962  0.051  0.910  0.000   61.8    2.4   59.4    0.0
 1990 251    39   5.80  14.30  10.30  1.185  1.185  0.055  1.131  0.000   63.0    2.5   60.5    0.0
 1990 252    40  19.70  23.50   7.80  4.460  4.460  0.225  4.235  0.000   67.4    2.7   64.7    0.0
 1990 253    41  15.20  27.50  11.60  3.725  2.584  0.239  2.346  0.000   70.0    3.0   67.1    0.0
 1990 254    42   9.60  23.10  10.70  2.201  2.201  0.213  1.988  0.000   72.2    3.2   69.1    0.0
 1990 255    43  17.10  13.80   5.20  3.264  3.264  0.381  2.883  0.000   75.5    3.6   71.9    0.0
 1990 256    44  18.80  11.80   2.70  3.386  2.645  0.405  2.240  0.000   78.1    4.0   74.2    0.0
 1990 257    45  20.40  14.20   0.50  3.736  2.967  0.407  2.561  0.000   81.1    4.4   76.7    0.0
 1990 258    46  21.40  18.40   3.40  4.320  1.745  0.345  1.401  0.000   82.9    4.7   78.1    0.0
 1990 259    47  17.80  21.60   7.90  3.914  1.416  0.326  1.090  0.000   84.3    5.0   79.2    0.0
 1990 260    48  10.60  17.70  10.60  2.260  1.153  0.228  0.924  0.000   85.4    5.3   80.2    0.0
 1990 261    49   9.30  17.90  11.00  1.991  1.991  0.230  1.760  0.000   87.4    5.5   81.9    0.0
 1990 262    50  13.80  17.70  10.00  2.913  2.913  0.383  2.529  0.000   90.3    5.9   84.4    0.0
 1990 263    51   6.40  17.90  13.30  1.392  1.392  0.204  1.188  0.000   91.7    6.1   85.6    0.0
 1990 264    52   6.40  20.50  15.80  1.464  1.193  0.264  0.929  0.000   92.9    6.3   86.6    0.0
 1990 265    53  20.10  18.60   9.20  4.221  3.954  0.838  3.117  0.000   96.9    7.2   89.7    0.0
 1990 266    54  18.60  13.50   5.40  3.489  2.195  0.752  1.443  0.000   99.1    7.9   91.1    0.0
 1990 267    55  22.30  15.00   3.20  4.182  2.030  0.920  1.109  0.000  101.1    8.9   92.2    0.0
 1990 268    56  23.20  16.30   3.10  4.439  1.871  0.935  0.936  0.000  103.0    9.8   93.2    0.0
 1990 269    57  23.40  20.50   5.10  4.855  1.808  0.983  0.825  0.000  104.8   10.8   94.0    0.0
 1990 270    58  21.30  24.00   8.90  4.775  1.803  1.057  0.746  0.000  106.6   11.8   94.7    0.0
 1990 271    59   6.80  21.70  12.20  1.515  1.070  0.384  0.686  0.000  107.6   12.2   95.4    0.0
 1990 272    60  19.30  22.00  11.30  4.269  1.816  1.177  0.639  0.000  109.5   13.4   96.1    0.0
 1990 273    61  19.30  25.20   8.90  4.336  1.933  1.333  0.600  0.000  111.4   14.7   96.7    0.0
 1990 274    62  21.70  28.10  12.90  5.194  2.315  1.747  0.568  0.000  113.7   16.5   97.2    0.0
 1990 275    63  24.20  24.00  11.90  5.432  2.601  2.062  0.540  0.000  116.3   18.5   97.8    0.0
 1990 276    64  21.80  26.60  13.30  5.085  2.600  2.084  0.516  0.000  118.9   20.6   98.3    0.0
 1990 277    65  17.90  30.10  17.50  4.465  2.487  1.992  0.495  0.000  121.4   22.6   98.8    0.0
 1990 278    66   7.10  19.10  17.30  1.539  1.249  0.773  0.476  0.000  122.6   23.4   99.3    0.0
 1990 279    67   9.40  22.70  17.20  2.119  2.119  1.127  0.992  0.000  124.8   24.5  100.2    0.0
 1990 280    68   7.20  21.60  17.70  1.599  1.599  0.908  0.691  0.000  126.4   25.4  100.9    0.0
 1990 281    69  11.50  20.40  13.70  2.424  2.424  1.442  0.982  0.000  128.8   26.9  101.9    0.0
 1990 282    70  23.40  22.30   9.50  4.860  4.860  2.994  1.866  0.000  133.6   29.9  103.8    0.0
 1990 283    71  21.00  22.30  11.30  4.417  4.417  2.806  1.611  0.000  138.1   32.7  105.4    0.0
 1990 284    72   9.00  22.10  14.50  1.934  1.934  1.268  0.666  0.000  140.0   33.9  106.1    0.0
 1990 285    73  25.50  19.40  11.30  5.131  5.131  3.480  1.651  0.000  145.1   37.4  107.7    0.0
 1990 286    74  26.10  21.60   7.60  5.222  5.222  3.619  1.602  0.000  150.3   41.0  109.3    0.0
 1990 287    75  24.80  22.60  11.50  5.190  5.190  3.663  1.527  0.000  155.5   44.7  110.8    0.0
 1990 288    76  25.50  20.10   8.90  5.036  4.966  3.640  1.326  0.000  160.5   48.3  112.2    0.0
 1990 289    77  26.40  20.50   5.00  5.052  5.052  3.707  1.345  0.000  165.6   52.0  113.5    0.0
 1990 290    78  15.20  21.40   8.90  3.047  3.047  2.254  0.793  0.000  168.6   54.3  114.3    0.0
 1990 291    79  24.50  24.40  14.30  5.330  5.330  4.005  1.325  0.000  173.9   58.3  115.6    0.0
 1990 292    80  17.30  24.00  15.30  3.766  3.766  2.897  0.869  0.000  177.7   61.2  116.5    0.0
 1990 293    81  16.40  23.70  15.70  3.560  3.560  2.799  0.762  0.000  181.3   64.0  117.3    0.0
 1990 294    82  22.20  24.00  14.20  4.767  4.767  3.822  0.945  0.000  186.0   67.8  118.2    0.0
 1990 295    83  27.10  24.80  13.10  5.813  5.813  4.740  1.072  0.000  191.8   72.6  119.3    0.0
 1990 296    84  21.10  25.60  13.10  4.562  4.562  3.778  0.784  0.000  196.4   76.3  120.1    0.0
 1990 297    85  20.80  22.20  13.80  4.330  4.330  3.638  0.692  0.000  200.7   80.0  120.8    0.0
 1990 298    86  14.30  24.70  11.80  3.016  3.016  2.564  0.452  0.000  203.7   82.5  121.2    0.0
 1990 299    87  25.10  27.10  16.30  5.640  5.640  4.848  0.792  0.000  209.4   87.4  122.0    0.0
 1990 300    88  19.60  28.30  17.00  4.482  4.451  3.906  0.546  0.000  213.8   91.3  122.5    0.0
 1990 301    89   8.80  23.80  18.50  1.929  1.929  1.703  0.225  0.000  215.8   93.0  122.8    0.0
 1990 302    90  12.20  27.40  20.40  2.826  2.826  2.510  0.316  0.000  218.6   95.5  123.1    0.0
 1990 303    91  26.40  28.80  17.90  6.087  6.087  5.481  0.607  0.000  224.7  101.0  123.7    0.0
 1990 304    92  26.50  23.20  15.80  5.620  5.620  5.137  0.482  0.000  230.3  106.1  124.2    0.0
 1990 305    93  23.10  24.10  16.70  4.983  4.983  4.591  0.392  0.000  235.3  110.7  124.6    0.0
 1990 306    94  20.10  27.00  14.30  4.400  4.400  4.077  0.323  0.000  239.7  114.8  124.9    0.0
 1990 307    95  11.80  28.10  20.80  2.747  2.747  2.557  0.190  0.000  242.4  117.3  125.1    0.0
 1990 308    96  21.00  22.20  10.80  4.208  4.208  3.924  0.283  0.000  246.6  121.3  125.4    0.0
 1990 309    97  28.80  19.00   6.40  5.314  5.314  4.964  0.351  0.000  252.0  126.2  125.7    0.0
 1990 310    98  17.40  21.20   9.80  3.411  3.411  3.186  0.225  0.000  255.4  129.4  125.9    0.0
 1990 311    99  23.40  23.50  13.50  4.874  4.874  4.556  0.318  0.000  260.2  134.0  126.3    0.0
 1990 312   100   8.40  18.40  11.30  1.607  1.607  1.505  0.103  0.000  261.8  135.5  126.4    0.0
 1990 313   101  16.20  22.30  15.10  3.368  3.368  3.154  0.214  0.000  265.2  138.6  126.6    0.0
 1990 314   102  21.20  24.80  13.70  4.492  4.492  4.212  0.281  0.000  269.7  142.8  126.9    0.0
 1990 315   103  23.60  27.00  15.30  5.199  5.199  4.879  0.319  0.000  274.9  147.7  127.2    0.0
 1990 316   104  12.20  24.60  14.20  2.589  2.589  2.433  0.156  0.000  277.5  150.2  127.3    0.0
 1990 317   105  26.70  34.90  18.50  6.570  6.570  6.179  0.392  0.000  284.1  156.3  127.7    0.0
 1990 318   106  15.90  33.00  20.80  3.897  3.897  3.672  0.225  0.000  288.0  160.0  127.9    0.0
 1990 319   107   8.60  23.20  17.30  1.839  1.839  1.735  0.104  0.000  289.8  161.7  128.1    0.0
 1990 320   108  17.60  22.10  12.20  3.559  3.559  3.357  0.202  0.000  293.4  165.1  128.3    0.0
 1990 321   109  28.70  26.10   9.30  5.957  5.957  5.618  0.339  0.000  299.3  170.7  128.6    0.0
 1990 322   110  27.80  29.70  16.50  6.371  6.371  6.008  0.363  0.000  305.7  176.7  129.0    0.0
 1990 323   111  27.10  33.40  21.80  6.717  6.717  6.323  0.394  0.000  312.4  183.0  129.4    0.0
 1990 324   112  12.20  28.00  21.10  2.840  2.840  2.669  0.171  0.000  315.2  185.7  129.5    0.0
 1990 325   113  30.70  28.70  18.80  7.082  7.082  6.646  0.436  0.000  322.3  192.4  130.0    0.0
 1990 326   114  28.10  28.00  15.30  6.264  6.264  5.870  0.393  0.000  328.6  198.2  130.4    0.0
 1990 327   115  29.80  28.20  14.20  6.603  6.603  6.181  0.422  0.000  335.2  204.4  130.8    0.0
 1990 328   116  25.60  28.70  16.80  5.820  5.820  5.442  0.378  0.000  341.0  209.9  131.2    0.0
 1990 329   117  20.10  29.20  18.20  4.645  4.645  4.338  0.306  0.000  345.7  214.2  131.5    0.0
 1990 330   118  22.90  24.90  15.80  4.944  4.944  4.614  0.330  0.000  350.6  218.8  131.8    0.0
 1990 331   119  30.40  21.20  10.00  5.971  5.971  5.567  0.404  0.000  356.6  224.4  132.2    0.0
 1990 332   120  30.90  24.60   9.00  6.288  6.288  5.857  0.430  0.000  362.9  230.2  132.6    0.0
 1990 333   121  31.00  27.10  12.20  6.679  6.679  6.217  0.462  0.000  369.5  236.5  133.1    0.0
 1990 334   122  14.90  26.80  14.90  3.268  3.268  3.040  0.229  0.000  372.8  239.5  133.3    0.0
 1990 335   123  23.40  26.40  14.70  5.101  5.101  4.741  0.360  0.000  377.9  244.2  133.7    0.0
 1990 336   124   9.00  23.50  14.10  1.885  1.885  1.751  0.135  0.000  379.8  246.0  133.8    0.0
 1990 337   125  30.10  22.90  11.40  6.121  6.121  5.676  0.444  0.000  385.9  251.7  134.3    0.0
 1990 338   126  28.70  27.90  10.60  6.168  6.168  5.712  0.456  0.000  392.1  257.4  134.7    0.0
 1990 339   127  16.80  32.30  20.30  4.082  4.082  3.775  0.307  0.000  396.2  261.1  135.0    0.0
 1990 340   128  16.80  25.60  17.50  3.711  3.711  3.428  0.283  0.000  399.9  264.6  135.3    0.0
 1990 341   129  26.90  25.20  16.00  5.846  5.846  5.394  0.452  0.000  405.7  270.0  135.7    0.0
 1990 342   130  30.30  25.00  12.00  6.362  6.362  5.862  0.500  0.000  412.1  275.8  136.2    0.0
 1990 343   131   9.00  19.70  14.20  1.801  1.801  1.657  0.144  0.000  413.9  277.5  136.4    0.0
 1990 344   132   9.10  19.50  15.90  1.843  1.843  1.692  0.151  0.000  415.7  279.2  136.5    0.0
 1990 345   133  24.70  25.00  14.70  5.304  5.304  4.860  0.444  0.000  421.0  284.0  137.0    0.0
 1990 346   134  14.70  22.00  10.50  2.937  2.937  2.685  0.252  0.000  424.0  286.7  137.2    0.0
 1990 347   135  19.00  24.00  14.30  4.021  4.021  3.666  0.354  0.000  428.0  290.4  137.6    0.0
 1990 348   136  29.20  21.90  10.30  5.821  5.821  5.294  0.528  0.000  433.8  295.7  138.1    0.0
 1990 349   137  31.80  27.30  10.90  6.819  6.819  6.182  0.637  0.000  440.6  301.9  138.8    0.0
 1990 350   138  28.70  30.20  13.70  6.511  6.511  5.884  0.627  0.000  447.1  307.8  139.4    0.0
 1990 351   139  14.40  30.10  18.00  3.371  3.371  3.036  0.335  0.000  450.5  310.8  139.7    0.0
 1990 352   140  27.40  25.60  17.30  6.065  6.065  5.442  0.623  0.000  456.6  316.2  140.3    0.0
 1990 353   141  31.40  25.60  14.40  6.797  6.797  6.072  0.725  0.000  463.4  322.3  141.1    0.0
 1990 354   142  31.60  27.10  14.00  6.945  6.945  6.175  0.770  0.000  470.3  328.5  141.8    0.0
 1990 355   143  25.60  29.80  15.90  5.894  5.894  5.213  0.681  0.000  476.2  333.7  142.5    0.0
 1990 356   144  10.00  25.70  19.00  2.251  2.251  1.980  0.271  0.000  478.5  335.7  142.8    0.0
 1990 357   145  19.50  28.40  17.80  4.489  4.489  3.923  0.566  0.000  482.9  339.6  143.4    0.0
 1990 358   146  13.10  24.40  15.50  2.830  2.830  2.456  0.374  0.000  485.8  342.0  143.7    0.0
 1990 359   147  29.40  25.70  12.70  6.313  6.313  5.439  0.875  0.000  492.1  347.5  144.6    0.0
 1990 360   148  31.40  31.30  15.30  7.350  7.350  6.281  1.069  0.000  499.4  353.8  145.7    0.0
 1990 361   149  31.40  31.50  18.00  7.521  7.521  6.373  1.148  0.000  507.0  360.1  146.8    0.0
 1990 362   150  31.40  21.00  13.30  6.412  6.412  5.381  1.030  0.000  513.4  365.5  147.9    0.0
 1990 363   151  29.60  23.30   9.40  6.029  6.029  5.006  1.022  0.000  519.4  370.5  148.9    0.0
 1990 364   152  30.80  27.20  11.40  6.703  6.416  5.505  0.912  0.000  525.8  376.0  149.8    0.0
 1990 365   153  31.50  29.40  14.80  7.234  7.234  5.872  1.362  0.000  533.1  381.9  151.2    0.0
 1991 001   154  24.30  31.60  17.10  5.827  5.827  4.672  1.155  0.000  538.9  386.6  152.3    0.0
 1991 002   155  24.10  29.20  20.30  5.771  5.771  4.566  1.205  0.000  544.7  391.1  153.5    0.0
 1991 003   156  26.70  29.10  17.40  6.261  6.162  4.883  1.278  0.000  550.8  396.0  154.8    0.0
 1991 004   157  31.30  28.60  13.40  7.090  6.477  5.446  1.030  0.000  557.3  401.5  155.8    0.0
 1991 005   158  31.30  28.20  13.80  7.092  6.247  5.360  0.887  0.000  563.5  406.8  156.7    0.0
 1991 006   159  31.30  30.20  13.00  7.227  6.159  5.368  0.791  0.000  569.7  412.2  157.5    0.0
 1991 007   160  29.60  32.40  17.10  7.236  5.998  5.277  0.721  0.000  575.7  417.5  158.2    0.0
 1991 008   161  29.90  34.30  19.30  7.592  7.592  5.430  2.162  0.000  583.3  422.9  160.4    0.0
 1991 009   162   9.90  24.30  21.30  2.291  2.291  1.605  0.686  0.000  585.6  424.5  161.1    0.0
 1991 010   163  27.90  30.80  19.20  6.850  6.850  4.696  2.154  0.000  592.4  429.2  163.2    0.0
 1991 011   164  25.10  27.80  15.90  5.827  5.827  3.906  1.921  0.000  598.3  433.1  165.1    0.0
 1991 012   165  29.50  26.40  13.00  6.585  6.487  4.415  2.073  0.000  604.7  437.5  167.2    0.0
 1991 013   166  19.30  27.00  12.90  4.336  4.336  2.907  1.429  0.000  609.1  440.4  168.6    0.0
 1991 014   167  30.50  28.00  14.60  7.026  6.973  4.710  2.263  0.000  616.0  445.1  170.9    0.0

*DSSAT Cropping System Model Ver. 4.0.2.000               Aug 03, 2016; 15:30:22

*RUN   2        : UYMZ                    
 MODEL          : MZCER040 - Maize           
 EXPERIMENT     : UYMZ0129 MZ    late to create DSS                             
 TREATMENT  1   : UYMZ                    

@YEAR DOY   DAS   SRAA   TMXA   TMNA   EOAA   ETAA   EPAA   ESAA   EFAD   ETAC   EPAC   ESAC   EFAC
 1991 212     0  11.30  15.40   5.60  2.257  2.257  0.000  2.257  0.000    2.3    0.0    2.3    0.0
 1991 213     1  15.40   6.50   0.50  2.516  2.516  0.000  2.516  0.000    4.8    0.0    4.8    0.0
 1991 214     2  13.80   9.60  -1.80  2.318  1.882  0.000  1.882  0.000    6.7    0.0    6.7    0.0
 1991 215     3  14.00  11.90  -0.90  2.472  2.472  0.000  2.472  0.000    9.1    0.0    9.1    0.0
 1991 216     4   4.40  10.90   4.00  0.806  0.806  0.000  0.806  0.000    9.9    0.0    9.9    0.0
 1991 217     5  14.60  15.00   4.30  2.862  2.862  0.000  2.862  0.000   12.8    0.0   12.8    0.0
 1991 218     6   4.50   9.70   1.90  0.790  0.790  0.000  0.790  0.000   13.6    0.0   13.6    0.0
 1991 219     7   7.50  15.40   2.30  1.449  1.449  0.000  1.449  0.000   15.0    0.0   15.0    0.0
 1991 220     8  11.00  16.70   7.50  2.281  1.406  0.000  1.406  0.000   16.4    0.0   16.4    0.0
 1991 221     9   5.10  15.70  10.40  1.072  1.072  0.000  1.072  0.000   17.5    0.0   17.5    0.0
 1991 222    10   4.80  11.90   8.10  0.933  0.933  0.000  0.933  0.000   18.4    0.0   18.4    0.0
 1991 223    11   7.80  13.10   5.60  1.505  1.505  0.000  1.505  0.000   19.9    0.0   19.9    0.0
 1991 224    12  12.50  15.80   1.50  2.411  1.136  0.000  1.136  0.000   21.1    0.0   21.1    0.0
 1991 225    13  11.60  18.50   7.30  2.463  0.952  0.000  0.952  0.000   22.0    0.0   22.0    0.0
 1991 226    14  15.20  25.70  10.80  3.656  0.836  0.000  0.836  0.000   22.9    0.0   22.9    0.0
 1991 227    15  10.70  25.30  15.40  2.658  0.754  0.000  0.754  0.000   23.6    0.0   23.6    0.0
 1991 228    16  12.60  27.30  14.40  3.180  0.692  0.000  0.692  0.000   24.3    0.0   24.3    0.0
 1991 229    17  16.10  24.70  11.80  3.855  0.653  0.009  0.644  0.000   25.0    0.0   25.0    0.0
 1991 230    18   9.30  23.80  13.60  2.235  0.613  0.009  0.604  0.000   25.6    0.0   25.6    0.0
 1991 231    19  12.70  26.00  10.90  3.066  0.590  0.019  0.571  0.000   26.2    0.0   26.1    0.0
 1991 232    20   9.30  26.00  11.80  2.261  0.562  0.019  0.543  0.000   26.7    0.1   26.7    0.0
 1991 233    21  14.70  26.00  11.60  3.566  0.557  0.038  0.518  0.000   27.3    0.1   27.2    0.0
 1991 234    22  13.80  26.40  14.60  3.445  0.543  0.046  0.497  0.000   27.8    0.1   27.7    0.0
 1991 235    23  16.70  21.60  14.50  3.922  0.570  0.092  0.478  0.000   28.4    0.2   28.2    0.0
 1991 236    24  16.20  20.70   9.90  3.610  0.578  0.117  0.461  0.000   29.0    0.3   28.6    0.0
 1991 237    25  14.10  24.70  11.10  3.338  0.577  0.131  0.446  0.000   29.6    0.5   29.1    0.0
 1991 238    26   5.40  16.90  11.90  1.161  0.490  0.058  0.432  0.000   30.1    0.5   29.5    0.0
 1991 239    27   5.30  16.20  10.20  1.110  1.110  0.062  1.048  0.000   31.2    0.6   30.6    0.0
 1991 240    28  10.80  21.40  12.10  2.465  0.600  0.152  0.448  0.000   31.8    0.8   31.0    0.0
 1991 241    29  10.70  22.80  14.40  2.530  0.616  0.182  0.434  0.000   32.4    0.9   31.4    0.0
 1991 242    30   7.30  24.20  16.00  1.776  0.573  0.151  0.422  0.000   33.0    1.1   31.9    0.0
 1991 243    31   5.50  16.80  11.00  1.162  1.162  0.117  1.045  0.000   34.1    1.2   32.9    0.0
 1991 244    32   9.40  16.10   8.10  1.912  1.716  0.208  1.509  0.000   35.8    1.4   34.4    0.0
 1991 245    33   5.50  17.90  11.20  1.180  0.764  0.135  0.629  0.000   36.6    1.5   35.0    0.0
 1991 246    34  10.50  22.80  14.00  2.456  2.456  0.304  2.151  0.000   39.1    1.8   37.2    0.0
 1991 247    35  18.10  25.80  13.20  4.352  2.301  0.609  1.692  0.000   41.4    2.5   38.9    0.0
 1991 248    36  18.40  27.20  13.90  4.510  1.930  0.722  1.208  0.000   43.3    3.2   40.1    0.0
 1991 249    37   5.70  22.50  16.00  1.338  1.238  0.245  0.993  0.000   44.5    3.4   41.1    0.0
 1991 250    38   5.80  17.20  12.80  1.234  1.214  0.252  0.963  0.000   45.7    3.7   42.1    0.0
 1991 251    39   6.40  17.10  10.50  1.329  1.329  0.288  1.040  0.000   47.1    4.0   43.1    0.0
 1991 252    40  15.60  20.00   8.40  3.300  3.300  0.753  2.547  0.000   50.4    4.7   45.6    0.0
 1991 253    41  17.50  22.00  10.20  3.854  2.347  0.931  1.416  0.000   52.7    5.6   47.1    0.0
 1991 254    42  20.20  25.00  10.80  4.633  2.299  1.201  1.097  0.000   55.0    6.8   48.2    0.0
 1991 255    43  19.90  27.80  14.10  4.830  2.293  1.364  0.929  0.000   57.3    8.2   49.1    0.0
 1991 256    44  15.40  30.70  16.10  3.905  2.042  1.222  0.820  0.000   59.3    9.4   49.9    0.0
 1991 257    45   6.10  21.00   7.80  1.277  1.189  0.446  0.742  0.000   60.5    9.9   50.6    0.0
 1991 258    46   6.20  12.30   8.20  1.148  1.148  0.421  0.728  0.000   61.7   10.3   51.4    0.0
 1991 259    47  11.50  23.50  12.40  2.579  2.579  0.960  1.619  0.000   64.3   11.3   53.0    0.0
 1991 260    48   6.30  21.10  17.10  1.420  1.420  0.567  0.852  0.000   65.7   11.8   53.8    0.0
 1991 261    49  18.90  19.70  13.10  4.030  4.030  1.710  2.320  0.000   69.7   13.5   56.2    0.0
 1991 262    50  21.70  17.30   8.80  4.298  4.298  1.897  2.401  0.000   74.0   15.4   58.6    0.0
 1991 263    51  13.10  22.60   8.30  2.770  2.677  1.258  1.419  0.000   76.7   16.7   60.0    0.0
 1991 264    52  11.00  27.50  12.60  2.554  2.554  1.212  1.342  0.000   79.2   17.9   61.3    0.0
 1991 265    53  20.40  20.30  10.30  4.226  4.226  2.137  2.088  0.000   83.5   20.0   63.4    0.0
 1991 266    54  21.60  16.90   3.20  3.981  3.516  2.086  1.430  0.000   87.0   22.1   64.8    0.0
 1991 267    55  22.30  19.00   4.90  4.321  3.280  2.177  1.103  0.000   90.3   24.3   65.9    0.0
 1991 268    56  20.30  21.10   8.70  4.186  3.076  2.144  0.932  0.000   93.3   26.5   66.9    0.0
 1991 269    57  21.70  23.40   7.80  4.563  3.243  2.420  0.823  0.000   96.6   28.9   67.7    0.0
 1991 270    58  17.70  27.80  13.80  4.114  3.021  2.276  0.744  0.000   99.6   31.1   68.4    0.0
 1991 271    59  22.20  16.10   9.00  4.236  3.183  2.498  0.685  0.000  102.8   33.6   69.1    0.0
 1991 272    60  21.80  18.00   7.50  4.205  3.167  2.529  0.638  0.000  105.9   36.2   69.8    0.0
 1991 273    61  21.10  20.20   9.70  4.272  3.219  2.620  0.599  0.000  109.2   38.8   70.4    0.0
 1991 274    62  19.70  18.40   7.00  3.787  2.954  2.388  0.567  0.000  112.1   41.2   70.9    0.0
 1991 275    63  22.00  18.40   5.70  4.171  4.171  2.676  1.495  0.000  116.3   43.9   72.4    0.0
 1991 276    64  23.00  19.80   3.80  4.363  4.363  2.842  1.521  0.000  120.7   46.7   74.0    0.0
 1991 277    65  19.10  21.70   6.30  3.810  3.810  2.455  1.355  0.000  124.5   49.2   75.3    0.0
 1991 278    66   7.10  13.60  10.60  1.314  1.314  0.865  0.449  0.000  125.8   50.0   75.8    0.0
 1991 279    67  13.30  12.50   7.00  2.333  2.333  1.556  0.777  0.000  128.1   51.6   76.5    0.0
 1991 280    68  14.80  14.20   4.00  2.583  2.583  1.731  0.852  0.000  130.7   53.3   77.4    0.0
 1991 281    69  23.60  16.90   3.90  4.291  4.291  2.833  1.458  0.000  135.0   56.1   78.8    0.0
 1991 282    70  20.30  20.90   7.30  4.038  4.038  2.628  1.410  0.000  139.0   58.8   80.3    0.0
 1991 283    71  24.30  23.10   7.20  4.963  4.963  3.297  1.666  0.000  144.0   62.1   81.9    0.0
 1991 284    72  24.30  25.00   8.70  5.140  4.726  3.493  1.234  0.000  148.7   65.6   83.2    0.0
 1991 285    73  24.40  29.20  12.20  5.572  5.572  3.887  1.685  0.000  154.3   69.4   84.8    0.0
 1991 286    74  21.90  33.00  20.00  5.507  5.507  3.975  1.532  0.000  159.8   73.4   86.4    0.0
 1991 287    75  11.80  32.00  21.10  2.945  2.945  2.221  0.724  0.000  162.7   75.6   87.1    0.0
 1991 288    76   7.50  23.50  17.60  1.652  1.652  1.280  0.371  0.000  164.4   76.9   87.5    0.0
 1991 289    77   7.60  17.80  11.60  1.477  1.477  1.162  0.315  0.000  165.9   78.1   87.8    0.0
 1991 290    78  15.50  16.00   8.40  2.848  2.848  2.266  0.582  0.000  168.7   80.3   88.4    0.0
 1991 291    79  26.30  21.50   8.40  5.211  5.211  4.160  1.050  0.000  173.9   84.5   89.4    0.0
 1991 292    80  26.30  24.60  11.00  5.539  5.539  4.465  1.074  0.000  179.5   89.0   90.5    0.0
 1991 293    81  26.30  24.90  12.50  5.619  5.619  4.596  1.023  0.000  185.1   93.6   91.5    0.0
 1991 294    82  24.40  29.60  14.20  5.576  5.576  4.628  0.948  0.000  190.7   98.2   92.5    0.0
 1991 295    83  20.20  29.90  19.80  4.819  4.819  4.071  0.748  0.000  195.5  102.3   93.2    0.0
 1991 296    84   8.30  19.10  12.60  1.638  1.638  1.411  0.228  0.000  197.1  103.7   93.4    0.0
 1991 297    85   7.90  17.40  10.20  1.490  1.490  1.292  0.198  0.000  198.6  105.0   93.6    0.0
 1991 298    86   7.90  21.30  15.40  1.641  1.641  1.430  0.211  0.000  200.2  106.4   93.8    0.0
 1991 299    87  22.70  24.90  16.30  4.959  4.959  4.344  0.615  0.000  205.2  110.7   94.5    0.0
 1991 300    88  12.20  23.30  14.70  2.575  2.575  2.296  0.279  0.000  207.8  113.0   94.7    0.0
 1991 301    89   8.00  20.10  14.90  1.624  1.624  1.458  0.166  0.000  209.4  114.5   94.9    0.0
 1991 302    90   8.00  16.80  15.20  1.559  1.559  1.404  0.155  0.000  211.0  115.9   95.1    0.0
 1991 303    91   8.10  18.00  14.60  1.595  1.595  1.439  0.155  0.000  212.6  117.3   95.2    0.0
 1991 304    92   8.10  20.70  14.60  1.651  1.651  1.493  0.157  0.000  214.2  118.8   95.4    0.0
 1991 305    93  17.90  22.30  13.70  3.693  3.693  3.348  0.346  0.000  217.9  122.2   95.7    0.0
 1991 306    94  25.50  22.30  12.20  5.193  5.193  4.723  0.470  0.000  223.1  126.9   96.2    0.0
 1991 307    95  20.80  22.80  12.80  4.283  4.283  3.905  0.378  0.000  227.4  130.8   96.6    0.0
 1991 308    96  27.90  25.00  11.90  5.859  5.859  5.353  0.506  0.000  233.2  136.2   97.1    0.0
 1991 309    97  20.90  25.90  13.20  4.483  4.483  4.105  0.379  0.000  237.7  140.3   97.5    0.0
 1991 310    98  11.60  24.30  16.20  2.500  2.500  2.293  0.207  0.000  240.2  142.6   97.7    0.0
 1991 311    99  21.40  22.80  13.70  4.436  4.436  4.074  0.362  0.000  244.7  146.6   98.0    0.0
 1991 312   100  20.00  21.40  12.40  4.028  4.028  3.703  0.325  0.000  248.7  150.3   98.3    0.0
 1991 313   101  27.20  23.90   9.20  5.504  5.504  5.061  0.443  0.000  254.2  155.4   98.8    0.0
 1991 314   102  17.60  25.70  11.30  3.707  3.707  3.409  0.298  0.000  257.9  158.8   99.1    0.0
 1991 315   103  18.50  19.00  10.10  3.538  3.538  3.255  0.283  0.000  261.4  162.1   99.4    0.0
 1991 316   104  27.30  19.00   6.40  5.047  5.047  4.641  0.406  0.000  266.5  166.7   99.8    0.0
 1991 317   105  18.50  21.00   8.40  3.580  3.580  3.289  0.291  0.000  270.1  170.0  100.1    0.0
 1991 318   106   8.50  19.90  12.10  1.675  1.675  1.538  0.137  0.000  271.7  171.5  100.2    0.0
 1991 319   107  11.90  22.20  14.00  2.455  2.455  2.253  0.202  0.000  274.2  173.8  100.4    0.0
 1991 320   108  19.50  23.20  12.10  4.009  4.009  3.680  0.329  0.000  278.2  177.5  100.7    0.0
 1991 321   109  21.50  23.00  11.30  4.379  4.379  4.020  0.359  0.000  282.6  181.5  101.1    0.0
 1991 322   110  23.70  27.00  13.30  5.154  5.154  4.730  0.424  0.000  287.7  186.2  101.5    0.0
 1991 323   111  29.90  21.30  13.80  6.087  6.087  5.590  0.498  0.000  293.8  191.8  102.0    0.0
 1991 324   112  24.60  24.40  13.00  5.173  5.173  4.738  0.435  0.000  299.0  196.5  102.4    0.0
 1991 325   113  29.40  28.60  12.50  6.478  6.478  5.917  0.562  0.000  305.5  202.5  103.0    0.0
 1991 326   114  28.60  33.30  13.80  6.715  6.715  6.120  0.595  0.000  312.2  208.6  103.6    0.0
 1991 327   115  24.90  35.20  18.50  6.228  6.228  5.665  0.563  0.000  318.4  214.2  104.2    0.0
 1991 328   116   8.80  19.10  13.80  1.744  1.744  1.584  0.161  0.000  320.2  215.8  104.3    0.0
 1991 329   117   8.80  18.80  14.20  1.744  1.744  1.580  0.163  0.000  321.9  217.4  104.5    0.0
 1991 330   118  14.10  20.20  12.60  2.807  2.807  2.539  0.267  0.000  324.7  219.9  104.8    0.0
 1991 331   119  22.40  24.20  10.70  4.618  4.618  4.171  0.447  0.000  329.3  224.1  105.2    0.0
 1991 332   120  22.30  29.00  14.90  5.037  5.037  4.542  0.495  0.000  334.4  228.7  105.7    0.0
 1991 333   121  16.00  25.60  19.00  3.587  3.587  3.230  0.357  0.000  337.9  231.9  106.1    0.0
 1991 334   122  30.00  28.20  17.50  6.851  6.851  6.161  0.690  0.000  344.8  238.1  106.7    0.0
 1991 335   123  24.30  27.80  14.60  5.404  5.404  4.853  0.551  0.000  350.2  242.9  107.3    0.0
 1991 336   124  29.40  30.10  14.90  6.729  6.729  6.036  0.693  0.000  356.9  248.9  108.0    0.0
 1991 337   125  15.40  27.50  18.00  3.504  3.504  3.140  0.364  0.000  360.4  252.1  108.4    0.0
 1991 338   126  29.90  31.50  16.10  7.016  7.016  6.278  0.737  0.000  367.5  258.4  109.1    0.0
 1991 339   127  14.60  27.30  18.30  3.323  3.323  2.969  0.354  0.000  370.8  261.3  109.4    0.0
 1991 340   128  29.40  31.80  18.90  7.066  7.066  6.305  0.761  0.000  377.8  267.6  110.2    0.0
 1991 341   129  16.80  27.80  19.00  3.867  3.867  3.446  0.421  0.000  381.7  271.1  110.6    0.0
 1991 342   130  28.30  29.80  17.70  6.599  6.599  5.871  0.728  0.000  388.3  276.9  111.4    0.0
 1991 343   131   9.00  22.80  18.90  1.954  1.954  1.736  0.218  0.000  390.3  278.7  111.6    0.0
 1991 344   132  24.70  27.00  18.80  5.629  5.629  4.991  0.638  0.000  395.9  283.7  112.2    0.0
 1991 345   133  19.50  27.60  17.30  4.425  4.425  3.915  0.510  0.000  400.3  287.6  112.7    0.0
 1991 346   134   9.40  23.80  16.60  2.030  2.030  1.792  0.238  0.000  402.3  289.4  113.0    0.0
 1991 347   135  29.90  28.40  15.10  6.738  6.738  5.931  0.807  0.000  409.1  295.3  113.8    0.0
 1991 348   136   9.40  21.90  16.70  1.986  1.986  1.743  0.243  0.000  411.1  297.1  114.0    0.0
 1991 349   137   9.10  23.50  16.70  1.962  1.962  1.716  0.246  0.000  413.0  298.8  114.3    0.0
 1991 350   138  20.20  26.90  17.10  4.549  4.549  3.964  0.585  0.000  417.6  302.7  114.8    0.0
 1991 351   139  27.60  27.80  17.90  6.321  6.321  5.486  0.835  0.000  423.9  308.2  115.7    0.0
 1991 352   140  26.20  31.10  17.80  6.224  6.224  5.379  0.845  0.000  430.1  313.6  116.5    0.0
 1991 353   141  21.60  31.20  17.50  5.129  5.129  4.411  0.718  0.000  435.3  318.0  117.2    0.0
 1991 354   142  28.80  31.00  18.00  6.853  6.853  5.862  0.990  0.000  442.1  323.9  118.2    0.0
 1991 355   143  23.90  32.40  19.90  5.857  5.857  4.981  0.875  0.000  448.0  328.9  119.1    0.0
 1991 356   144  11.20  27.10  20.30  2.600  2.600  2.197  0.402  0.000  450.6  331.1  119.5    0.0
 1991 357   145  23.80  30.00  19.50  5.676  5.676  4.765  0.911  0.000  456.2  335.8  120.4    0.0
 1991 358   146  27.30  30.80  20.60  6.626  6.626  5.521  1.104  0.000  462.9  341.3  121.5    0.0
 1991 359   147  21.00  25.60  17.40  4.698  4.698  3.885  0.813  0.000  467.6  345.2  122.3    0.0
 1991 360   148  23.90  22.70  13.40  5.004  5.004  4.103  0.901  0.000  472.6  349.3  123.2    0.0
 1991 361   149  29.90  25.20  12.40  6.411  6.411  5.208  1.203  0.000  479.0  354.5  124.4    0.0
 1991 362   150  28.80  26.60  14.90  6.414  6.414  5.160  1.254  0.000  485.4  359.7  125.7    0.0
 1991 363   151  30.80  29.30  14.60  7.070  7.070  5.630  1.440  0.000  492.5  365.3  127.1    0.0
 1991 364   152  23.60  30.40  17.40  5.608  5.608  4.418  1.190  0.000  498.1  369.7  128.3    0.0
 1991 365   153  19.50  33.00  21.10  4.900  4.470  3.816  0.655  0.000  502.5  373.6  129.0    0.0
 1992 001   154  10.80  28.00  20.30  2.560  2.560  1.969  0.591  0.000  505.1  375.5  129.6    0.0
 1992 002   155  19.00  28.60  19.10  4.501  4.501  3.416  1.084  0.000  509.6  378.9  130.7    0.0
 1992 003   156  28.00  23.20  14.20  6.001  6.001  4.491  1.509  0.000  515.6  383.4  132.2    0.0
 1992 004   157  31.30  26.80  14.90  7.056  7.056  5.204  1.852  0.000  522.7  388.6  134.0    0.0
 1992 005   158  30.40  28.90  13.10  6.937  6.800  5.039  1.761  0.000  529.5  393.7  135.8    0.0
 1992 006   159  20.50  27.20  15.70  4.688  4.688  3.350  1.338  0.000  534.1  397.0  137.1    0.0
 1992 007   160  25.30  29.60  15.90  5.967  5.967  4.190  1.777  0.000  540.1  401.2  138.9    0.0
 1992 008   161  27.90  31.00  20.10  6.906  6.262  4.759  1.504  0.000  546.4  406.0  140.4    0.0
 1992 009   162  23.60  31.00  20.00  5.849  5.088  3.952  1.136  0.000  551.5  409.9  141.5    0.0
 1992 010   163  21.00  30.00  20.90  5.182  4.453  3.501  0.952  0.000  555.9  413.4  142.5    0.0
 1992 011   164  31.30  27.00  14.90  7.138  5.658  4.823  0.836  0.000  561.6  418.3  143.3    0.0

*DSSAT Cropping System Model Ver. 4.0.2.000               Aug 03, 2016; 15:30:22

*RUN   3        : UYMZ                    
 MODEL          : MZCER040 - Maize           
 EXPERIMENT     : UYMZ0129 MZ    late to create DSS                             
 TREATMENT  1   : UYMZ                    

@YEAR DOY   DAS   SRAA   TMXA   TMNA   EOAA   ETAA   EPAA   ESAA   EFAD   ETAC   EPAC   ESAC   EFAC
 1992 212     0   4.30  13.60   7.50  0.852  0.852  0.000  0.852  0.000    0.9    0.0    0.9    0.0
 1992 213     1   6.30   9.40   3.80  1.124  1.124  0.000  1.124  0.000    2.0    0.0    2.0    0.0
 1992 214     2  13.60   8.80   0.20  2.306  1.630  0.000  1.630  0.000    3.6    0.0    3.6    0.0
 1992 215     3  13.70  12.00   0.10  2.450  2.450  0.000  2.450  0.000    6.1    0.0    6.1    0.0
 1992 216     4  13.70  13.70   0.50  2.530  2.530  0.000  2.530  0.000    8.6    0.0    8.6    0.0
 1992 217     5  10.00  12.50   1.20  1.825  1.503  0.000  1.503  0.000   10.1    0.0   10.1    0.0
 1992 218     6  12.80  17.40  -1.30  2.458  2.458  0.000  2.458  0.000   12.5    0.0   12.5    0.0
 1992 219     7  15.20  25.60   6.90  3.534  1.630  0.000  1.630  0.000   14.2    0.0   14.2    0.0
 1992 220     8   4.50  21.40   8.20  1.002  1.002  0.000  1.002  0.000   15.2    0.0   15.2    0.0
 1992 221     9  14.50  10.40   1.40  2.562  1.920  0.000  1.920  0.000   17.1    0.0   17.1    0.0
 1992 222    10  10.20  13.40  -0.60  1.852  1.087  0.000  1.087  0.000   18.2    0.0   18.2    0.0
 1992 223    11   9.40  15.40   7.80  1.919  0.922  0.000  0.922  0.000   19.1    0.0   19.1    0.0
 1992 224    12  15.10  14.90   3.90  2.943  0.816  0.000  0.816  0.000   19.9    0.0   19.9    0.0
 1992 225    13  14.50  15.90   6.10  2.932  0.739  0.000  0.739  0.000   20.7    0.0   20.7    0.0
 1992 226    14  15.60  18.00   2.80  3.150  0.681  0.000  0.681  0.000   21.3    0.0   21.3    0.0
 1992 227    15  14.70  18.40   3.00  2.992  0.634  0.000  0.634  0.000   22.0    0.0   22.0    0.0
 1992 228    16   9.50  19.20   5.70  2.007  0.596  0.000  0.596  0.000   22.6    0.0   22.6    0.0
 1992 229    17  15.30  22.20   8.70  3.458  0.564  0.000  0.564  0.000   23.1    0.0   23.1    0.0
 1992 230    18  12.30  23.20   9.70  2.841  0.537  0.000  0.537  0.000   23.7    0.0   23.7    0.0
 1992 231    19  14.00  20.80   9.20  3.120  0.514  0.000  0.514  0.000   24.2    0.0   24.2    0.0
 1992 232    20  13.40  19.60   7.90  2.904  0.497  0.004  0.493  0.000   24.7    0.0   24.7    0.0
 1992 233    21  13.30  19.40   6.20  2.829  0.481  0.007  0.474  0.000   25.2    0.0   25.2    0.0
 1992 234    22  16.90  23.10   9.50  3.890  0.470  0.012  0.458  0.000   25.6    0.0   25.6    0.0
 1992 235    23   7.80  20.10  13.90  1.793  1.208  0.008  1.200  0.000   26.8    0.0   26.8    0.0
 1992 236    24  17.00  19.30   9.60  3.723  3.723  0.024  3.699  0.000   30.6    0.1   30.5    0.0
 1992 237    25  17.80  21.00   7.10  3.899  0.568  0.030  0.538  0.000   31.1    0.1   31.1    0.0
 1992 238    26  18.00  21.20   5.80  3.907  0.550  0.036  0.515  0.000   31.7    0.1   31.6    0.0
 1992 239    27  17.90  20.30   6.20  3.851  0.534  0.040  0.494  0.000   32.2    0.2   32.1    0.0
 1992 240    28  17.60  25.40   6.30  4.054  0.523  0.048  0.475  0.000   32.7    0.2   32.5    0.0
 1992 241    29  11.50  18.80  11.40  2.539  0.494  0.035  0.458  0.000   33.2    0.2   33.0    0.0
 1992 242    30  14.20  24.40  11.00  3.357  0.509  0.065  0.444  0.000   33.7    0.3   33.4    0.0
 1992 243    31   5.50  20.90  15.20  1.287  0.466  0.036  0.430  0.000   34.2    0.3   33.9    0.0
 1992 244    32   7.20  13.80   9.60  1.453  1.453  0.054  1.399  0.000   35.7    0.4   35.3    0.0
 1992 245    33   7.50  14.00   7.20  1.482  0.663  0.060  0.603  0.000   36.3    0.5   35.9    0.0
 1992 246    34   5.70  14.80   8.60  1.155  0.620  0.050  0.570  0.000   36.9    0.5   36.4    0.0
 1992 247    35  14.90  17.40   7.30  3.093  0.686  0.144  0.542  0.000   37.6    0.7   37.0    0.0
 1992 248    36  18.80  18.80   6.80  3.959  0.722  0.204  0.518  0.000   38.4    0.9   37.5    0.0
 1992 249    37  18.30  21.20   6.10  3.954  0.724  0.227  0.496  0.000   39.1    1.1   38.0    0.0
 1992 250    38  18.30  18.80   8.70  3.914  0.732  0.254  0.477  0.000   39.8    1.3   38.5    0.0
 1992 251    39  17.80  20.60   9.70  3.931  0.745  0.285  0.461  0.000   40.6    1.6   38.9    0.0
 1992 252    40   5.90  20.10  13.60  1.337  0.555  0.110  0.445  0.000   41.1    1.7   39.4    0.0
 1992 253    41  11.20  20.00  13.40  2.527  0.667  0.235  0.432  0.000   41.8    2.0   39.8    0.0
 1992 254    42  12.60  21.60  13.10  2.889  0.722  0.303  0.419  0.000   42.5    2.3   40.2    0.0
 1992 255    43   8.60  21.20  14.90  1.988  1.988  0.236  1.752  0.000   44.5    2.5   42.0    0.0
 1992 256    44  16.90  19.30  12.30  3.719  3.719  0.498  3.221  0.000   48.2    3.0   45.2    0.0
 1992 257    45  10.20  16.70   8.80  2.095  2.095  0.308  1.787  0.000   50.3    3.3   47.0    0.0
 1992 258    46  17.10  20.10   6.20  3.590  2.633  0.556  2.076  0.000   52.9    3.9   49.1    0.0
 1992 259    47  19.70  21.30   9.00  4.304  3.058  0.710  2.347  0.000   56.0    4.6   51.4    0.0
 1992 260    48  12.60  22.60  12.60  2.881  1.887  0.516  1.371  0.000   57.9    5.1   52.8    0.0
 1992 261    49  14.90  26.70  15.20  3.648  1.795  0.719  1.076  0.000   59.7    5.8   53.9    0.0
 1992 262    50  19.80  16.60   9.30  4.033  4.033  0.900  3.133  0.000   63.7    6.7   57.0    0.0
 1992 263    51  21.60  19.30   5.20  4.390  2.068  1.026  1.041  0.000   65.8    7.7   58.0    0.0
 1992 264    52  21.40  25.60   5.90  4.756  2.053  1.159  0.894  0.000   67.8    8.9   58.9    0.0
 1992 265    53  21.20  30.00  10.20  5.136  2.151  1.355  0.796  0.000   70.0   10.3   59.7    0.0
 1992 266    54   6.50  12.70   8.80  1.232  1.232  0.362  0.870  0.000   71.2   10.6   60.6    0.0
 1992 267    55  16.00  18.60   6.50  3.227  3.227  0.967  2.261  0.000   74.4   11.6   62.9    0.0
 1992 268    56   6.60  13.20  10.60  1.279  1.279  0.398  0.882  0.000   75.7   12.0   63.7    0.0
 1992 269    57  21.20  12.50   4.50  3.819  3.819  1.219  2.599  0.000   79.5   13.2   66.3    0.0
 1992 270    58  20.60  14.20   0.80  3.668  3.668  1.162  2.506  0.000   83.2   14.4   68.8    0.0
 1992 271    59  21.70  20.00   4.50  4.417  3.443  1.089  2.355  0.000   86.6   15.5   71.2    0.0
 1992 272    60  23.00  21.40   5.30  4.800  3.570  1.238  2.332  0.000   90.2   16.7   73.5    0.0
 1992 273    61  23.30  23.20   6.10  5.002  2.759  1.390  1.368  0.000   93.0   18.1   74.9    0.0
 1992 274    62  22.50  26.20  10.30  5.181  2.648  1.574  1.075  0.000   95.6   19.7   76.0    0.0
 1992 275    63  12.50  26.40  11.00  2.888  1.883  0.968  0.915  0.000   97.5   20.6   76.9    0.0
 1992 276    64  11.80  21.80  13.00  2.605  2.558  0.958  1.600  0.000  100.1   21.6   78.5    0.0
 1992 277    65  17.90  20.60  11.10  3.812  2.362  1.509  0.853  0.000  102.4   23.1   79.3    0.0
 1992 278    66  18.00  25.50  11.70  4.084  2.482  1.715  0.767  0.000  104.9   24.8   80.1    0.0
 1992 279    67   7.10  18.20  11.80  1.461  1.360  0.658  0.702  0.000  106.3   25.5   80.8    0.0
 1992 280    68  24.40  15.90   7.40  4.655  4.655  2.187  2.468  0.000  110.9   27.6   83.3    0.0
 1992 281    69  21.30  15.60   4.20  3.915  3.284  1.878  1.406  0.000  114.2   29.5   84.7    0.0
 1992 282    70  24.30  19.00   3.40  4.661  4.661  2.221  2.439  0.000  118.9   31.7   87.1    0.0
 1992 283    71  24.30  21.00   6.60  4.946  3.786  2.302  1.484  0.000  122.7   34.1   88.6    0.0
 1992 284    72  25.10  25.30   7.30  5.424  3.746  2.619  1.127  0.000  126.4   36.7   89.7    0.0
 1992 285    73  16.70  27.20   9.20  3.739  2.856  1.910  0.947  0.000  129.3   38.6   90.7    0.0
 1992 286    74  22.70  24.00  12.40  4.992  3.542  2.710  0.832  0.000  132.8   41.3   91.5    0.0
 1992 287    75  25.10  25.60   8.60  5.431  5.431  3.111  2.320  0.000  138.2   44.4   93.8    0.0
 1992 288    76  24.70  29.50  11.40  5.710  5.710  3.413  2.297  0.000  143.9   47.8   96.1    0.0
 1992 289    77   7.60  31.50  15.50  1.845  1.845  1.162  0.683  0.000  145.8   49.0   96.8    0.0
 1992 290    78   9.30  20.50  15.70  1.979  1.979  1.292  0.688  0.000  147.8   50.3   97.5    0.0
 1992 291    79  23.40  21.20  12.00  4.853  4.853  3.275  1.578  0.000  152.6   53.5   99.1    0.0
 1992 292    80  25.90  21.20   7.50  5.150  5.150  3.567  1.583  0.000  157.8   57.1  100.7    0.0
 1992 293    81   9.10  19.80  11.20  1.832  1.832  1.291  0.541  0.000  159.6   58.4  101.2    0.0
 1992 294    82  24.10  18.60  10.30  4.726  4.726  3.397  1.329  0.000  164.3   61.8  102.5    0.0
 1992 295    83  26.10  21.30   5.50  5.076  5.076  3.705  1.370  0.000  169.4   65.5  103.9    0.0
 1992 296    84  24.90  24.50   7.60  5.139  5.139  3.801  1.338  0.000  174.5   69.3  105.2    0.0
 1992 297    85  25.00  27.30  12.00  5.528  5.528  4.162  1.367  0.000  180.1   73.5  106.6    0.0
 1992 298    86  24.60  30.90  14.60  5.771  5.481  4.449  1.032  0.000  185.6   77.9  107.6    0.0
 1992 299    87   9.50  26.40  17.60  2.160  2.160  1.711  0.449  0.000  187.7   79.6  108.1    0.0
 1992 300    88  26.70  27.40  17.30  6.114  6.114  4.921  1.193  0.000  193.8   84.5  109.3    0.0
 1992 301    89  27.40  30.00  15.80  6.373  6.373  5.242  1.132  0.000  200.2   89.8  110.4    0.0
 1992 302    90  10.50  15.30   6.40  1.862  1.862  1.562  0.300  0.000  202.1   91.4  110.7    0.0
 1992 303    91  27.70  21.90   3.90  5.266  5.266  4.432  0.834  0.000  207.3   95.8  111.5    0.0
 1992 304    92  26.80  21.80   6.40  5.210  5.210  4.348  0.862  0.000  212.5  100.1  112.4    0.0
 1992 305    93  26.90  23.80   6.80  5.384  5.384  4.527  0.857  0.000  217.9  104.7  113.3    0.0
 1992 306    94  27.10  27.10   9.00  5.755  5.755  4.880  0.875  0.000  223.7  109.5  114.1    0.0
 1992 307    95  27.30  30.20  13.00  6.200  6.200  5.316  0.885  0.000  229.9  114.9  115.0    0.0
 1992 308    96  21.90  19.80   9.40  4.236  4.236  3.683  0.553  0.000  234.1  118.5  115.6    0.0
 1992 309    97  27.20  14.10   6.50  4.711  4.711  4.176  0.535  0.000  238.8  122.7  116.1    0.0
 1992 310    98  24.50  16.40   2.70  4.226  4.226  3.764  0.462  0.000  243.0  126.5  116.6    0.0
 1992 311    99  27.00  19.20   4.80  4.968  4.968  4.302  0.666  0.000  248.0  130.8  117.2    0.0
 1992 312   100  27.40  21.50   7.30  5.322  5.322  4.625  0.697  0.000  253.3  135.4  117.9    0.0
 1992 313   101  28.00  25.20   8.30  5.751  5.751  5.036  0.715  0.000  259.1  140.4  118.7    0.0
 1992 314   102  28.20  29.80  10.00  6.206  6.206  5.479  0.727  0.000  265.3  145.9  119.4    0.0
 1992 315   103   8.60  22.00  16.00  1.806  1.806  1.608  0.198  0.000  267.1  147.5  119.6    0.0
 1992 316   104  23.60  28.40  16.10  5.349  5.349  4.778  0.571  0.000  272.5  152.3  120.1    0.0
 1992 317   105  28.00  29.50  15.30  6.382  6.382  5.739  0.643  0.000  278.8  158.0  120.8    0.0
 1992 318   106  28.50  27.90  12.90  6.256  6.256  5.657  0.599  0.000  285.1  163.7  121.4    0.0
 1992 319   107  19.40  31.40  14.40  4.482  4.482  4.068  0.414  0.000  289.6  167.8  121.8    0.0
 1992 320   108  23.00  25.50  17.30  5.076  5.076  4.624  0.452  0.000  294.6  172.4  122.3    0.0
 1992 321   109  28.80  20.40  11.50  5.686  5.686  5.193  0.493  0.000  300.3  177.6  122.7    0.0
 1992 322   110  28.20  21.50   7.70  5.463  5.463  4.992  0.471  0.000  305.8  182.6  123.2    0.0
 1992 323   111  28.80  23.90   7.20  5.733  5.733  5.238  0.495  0.000  311.5  187.8  123.7    0.0
 1992 324   112  29.50  28.10  11.20  6.396  6.396  5.843  0.553  0.000  317.9  193.7  124.3    0.0
 1992 325   113  22.20  30.00  13.80  5.021  5.021  4.592  0.429  0.000  322.9  198.3  124.7    0.0
 1992 326   114   8.70  21.20  13.60  1.766  1.766  1.618  0.148  0.000  324.7  199.9  124.8    0.0
 1992 327   115  25.70  19.30  10.00  4.933  4.933  4.519  0.414  0.000  329.6  204.4  125.3    0.0
 1992 328   116  22.10  20.60   6.40  4.179  4.179  3.827  0.353  0.000  333.8  208.2  125.6    0.0
 1992 329   117  24.00  26.00  11.10  5.068  5.068  4.636  0.432  0.000  338.9  212.9  126.0    0.0
 1992 330   118  21.90  23.90  15.40  4.668  4.668  4.272  0.396  0.000  343.6  217.1  126.4    0.0
 1992 331   119  19.00  26.00  14.30  4.117  4.117  3.770  0.347  0.000  347.7  220.9  126.8    0.0
 1992 332   120  30.10  27.20  12.90  6.544  6.544  5.977  0.567  0.000  354.2  226.9  127.4    0.0
 1992 333   121  21.00  27.70  13.50  4.616  4.616  4.205  0.411  0.000  358.8  231.1  127.8    0.0
 1992 334   122  19.80  29.80  16.90  4.577  4.577  4.161  0.416  0.000  363.4  235.2  128.2    0.0
 1992 335   123  21.90  28.00  18.70  5.030  5.030  4.564  0.465  0.000  368.4  239.8  128.6    0.0
 1992 336   124  29.50  23.90  14.00  6.225  6.225  5.639  0.586  0.000  374.7  245.4  129.2    0.0
 1992 337   125  30.20  24.80   8.90  6.178  6.178  5.587  0.591  0.000  380.8  251.0  129.8    0.0
 1992 338   126  26.20  27.40   9.70  5.574  5.574  5.032  0.542  0.000  386.4  256.1  130.4    0.0
 1992 339   127  30.30  29.10  13.50  6.779  6.779  6.110  0.669  0.000  393.2  262.2  131.0    0.0
 1992 340   128  18.70  28.20  13.80  4.151  4.151  3.736  0.414  0.000  397.4  265.9  131.4    0.0
 1992 341   129  25.20  29.60  18.90  5.907  5.907  5.312  0.596  0.000  403.3  271.2  132.0    0.0
 1992 342   130  23.30  26.40  15.40  5.129  5.129  4.607  0.522  0.000  408.4  275.8  132.6    0.0
 1992 343   131  25.40  27.90  14.80  5.664  5.664  5.083  0.581  0.000  414.1  280.9  133.1    0.0
 1992 344   132  21.00  26.70  16.50  4.680  4.680  4.196  0.484  0.000  418.7  285.1  133.6    0.0
 1992 345   133  22.70  27.30  18.10  5.157  5.157  4.620  0.537  0.000  423.9  289.7  134.2    0.0
 1992 346   134  23.20  26.50  15.70  5.127  5.127  4.591  0.536  0.000  429.0  294.3  134.7    0.0
 1992 347   135  29.50  27.30  13.40  6.463  6.463  5.784  0.680  0.000  435.5  300.1  135.4    0.0
 1992 348   136  30.90  30.20  14.90  7.083  7.083  6.332  0.751  0.000  442.6  306.4  136.1    0.0
 1992 349   137  28.90  28.40  15.70  6.531  6.531  5.832  0.699  0.000  449.1  312.3  136.8    0.0
 1992 350   138  30.30  28.00  10.00  6.519  6.482  5.812  0.670  0.000  455.6  318.1  137.5    0.0
 1992 351   139  24.80  29.80  12.50  5.559  5.559  4.948  0.611  0.000  461.1  323.0  138.1    0.0
 1992 352   140  19.40  27.60  17.70  4.414  4.414  3.921  0.493  0.000  465.5  326.9  138.6    0.0
 1992 353   141  29.70  30.40  14.50  6.810  6.810  6.036  0.774  0.000  472.4  333.0  139.4    0.0
 1992 354   142  18.00  30.80  14.60  4.151  4.151  3.669  0.481  0.000  476.5  336.6  139.9    0.0
 1992 355   143  31.80  33.80  18.10  7.775  7.775  6.854  0.922  0.000  484.3  343.5  140.8    0.0
 1992 356   144  25.50  32.40  15.70  6.039  6.039  5.306  0.733  0.000  490.3  348.8  141.5    0.0
 1992 357   145  11.20  29.40  18.60  2.623  2.623  2.296  0.327  0.000  492.9  351.1  141.8    0.0
 1992 358   146  11.20  27.70  20.80  2.617  2.617  2.282  0.335  0.000  495.6  353.4  142.2    0.0
 1992 359   147  27.80  28.90  17.70  6.437  6.437  5.587  0.849  0.000  502.0  359.0  143.0    0.0
 1992 360   148  22.90  27.40  15.10  5.113  5.113  4.417  0.695  0.000  507.1  363.4  143.7    0.0
 1992 361   149  31.40  27.40  13.20  6.911  6.911  5.941  0.970  0.000  514.0  369.3  144.7    0.0
 1992 362   150  31.00  28.00  12.60  6.844  6.844  5.850  0.994  0.000  520.9  375.2  145.7    0.0
 1992 363   151  30.00  32.00  13.10  6.967  6.967  5.917  1.050  0.000  527.8  381.1  146.7    0.0
 1992 364   152   9.10  25.60  19.70  2.068  2.068  1.744  0.324  0.000  529.9  382.8  147.1    0.0
 1992 365   153   9.10  23.30  19.60  2.013  2.013  1.685  0.328  0.000  531.9  384.5  147.4    0.0
 1992 366   154   9.10  20.20  19.20  1.935  1.935  1.607  0.328  0.000  533.8  386.1  147.7    0.0
 1993 001   155   9.10  21.20  19.60  1.967  1.967  1.619  0.348  0.000  535.8  387.8  148.1    0.0
 1993 002   156   9.10  21.80  19.40  1.980  1.980  1.616  0.365  0.000  537.8  389.4  148.4    0.0
 1993 003   157   9.10  21.90  19.70  1.990  1.990  1.608  0.381  0.000  539.8  391.0  148.8    0.0
 1993 004   158  14.90  28.90  19.80  3.538  3.538  2.832  0.706  0.000  543.3  393.8  149.5    0.0
 1993 005   159  23.60  30.80  21.50  5.799  5.799  4.593  1.206  0.000  549.1  398.4  150.7    0.0
 1993 006   160  29.90  32.00  19.70  7.356  7.356  5.763  1.593  0.000  556.5  404.2  152.3    0.0
 1993 007   161  12.50  27.20  20.30  2.935  2.935  2.272  0.663  0.000  559.4  406.4  153.0    0.0
 1993 008   162  20.20  26.60  20.10  4.710  4.710  3.600  1.111  0.000  564.1  410.0  154.1    0.0
 1993 009   163  30.70  26.90  16.00  6.972  6.972  5.253  1.719  0.000  571.1  415.3  155.8    0.0
 1993 010   164  30.90  31.10  16.00  7.373  7.373  5.472  1.901  0.000  578.5  420.8  157.7    0.0
 1993 011   165  31.30  32.20  17.60  7.661  7.342  5.595  1.747  0.000  585.8  426.4  159.5    0.0
 1993 012   166  30.90  32.70  19.60  7.728  7.728  5.547  2.181  0.000  593.5  431.9  161.6    0.0
 1993 013   167  22.70  33.00  20.70  5.751  5.751  4.052  1.699  0.000  599.3  436.0  163.3    0.0
 1993 014   168  17.40  30.10  22.30  4.332  4.224  2.993  1.232  0.000  603.5  438.9  164.6    0.0
 1993 015   169  26.90  30.80  22.50  6.771  6.771  4.582  2.190  0.000  610.3  443.5  166.8    0.0
 1993 016   170  17.50  28.50  22.00  4.282  4.282  2.897  1.385  0.000  614.6  446.4  168.1    0.0
 1993 017   171  25.50  23.30  16.60  5.639  5.639  3.816  1.824  0.000  620.2  450.2  170.0    0.0
 1993 018   172  25.10  24.80  11.70  5.432  4.970  3.675  1.295  0.000  625.2  453.9  171.3    0.0
