*SIMULATION OVERVIEW FILE

*DSSAT Cropping System Model Ver. 4.0.2.000               Aug 03, 2016; 15:30:22
                                                                                
*RUN   1        : UYMZ                                                          
 MODEL          : MZCER040 - MAIZE                                              
 EXPERIMENT     : UYMZ0129 SN late to create DSS                                
 TREATMENT  1   : UYMZ                                                          
                                                                                
 CROP           : MAIZE          CULTIVAR : CMEDIO UY        ECOTYPE :IB0001    
 STARTING DATE  : JUL 31 1990                                                   
 PLANTING DATE  : AUG  3 1990    PLANTS/m2 :  7.0     ROW SPACING :  15.cm      
 WEATHER        : UYTA   1990                                                   
 SOIL           : UYSS0N2002     TEXTURE :       -  N20-02    SNIA CLAY RISS    
 SOIL INITIAL C : DEPTH:125cm EXTR. H2O:186.3mm  NO3: 74.8kg/ha  NH4: 23.9kg/ha 
 WATER BALANCE  : AUTOMATIC IRRIGATION - REFILL PROFILE                         
 IRRIGATION     : AUTOMATIC - PLANTING -> MATURITY [ SOIL DEPTH:30.00m 50.%]    
 NITROGEN BAL.  : SOIL-N & N-UPTAKE SIMULATION; NO N-FIXATION                   
 N-FERTILIZER   :       46 kg/ha IN     3 APPLICATIONS                          
 RESIDUE/MANURE : INITIAL :     0 kg/ha ;       0 kg/ha IN     0 APPLICATIONS   
 ENVIRONM. OPT. : DAYL=    0.00  SRAD=    0.00  TMAX=    0.00  TMIN=    0.00    
                  RAIN=    0.00  CO2 = R330.00  DEW =    0.00  WIND=    0.00    
 SIMULATION OPT : WATER   :Y  NITROGEN:Y  N-FIX:N  PHOSPH :N  PESTS  :N         
                  PHOTO   :C  ET      :R  INFIL:S  HYDROL :R  SOM    :G         
 MANAGEMENT OPT : PLANTING:R  IRRIG   :A  FERT :D  RESIDUE:N  HARVEST:M  WTH:M  
                                                                                
*SUMMARY OF SOIL AND GENETIC INPUT PARAMETERS                                   
                                                                                
   SOIL LOWER UPPER   SAT  EXTR  INIT   ROOT   BULK     pH    NO3    NH4    ORG 
  DEPTH LIMIT LIMIT    SW    SW    SW   DIST   DENS                          C  
   cm   cm3/cm3    cm3/cm3    cm3/cm3         g/cm3         ugN/g  ugN/g     %  
------------------------------------------------------------------------------- 
  0-  5 0.331 0.542 0.585 0.211 0.394   1.00   1.11   6.50  15.00   1.50   2.74 
  5- 15 0.331 0.542 0.585 0.211 0.394   1.00   1.11   6.50  15.00   1.50   2.74 
 15- 30 0.331 0.542 0.585 0.211 0.394   1.00   1.11   6.50  15.00   1.50   2.74 
 30- 45 0.290 0.438 0.491 0.148 0.334   0.43   1.26   6.50   8.50   1.50   1.07 
 45- 60 0.292 0.431 0.480 0.138 0.375   0.39   1.29   6.27   4.53   1.50   0.90 
 60- 90 0.293 0.419 0.466 0.126 0.419   0.32   1.34   6.00   0.00   1.50   0.64 
 90-108 0.286 0.408 0.460 0.122 0.408   0.23   1.36   6.00   0.00   1.50   0.35 
108-125 0.276 0.395 0.456 0.119 0.395   0.12   1.38   6.00   0.00   1.50   0.14 
                                                                                
TOT-125  37.3  55.9  62.1  18.6  49.1  <--cm   -  kg/ha-->   74.8   23.9 166127 
SOIL ALBEDO    : 0.09      EVAPORATION LIMIT : 6.00         MIN. FACTOR  : 1.00 
RUNOFF CURVE # :10.00      DRAINAGE RATE     : 0.40         FERT. FACTOR : 1.00 
                                                                                
 MAIZE      CULTIVAR :UY0370-CMEDIO UY          ECOTYPE :IB0001                 
 P1     : 280.00  P2     : 0.0000  P5     : 750.00                              
 G2     : 800.00  G3     :  7.500  PHINT  : 38.900                              
                                                                                
                                                                                
                                                                                
*SIMULATED CROP AND SOIL STATUS AT MAIN DEVELOPMENT STAGES

 RUN NO.     1     UYMZ                    

        CROP GROWTH   BIOMASS         LEAF   CROP N     STRESS  
   DATE  AGE STAGE      kg/ha    LAI   NUM  kg/ha  %   H2O    N 
 ------  --- ---------- -----  -----  ----  ---  ---  ----  ----
 31 JUL    0 Start Sim      0   0.00   0.0    0  0.0  0.00  0.00
  3 AUG    0 Sowing         0   0.00   0.0    0  0.0  0.00  0.00
  4 AUG    1 Germinate      0   0.00   0.0    0  0.0  0.00  0.00
 10 AUG    7 Emergence     28   0.00   1.8    1  4.4  0.00  0.00
 26 SEP   54 End Juveni   343   0.36   9.7   13  3.9  0.00  0.00
 30 SEP   58 Floral Ini   503   0.60  10.7   18  3.7  0.00  0.01
 18 NOV  107 75% Silkin  8709   4.14  22.3  129  1.5  0.00  0.04
 30 NOV  119 Beg Gr Fil 11012   3.87  22.3  136  1.2  0.00  0.04
 11 JAN  161 End Gr Fil 21080   1.62  22.3  167  0.8  0.00  0.23
 14 JAN  164 Maturity   21080   1.62  22.3  167  0.8  0.00  0.58
 14 JAN  164 Harvest    21080   1.62  22.3  167  0.8  0.00  0.00


*MAIN GROWTH AND DEVELOPMENT VARIABLES

@     VARIABLE                          SIMULATED     MEASURED
      --------                          ---------     --------
      Anthesis day (dap)                      107          -99
      Physiological maturity day (dap)        164          -99
      Yield at harvest maturity (kg [dm]/   11035          -99
      Number at maturity (no/m2)             4205          -99
      Unit wt at maturity (g [dm]/unit)    0.2624          -99
      Number at maturity (no/unit)          600.7          -99
      Tops weight at maturity (kg [dm]/ha   21080          -99
      By-product produced (stalk) at matu   10127          -99
      Leaf area index, maximum               4.19          -99
      Harvest index at maturity             0.523          -99
      Grain N at maturity (kg/ha)             126          -99
      Tops N at maturity (kg/ha)              167          -99
      Stem N at maturity (kg/ha)               41          -99
      Grain N at maturity (%)                 1.1          -99
      Tops weight at anthesis (kg [dm]/ha    8497          -99
      Tops N at anthesis (kg/ha)              128          -99
      Leaf number per stem at maturity      22.31          -99


*ENVIRONMENTAL AND STRESS FACTORS

 |-----Development Phase------|-------------Environment--------------|---------Stress----------|
                              |--------Average-------|---Cumulative--|  (0=Min, 1=Max Stress)  |
                         Time  Temp  Temp Solar Photop         Evapo |----Water---|--Nitrogen--|
                         Span   Max   Min   Rad  [day]   Rain  Trans  Photo         Photo
                         days    øC    øC MJ/m2     hr     mm     mm  synth Growth  synth Growth
------------------------------------------------------------------------------------------------
 Emergence-End Juvenile    47  18.8   7.9  13.6  11.36  160.0   83.5  0.000  0.000  0.002  0.001
 End Juvenil-Floral Init    4  20.6   7.3  18.7  12.19    0.0    6.5  0.000  0.000  0.001  0.000
 Floral Init-End Lf Grow   49  24.1  13.8  19.1  13.01  238.4  189.9  0.000  0.000  0.089  0.035
 End Lf Grth-Beg Grn Fil   12  27.6  15.6  26.2  13.79   22.2   70.2  0.000  0.000  0.124  0.049
 Grain Filling Phase       42  26.8  14.9  24.3  14.02  263.5  222.9  0.000  0.000  0.411  0.219

                     Maize YIELD :    11035 kg/ha    [Dry weight] 

************************************************************************************************

*DSSAT Cropping System Model Ver. 4.0.2.000               Aug 03, 2016; 15:30:22
                                                                                
*RUN   2        : UYMZ                                                          
 MODEL          : MZCER040 - MAIZE                                              
 EXPERIMENT     : UYMZ0129 SN late to create DSS                                
 TREATMENT  1   : UYMZ                                                          
                                                                                
 CROP           : MAIZE          CULTIVAR : CMEDIO UY        ECOTYPE :IB0001    
 STARTING DATE  : JUL 31 1990                                                   
 PLANTING DATE  : AUG  3 1990    PLANTS/m2 :  7.0     ROW SPACING :  15.cm      
 WEATHER        : UYTA   1990                                                   
 SOIL           : UYSS0N2002     TEXTURE :       -  N20-02    SNIA CLAY RISS    
 SOIL INITIAL C : DEPTH:125cm EXTR. H2O:186.3mm  NO3: 74.8kg/ha  NH4: 23.9kg/ha 
 WATER BALANCE  : AUTOMATIC IRRIGATION - REFILL PROFILE                         
 IRRIGATION     : AUTOMATIC - PLANTING -> MATURITY [ SOIL DEPTH:30.00m 50.%]    
 NITROGEN BAL.  : SOIL-N & N-UPTAKE SIMULATION; NO N-FIXATION                   
 N-FERTILIZER   :       46 kg/ha IN     3 APPLICATIONS                          
 RESIDUE/MANURE : INITIAL :     0 kg/ha ;       0 kg/ha IN     0 APPLICATIONS   
 ENVIRONM. OPT. : DAYL=    0.00  SRAD=    0.00  TMAX=    0.00  TMIN=    0.00    
                  RAIN=    0.00  CO2 = R330.00  DEW =    0.00  WIND=    0.00    
 SIMULATION OPT : WATER   :Y  NITROGEN:Y  N-FIX:N  PHOSPH :N  PESTS  :N         
                  PHOTO   :C  ET      :R  INFIL:S  HYDROL :R  SOM    :G         
 MANAGEMENT OPT : PLANTING:R  IRRIG   :A  FERT :D  RESIDUE:N  HARVEST:M  WTH:M  
                                                                                
*SUMMARY OF SOIL AND GENETIC INPUT PARAMETERS                                   
                                                                                
   SOIL LOWER UPPER   SAT  EXTR  INIT   ROOT   BULK     pH    NO3    NH4    ORG 
  DEPTH LIMIT LIMIT    SW    SW    SW   DIST   DENS                          C  
   cm   cm3/cm3    cm3/cm3    cm3/cm3         g/cm3         ugN/g  ugN/g     %  
------------------------------------------------------------------------------- 
  0-  5 0.331 0.542 0.585 0.211 0.394   1.00   1.11   6.50  15.00   1.50   2.74 
  5- 15 0.331 0.542 0.585 0.211 0.394   1.00   1.11   6.50  15.00   1.50   2.74 
 15- 30 0.331 0.542 0.585 0.211 0.394   1.00   1.11   6.50  15.00   1.50   2.74 
 30- 45 0.290 0.438 0.491 0.148 0.334   0.43   1.26   6.50   8.50   1.50   1.07 
 45- 60 0.292 0.431 0.480 0.138 0.375   0.39   1.29   6.27   4.53   1.50   0.90 
 60- 90 0.293 0.419 0.466 0.126 0.419   0.32   1.34   6.00   0.00   1.50   0.64 
 90-108 0.286 0.408 0.460 0.122 0.408   0.23   1.36   6.00   0.00   1.50   0.35 
108-125 0.276 0.395 0.456 0.119 0.395   0.12   1.38   6.00   0.00   1.50   0.14 
                                                                                
TOT-125  37.3  55.9  62.1  18.6  49.1  <--cm   -  kg/ha-->   74.8   23.9 166127 
SOIL ALBEDO    : 0.09      EVAPORATION LIMIT : 6.00         MIN. FACTOR  : 1.00 
RUNOFF CURVE # :10.00      DRAINAGE RATE     : 0.40         FERT. FACTOR : 1.00 
                                                                                
 MAIZE      CULTIVAR :UY0370-CMEDIO UY          ECOTYPE :IB0001                 
 P1     : 280.00  P2     : 0.0000  P5     : 750.00                              
 G2     : 800.00  G3     :  7.500  PHINT  : 38.900                              
                                                                                
                                                                                
                                                                                
*SIMULATED CROP AND SOIL STATUS AT MAIN DEVELOPMENT STAGES

 RUN NO.     2     UYMZ                    

        CROP GROWTH   BIOMASS         LEAF   CROP N     STRESS  
   DATE  AGE STAGE      kg/ha    LAI   NUM  kg/ha  %   H2O    N 
 ------  --- ---------- -----  -----  ----  ---  ---  ----  ----
 31 JUL    0 Start Sim      0   0.00   0.0    0  0.0  0.00  0.00
  3 AUG    0 Sowing         0   0.00   0.0    0  0.0  0.00  0.00
  4 AUG    1 Germinate      0   0.00   0.0    0  0.0  0.00  0.00
 16 AUG   13 Emergence     28   0.00   2.0    1  4.4  0.00  0.00
 14 SEP   42 End Juveni   366   0.67   9.9   14  3.9  0.00  0.00
 18 SEP   46 Floral Ini   498   0.85  10.7   18  3.7  0.00  0.01
 19 NOV  108 75% Silkin  8163   3.61  22.1  117  1.4  0.00  0.04
  3 DEC  122 Beg Gr Fil 10623   3.29  22.1  124  1.2  0.00  0.05
  9 JAN  159 End Gr Fil 19376   1.64  22.1  155  0.8  0.00  0.19
 11 JAN  161 Maturity   19376   1.64  22.1  155  0.8  0.00  0.47
 11 JAN  161 Harvest    19376   1.64  22.1  155  0.8  0.00  0.00


*MAIN GROWTH AND DEVELOPMENT VARIABLES

@     VARIABLE                          SIMULATED     MEASURED
      --------                          ---------     --------
      Anthesis day (dap)                      108          -99
      Physiological maturity day (dap)        161          -99
      Yield at harvest maturity (kg [dm]/    9131          -99
      Number at maturity (no/m2)             3525          -99
      Unit wt at maturity (g [dm]/unit)    0.2590          -99
      Number at maturity (no/unit)          503.6          -99
      Tops weight at maturity (kg [dm]/ha   19376          -99
      By-product produced (stalk) at matu   10323          -99
      Leaf area index, maximum               3.69          -99
      Harvest index at maturity             0.471          -99
      Grain N at maturity (kg/ha)             112          -99
      Tops N at maturity (kg/ha)              155          -99
      Stem N at maturity (kg/ha)               43          -99
      Grain N at maturity (%)                 1.2          -99
      Tops weight at anthesis (kg [dm]/ha    8046          -99
      Tops N at anthesis (kg/ha)              117          -99
      Leaf number per stem at maturity      22.15          -99


*ENVIRONMENTAL AND STRESS FACTORS

 |-----Development Phase------|-------------Environment--------------|---------Stress----------|
                              |--------Average-------|---Cumulative--|  (0=Min, 1=Max Stress)  |
                         Time  Temp  Temp Solar Photop         Evapo |----Water---|--Nitrogen--|
                         Span   Max   Min   Rad  [day]   Rain  Trans  Photo         Photo
                         days    øC    øC MJ/m2     hr     mm     mm  synth Growth  synth Growth
------------------------------------------------------------------------------------------------
 Emergence-End Juvenile    29  22.5  12.4  11.9  11.26   26.9   35.7  0.000  0.000  0.003  0.001
 End Juvenil-Floral Init    4  21.9  11.1   9.8  11.79   19.7    6.3  0.000  0.000  0.001  0.000
 Floral Init-End Lf Grow   62  21.7  11.2  17.9  12.84  264.6  222.1  0.000  0.000  0.097  0.039
 End Lf Grth-Beg Grn Fil   14  25.9  14.4  22.0  13.83  123.1   69.2  0.000  0.000  0.144  0.057
 Grain Filling Phase       37  28.0  17.2  22.4  14.03  183.0  189.4  0.000  0.000  0.373  0.177

                     Maize YIELD :     9131 kg/ha    [Dry weight] 

************************************************************************************************

*DSSAT Cropping System Model Ver. 4.0.2.000               Aug 03, 2016; 15:30:22
                                                                                
*RUN   3        : UYMZ                                                          
 MODEL          : MZCER040 - MAIZE                                              
 EXPERIMENT     : UYMZ0129 SN late to create DSS                                
 TREATMENT  1   : UYMZ                                                          
                                                                                
 CROP           : MAIZE          CULTIVAR : CMEDIO UY        ECOTYPE :IB0001    
 STARTING DATE  : JUL 31 1990                                                   
 PLANTING DATE  : AUG  3 1990    PLANTS/m2 :  7.0     ROW SPACING :  15.cm      
 WEATHER        : UYTA   1990                                                   
 SOIL           : UYSS0N2002     TEXTURE :       -  N20-02    SNIA CLAY RISS    
 SOIL INITIAL C : DEPTH:125cm EXTR. H2O:186.3mm  NO3: 74.8kg/ha  NH4: 23.9kg/ha 
 WATER BALANCE  : AUTOMATIC IRRIGATION - REFILL PROFILE                         
 IRRIGATION     : AUTOMATIC - PLANTING -> MATURITY [ SOIL DEPTH:30.00m 50.%]    
 NITROGEN BAL.  : SOIL-N & N-UPTAKE SIMULATION; NO N-FIXATION                   
 N-FERTILIZER   :       46 kg/ha IN     3 APPLICATIONS                          
 RESIDUE/MANURE : INITIAL :     0 kg/ha ;       0 kg/ha IN     0 APPLICATIONS   
 ENVIRONM. OPT. : DAYL=    0.00  SRAD=    0.00  TMAX=    0.00  TMIN=    0.00    
                  RAIN=    0.00  CO2 = R330.00  DEW =    0.00  WIND=    0.00    
 SIMULATION OPT : WATER   :Y  NITROGEN:Y  N-FIX:N  PHOSPH :N  PESTS  :N         
                  PHOTO   :C  ET      :R  INFIL:S  HYDROL :R  SOM    :G         
 MANAGEMENT OPT : PLANTING:R  IRRIG   :A  FERT :D  RESIDUE:N  HARVEST:M  WTH:M  
                                                                                
*SUMMARY OF SOIL AND GENETIC INPUT PARAMETERS                                   
                                                                                
   SOIL LOWER UPPER   SAT  EXTR  INIT   ROOT   BULK     pH    NO3    NH4    ORG 
  DEPTH LIMIT LIMIT    SW    SW    SW   DIST   DENS                          C  
   cm   cm3/cm3    cm3/cm3    cm3/cm3         g/cm3         ugN/g  ugN/g     %  
------------------------------------------------------------------------------- 
  0-  5 0.331 0.542 0.585 0.211 0.394   1.00   1.11   6.50  15.00   1.50   2.74 
  5- 15 0.331 0.542 0.585 0.211 0.394   1.00   1.11   6.50  15.00   1.50   2.74 
 15- 30 0.331 0.542 0.585 0.211 0.394   1.00   1.11   6.50  15.00   1.50   2.74 
 30- 45 0.290 0.438 0.491 0.148 0.334   0.43   1.26   6.50   8.50   1.50   1.07 
 45- 60 0.292 0.431 0.480 0.138 0.375   0.39   1.29   6.27   4.53   1.50   0.90 
 60- 90 0.293 0.419 0.466 0.126 0.419   0.32   1.34   6.00   0.00   1.50   0.64 
 90-108 0.286 0.408 0.460 0.122 0.408   0.23   1.36   6.00   0.00   1.50   0.35 
108-125 0.276 0.395 0.456 0.119 0.395   0.12   1.38   6.00   0.00   1.50   0.14 
                                                                                
TOT-125  37.3  55.9  62.1  18.6  49.1  <--cm   -  kg/ha-->   74.8   23.9 166127 
SOIL ALBEDO    : 0.09      EVAPORATION LIMIT : 6.00         MIN. FACTOR  : 1.00 
RUNOFF CURVE # :10.00      DRAINAGE RATE     : 0.40         FERT. FACTOR : 1.00 
                                                                                
 MAIZE      CULTIVAR :UY0370-CMEDIO UY          ECOTYPE :IB0001                 
 P1     : 280.00  P2     : 0.0000  P5     : 750.00                              
 G2     : 800.00  G3     :  7.500  PHINT  : 38.900                              
                                                                                
                                                                                
                                                                                
*SIMULATED CROP AND SOIL STATUS AT MAIN DEVELOPMENT STAGES

 RUN NO.     3     UYMZ                    

        CROP GROWTH   BIOMASS         LEAF   CROP N     STRESS  
   DATE  AGE STAGE      kg/ha    LAI   NUM  kg/ha  %   H2O    N 
 ------  --- ---------- -----  -----  ----  ---  ---  ----  ----
 30 JUL    0 Start Sim      0   0.00   0.0    0  0.0  0.00  0.00
  2 AUG    0 Sowing         0   0.00   0.0    0  0.0  0.00  0.00
  3 AUG    1 Germinate      0   0.00   0.0    0  0.0  0.00  0.00
 18 AUG   16 Emergence     28   0.00   1.8    1  4.4  0.00  0.00
 26 SEP   55 End Juveni   309   0.41   9.5   13  4.1  0.00  0.00
 30 SEP   59 Floral Ini   439   0.60  10.3   16  3.7  0.00  0.01
 26 NOV  116 75% Silkin  8675   3.57  21.8  126  1.5  0.00  0.04
 10 DEC  130 Beg Gr Fil 11355   3.30  21.8  139  1.2  0.00  0.05
 15 JAN  166 End Gr Fil 19774   1.65  21.8  157  0.8  0.00  0.20
 18 JAN  169 Maturity   19774   1.65  21.8  157  0.8  0.00  0.52
 18 JAN  169 Harvest    19774   1.65  21.8  157  0.8  0.00  0.00


*MAIN GROWTH AND DEVELOPMENT VARIABLES

@     VARIABLE                          SIMULATED     MEASURED
      --------                          ---------     --------
      Anthesis day (dap)                      116          -99
      Physiological maturity day (dap)        169          -99
      Yield at harvest maturity (kg [dm]/    9756          -99
      Number at maturity (no/m2)             3831          -99
      Unit wt at maturity (g [dm]/unit)    0.2547          -99
      Number at maturity (no/unit)          547.3          -99
      Tops weight at maturity (kg [dm]/ha   19774          -99
      By-product produced (stalk) at matu   10100          -99
      Leaf area index, maximum               3.62          -99
      Harvest index at maturity             0.493          -99
      Grain N at maturity (kg/ha)             117          -99
      Tops N at maturity (kg/ha)              157          -99
      Stem N at maturity (kg/ha)               40          -99
      Grain N at maturity (%)                 1.2          -99
      Tops weight at anthesis (kg [dm]/ha    8513          -99
      Tops N at anthesis (kg/ha)              126          -99
      Leaf number per stem at maturity      21.79          -99


*ENVIRONMENTAL AND STRESS FACTORS

 |-----Development Phase------|-------------Environment--------------|---------Stress----------|
                              |--------Average-------|---Cumulative--|  (0=Min, 1=Max Stress)  |
                         Time  Temp  Temp Solar Photop         Evapo |----Water---|--Nitrogen--|
                         Span   Max   Min   Rad  [day]   Rain  Trans  Photo         Photo
                         days    øC    øC MJ/m2     hr     mm     mm  synth Growth  synth Growth
------------------------------------------------------------------------------------------------
 Emergence-End Juvenile    39  20.1   9.5  14.1  11.52   44.6   55.9  0.000  0.000  0.002  0.001
 End Juvenil-Floral Init    4  17.0   3.8  21.6  12.22   17.0   13.4  0.000  0.000  0.000  0.000
 Floral Init-End Lf Grow   57  23.6  10.3  22.2  13.15  109.6  250.6  0.000  0.000  0.089  0.036
 End Lf Grth-Beg Grn Fil   14  27.1  14.3  24.5  13.95   64.0   75.2  0.000  0.000  0.128  0.051
 Grain Filling Phase       36  28.2  17.1  22.3  14.02  245.1  184.8  0.000  0.000  0.381  0.186

                     Maize YIELD :     9756 kg/ha    [Dry weight] 

************************************************************************************************
