*GROWTH ASPECTS OUTPUT FILE

*DSSAT Cropping System Model Ver. 4.0.2.000               Aug 03, 2016; 15:30:22

*RUN   1        : UYMZ                    
 MODEL          : MZCER040 - Maize           
 EXPERIMENT     : UYMZ0129 MZ    late to create DSS                             
 TREATMENT  1   : UYMZ                    

@YEAR DOY   DAS   DAP   L#SD   GSTD   LAID   LWAD   SWAD   GWAD   RWAD   CWAD   G#AD   GWGD   HIAD   PWAD   P#AD   WSPD   WSGD   NSTD   EWSD   LN%D   SH%D   HIPD   PWDD   PWTD     SLAD   CHTD   CWID   RDPD   RL1D   RL2D   RL3D   RL4D   RL5D   RL6D   RL7D   RL8D   RL9D   RL10   CDAD   LDAD   SDAD   SNW0C   SNW1C
 1990 215     3     0    0.0      0   0.00      0      0      0      0      0      0    0.0  0.000      0      0  0.000  0.000  0.000  0.000   0.00   0.00   0.00      0      0      0.0   0.00   0.00   0.03   0.00   0.00   0.00   0.00   0.00   0.00   0.00   0.00   0.00   0.00      0      0      0       0       0
 1990 216     4     1    0.0      0   0.00      0      0      0      0      0      0    0.0  0.000      0      0  0.000  0.000  0.000  0.000   0.00   0.00   0.00      0      0      0.0   0.00   0.00   0.04   0.00   0.00   0.00   0.00   0.00   0.00   0.00   0.00   0.00   0.00      0      0      0       0       0
 1990 217     5     2    0.0      0   0.00      0      0      0      0      0      0    0.0  0.000      0      0  0.000  0.000  0.000  0.000   0.00   0.00   0.00      0      0      0.0   0.00   0.00   0.05   0.00   0.00   0.00   0.00   0.00   0.00   0.00   0.00   0.00   0.00      0      0      0       0       0
 1990 218     6     3    0.0      0   0.00      0      0      0      0      0      0    0.0  0.000      0      0  0.000  0.000  0.000  0.000   0.00   0.00   0.00      0      0      0.0   0.00   0.00   0.07   0.00   0.00   0.00   0.00   0.00   0.00   0.00   0.00   0.00   0.00      0      0      0       0       0
 1990 219     7     4    0.0      0   0.00      0      0      0      0      0      0    0.0  0.000      0      0  0.000  0.000  0.000  0.000   0.00   0.00   0.00      0      0      0.0   0.00   0.00   0.09   0.00   0.00   0.00   0.00   0.00   0.00   0.00   0.00   0.00   0.00      0      0      0       0       0
 1990 220     8     5    0.0      0   0.00      0      0      0      0      0      0    0.0  0.000      0      0  0.000  0.000  0.000  0.000   0.00   0.00   0.00      0      0      0.0   0.00   0.00   0.10   0.00   0.00   0.00   0.00   0.00   0.00   0.00   0.00   0.00   0.00      0      0      0       0       0
 1990 221     9     6    0.0      0   0.00      0      0      0      0      0      0    0.0  0.000      0      0  0.000  0.000  0.000  0.000   0.00   0.00   0.00      0      0      0.0   0.00   0.00   0.12   0.00   0.00   0.00   0.00   0.00   0.00   0.00   0.00   0.00   0.00      0      0      0       0       0
 1990 222    10     7    1.0      1   0.00     14     14      0     14     28      0    0.0  0.000      0      0  0.000  0.000  0.012  0.000   4.40   0.00   0.00      0      0     16.3   0.00   0.00   0.12   0.28   0.09   0.00   0.00   0.00   0.00   0.00   0.00   0.00   0.00      0      0      0       0       0
 1990 223    11     8    2.0      1   0.01     14     14      0     14     28      0    0.0  0.000      0      0  0.000  0.000  0.016  0.000   4.53   0.00   0.00      0      0     37.3   0.00   0.00   0.14   0.28   0.10   0.00   0.00   0.00   0.00   0.00   0.00   0.00   0.00      0      0      0       0       0
 1990 224    12     9    2.0      1   0.01     14     14      0     15     28      0    0.0  0.000      0      0  0.000  0.000  0.000  0.000   4.50   0.00   0.00      0      0     62.2   0.00   0.00   0.15   0.28   0.11   0.00   0.00   0.00   0.00   0.00   0.00   0.00   0.00      0      0      0       0       0
 1990 225    13    10    3.0      1   0.01     14     14      0     16     28      0    0.0  0.000      0      0  0.000  0.000  0.000  0.000   4.46   0.00   0.00      0      0     90.0   0.00   0.00   0.16   0.29   0.12   0.00   0.00   0.00   0.00   0.00   0.00   0.00   0.00      0      0      0       0       0
 1990 226    14    11    3.0      1   0.02     14     14      0     16     28      0    0.0  0.000      0      0  0.000  0.000  0.000  0.000   4.46   0.00   0.00      0      0    118.1   0.00   0.00   0.18   0.30   0.13   0.00   0.00   0.00   0.00   0.00   0.00   0.00   0.00      0      0      0       0       0
 1990 227    15    12    3.0      1   0.02     14     14      0     17     28      0    0.0  0.000      0      0  0.000  0.000  0.000  0.000   4.42   0.00   0.00      0      0    130.2   0.00   0.00   0.18   0.30   0.14   0.00   0.00   0.00   0.00   0.00   0.00   0.00   0.00      0      0      0       0       0
 1990 228    16    13    3.0      1   0.02     14     14      0     20     28      0    0.0  0.000      0      0  0.000  0.000  0.000  0.000   4.40   0.00   0.00      0      0    145.1   0.00   0.00   0.19   0.31   0.16   0.01   0.00   0.00   0.00   0.00   0.00   0.00   0.00      0      0      0       0       0
 1990 229    17    14    4.0      1   0.03     14     14      0     23     28      0    0.0  0.000      0      0  0.000  0.000  0.000  0.002   4.38   0.00   0.00      0      0    202.6   0.00   0.00   0.20   0.32   0.20   0.02   0.00   0.00   0.00   0.00   0.00   0.00   0.00      0      0      0       0       0
 1990 230    18    15    4.0      1   0.04     14     14      0     27     28      0    0.0  0.000      0      0  0.000  0.000  0.000  0.000   4.37   0.00   0.00      0      0    255.0   0.00   0.00   0.20   0.34   0.24   0.04   0.00   0.00   0.00   0.00   0.00   0.00   0.00      0      0      0       0       1
 1990 231    19    16    4.0      1   0.05     14     14      0     30     28      0    0.0  0.000      0      0  0.000  0.000  0.000  0.000   4.35   0.00   0.00      0      0    328.1   0.00   0.00   0.21   0.35   0.28   0.06   0.00   0.00   0.00   0.00   0.00   0.00   0.00      0      0      0       0       1
 1990 232    20    17    4.0      1   0.06     17     14      0     36     31      0    0.0  0.000      0      0  0.000  0.000  0.000  0.000   3.87   0.00   0.00      0      0    328.7   0.00   0.00   0.22   0.38   0.33   0.08   0.00   0.00   0.00   0.00   0.00   0.00   0.00      0      0      0       0       1
 1990 233    21    18    4.0      1   0.07     21     14      0     41     35      0    0.0  0.000      0      0  0.000  0.000  0.000  0.000   3.86   0.00   0.00      0      0    316.1   0.00   0.00   0.22   0.41   0.38   0.11   0.00   0.00   0.00   0.00   0.00   0.00   0.00      0      0      0       0       1
 1990 234    22    19    5.0      1   0.08     25     14      0     46     39      0    0.0  0.000      0      0  0.000  0.000  0.000  0.000   3.90   0.00   0.00      0      0    306.2   0.00   0.00   0.23   0.43   0.42   0.14   0.00   0.00   0.00   0.00   0.00   0.00   0.00      0      0      0       0       1
 1990 235    23    20    5.0      1   0.08     26     14      0     52     40      0    0.0  0.000      0      0  0.000  0.000  0.000  0.000   4.10   0.00   0.00      0      0    294.5   0.00   0.00   0.23   0.47   0.47   0.17   0.00   0.00   0.00   0.00   0.00   0.00   0.00      0      0      0       0       1
 1990 236    24    21    5.0      1   0.08     29     14      0     57     43      0    0.0  0.000      0      0  0.000  0.000  0.000  0.000   4.05   0.00   0.00      0      0    275.0   0.00   0.00   0.24   0.50   0.51   0.19   0.00   0.00   0.00   0.00   0.00   0.00   0.00      0      0      0       0       2
 1990 237    25    22    5.0      1   0.10     36     14      0     62     50      0    0.0  0.000      0      0  0.000  0.000  0.000  0.000   3.63   0.00   0.00      0      0    266.8   0.00   0.00   0.25   0.55   0.55   0.22   0.00   0.00   0.00   0.00   0.00   0.00   0.00      0      0      0       0       2
 1990 238    26    23    5.0      1   0.12     46     14      0     70     60      0    0.0  0.000      0      0  0.000  0.000  0.000  0.000   3.53   0.00   0.00      0      0    257.6   0.00   0.00   0.26   0.61   0.60   0.26   0.00   0.00   0.00   0.00   0.00   0.00   0.00      0      0      0       0       2
 1990 239    27    24    5.0      1   0.12     49     14      0     73     63      0    0.0  0.000      0      0  0.000  0.000  0.000  0.000   4.00   0.00   0.00      0      0    254.3   0.00   0.00   0.26   0.60   0.59   0.27   0.00   0.00   0.00   0.00   0.00   0.00   0.00      0      0      0       0       3
 1990 240    28    25    5.0      1   0.11     49     14      0     76     63      0    0.0  0.000      0      0  0.000  0.000  0.000  0.000   4.22   0.00   0.00      0      0    213.6   0.00   0.00   0.26   0.58   0.57   0.27   0.00   0.00   0.00   0.00   0.00   0.00   0.00      0      0      0       0       3
 1990 241    29    26    6.0      1   0.05     50     14      0     82     64      0    0.0  0.000      0      0  0.000  0.000  0.000  0.146   4.14   0.00   0.00      0      0    102.9   0.00   0.00   0.26   0.60   0.60   0.29   0.00   0.00   0.00   0.00   0.00   0.00   0.00      0      0      0       0       3
 1990 242    30    27    6.0      1   0.06     55     14      0     86     69      0    0.0  0.000      0      0  0.000  0.000  0.000  0.061   3.84   0.00   0.00      0      0    102.1   0.00   0.00   0.27   0.62   0.62   0.31   0.00   0.00   0.00   0.00   0.00   0.00   0.00      0      0      0       0       3
 1990 243    31    28    6.0      1   0.06     56     14      0     86     70      0    0.0  0.000      0      0  0.000  0.000  0.008  0.027   4.16   0.00   0.00      0      0    103.3   0.00   0.00   0.27   0.62   0.61   0.31   0.00   0.00   0.00   0.00   0.00   0.00   0.00      0      0      0       0       3
 1990 244    32    29    6.0      1   0.04     56     14      0     87     70      0    0.0  0.000      0      0  0.000  0.000  0.000  0.000   4.20   0.00   0.00      0      0     75.4   0.00   0.00   0.27   0.62   0.61   0.31   0.00   0.00   0.00   0.00   0.00   0.00   0.00      0      0      0       0       4
 1990 245    33    30    6.0      1   0.01     56     14      0     87     70      0    0.0  0.000      0      0  0.000  0.000  0.000  0.000   4.19   0.00   0.00      0      0     23.6   0.00   0.00   0.27   0.62   0.61   0.32   0.00   0.00   0.00   0.00   0.00   0.00   0.00      0      0      0       0       4
 1990 246    34    31    6.0      1   0.02     59     14      0     87     73      0    0.0  0.000      0      0  0.000  0.000  0.000  0.000   4.01   0.00   0.00      0      0     29.0   0.00   0.00   0.27   0.62   0.61   0.32   0.00   0.00   0.00   0.00   0.00   0.00   0.00      0      0      0       0       4
 1990 247    35    32    6.0      1   0.03     64     14      0     87     78      0    0.0  0.000      0      0  0.000  0.000  0.000  0.000   3.97   0.00   0.00      0      0     40.3   0.00   0.00   0.28   0.62   0.61   0.31   0.00   0.00   0.00   0.00   0.00   0.00   0.00      0      0      0       0       5
 1990 248    36    33    6.0      1   0.04     73     14      0     87     87      0    0.0  0.000      0      0  0.000  0.000  0.000  0.000   3.72   0.00   0.00      0      0     60.9   0.00   0.00   0.28   0.62   0.61   0.31   0.00   0.00   0.00   0.00   0.00   0.00   0.00      0      0      0       0       5
 1990 249    37    34    6.0      1   0.06     75     14      0     87     89      0    0.0  0.000      0      0  0.000  0.000  0.000  0.000   4.04   0.00   0.00      0      0     82.1   0.00   0.00   0.29   0.62   0.61   0.32   0.00   0.00   0.00   0.00   0.00   0.00   0.00      0      0      0       0       6
 1990 250    38    35    6.0      1   0.07     79     14      0     87     93      0    0.0  0.000      0      0  0.000  0.000  0.000  0.000   3.98   0.00   0.00      0      0     87.9   0.00   0.00   0.30   0.62   0.61   0.32   0.00   0.00   0.00   0.00   0.00   0.00   0.00      0      0      0       0       6
 1990 251    39    36    7.0      1   0.08     82     14      0     87     96      0    0.0  0.000      0      0  0.000  0.000  0.000  0.000   4.00   0.00   0.00      0      0     92.4   0.00   0.00   0.30   0.57   0.57   0.30   0.00   0.00   0.00   0.00   0.00   0.00   0.00      0      0      0       0       6
 1990 252    40    37    7.0      1   0.10    100     14      0     90    114      0    0.0  0.000      0      0  0.000  0.000  0.000  0.160   3.45   0.00   0.00      0      0     96.8   0.00   0.00   0.31   0.57   0.57   0.31   0.00   0.00   0.00   0.00   0.00   0.00   0.00      0      0      0       0       7
 1990 253    41    38    7.0      1   0.15    118     14      0     93    132      0    0.0  0.000      0      0  0.000  0.000  0.000  0.101   3.51   0.00   0.00      0      0    125.8   0.00   0.00   0.32   0.58   0.58   0.32   0.00   0.00   0.00   0.00   0.00   0.00   0.00      0      0      0       0       7
 1990 254    42    39    7.0      1   0.18    135     14      0     96    149      0    0.0  0.000      0      0  0.000  0.000  0.000  0.204   3.59   0.00   0.00      0      0    134.1   0.00   0.00   0.32   0.55   0.56   0.32   0.00   0.00   0.00   0.00   0.00   0.00   0.00      0      0      0       0       8
 1990 255    43    40    7.0      1   0.19    150     14      0    101    164      0    0.0  0.000      0      0  0.000  0.000  0.000  0.142   3.68   0.00   0.00      0      0    123.8   0.00   0.00   0.32   0.56   0.57   0.35   0.00   0.00   0.00   0.00   0.00   0.00   0.00      0      0      0       0       8
 1990 256    44    41    7.0      1   0.17    152     14      0    108    166      0    0.0  0.000      0      0  0.000  0.000  0.000  0.092   4.01   0.00   0.00      0      0    110.8   0.00   0.00   0.32   0.57   0.61   0.40   0.01   0.00   0.00   0.00   0.00   0.00   0.00      0      0      0       0       9
 1990 257    45    42    7.0      1   0.12    155     14      0    118    169      0    0.0  0.000      0      0  0.000  0.000  0.000  0.037   3.96   0.00   0.00      0      0     78.2   0.00   0.00   0.33   0.61   0.67   0.46   0.01   0.00   0.00   0.00   0.00   0.00   0.00      0      0      0       0       9
 1990 258    46    43    8.0      1   0.13    164     14      0    131    178      0    0.0  0.000      0      0  0.000  0.000  0.000  0.000   3.84   0.00   0.00      0      0     77.5   0.00   0.00   0.33   0.67   0.74   0.55   0.02   0.00   0.00   0.00   0.00   0.00   0.00      0      0      0       0      10
 1990 259    47    44    8.0      1   0.16    181     14      0    141    195      0    0.0  0.000      0      0  0.000  0.000  0.000  0.000   3.67   0.00   0.00      0      0     85.9   0.00   0.00   0.34   0.71   0.80   0.62   0.03   0.00   0.00   0.00   0.00   0.00   0.00      0      0      0       0      11
 1990 260    48    45    8.0      1   0.18    195     14      0    145    209      0    0.0  0.000      0      0  0.000  0.000  0.000  0.000   3.72   0.00   0.00      0      0     91.9   0.00   0.00   0.35   0.73   0.83   0.65   0.03   0.00   0.00   0.00   0.00   0.00   0.00      0      0      0       0      11
 1990 261    49    46    8.0      1   0.21    211     14      0    149    225      0    0.0  0.000      0      0  0.000  0.000  0.000  0.000   3.70   0.00   0.00      0      0     97.3   0.00   0.00   0.36   0.69   0.80   0.64   0.03   0.00   0.00   0.00   0.00   0.00   0.00      0      0      0       0      12
 1990 262    50    47    8.0      1   0.23    227     14      0    161    241      0    0.0  0.000      0      0  0.000  0.000  0.000  0.000   3.71   0.00   0.00      0      0    101.8   0.00   0.00   0.37   0.70   0.85   0.71   0.05   0.00   0.00   0.00   0.00   0.00   0.00      0      0      0       0      13
 1990 263    51    48    8.0      1   0.29    243     14      0    163    257      0    0.0  0.000      0      0  0.000  0.000  0.000  0.121   3.71   0.00   0.00      0      0    118.9   0.00   0.00   0.38   0.70   0.85   0.71   0.05   0.00   0.00   0.00   0.00   0.00   0.00      0      0      0       0      14
 1990 264    52    49    9.0      1   0.32    263     14      0    166    277      0    0.0  0.000      0      0  0.000  0.000  0.000  0.061   3.65   0.00   0.00      0      0    122.5   0.00   0.00   0.39   0.70   0.86   0.73   0.05   0.00   0.00   0.00   0.00   0.00   0.00      0      0      0       0      14
 1990 265    53    50    9.0      1   0.35    307     14      0    192    321      0    0.0  0.000      0      0  0.000  0.000  0.000  0.007   3.38   0.00   0.00      0      0    115.4   0.00   0.00   0.40   0.77   1.00   0.90   0.10   0.00   0.00   0.00   0.00   0.00   0.00      0      0      0       0      15
 1990 266    54    51    9.0      1   0.36    313     14      0    213    327      0    0.0  0.000      0      0  0.000  0.000  0.000  0.000   3.83   0.00   0.00      0      0    115.7   0.00   0.00   0.40   0.83   1.11   1.04   0.14   0.00   0.00   0.00   0.00   0.00   0.00      0      0      0       0      16
 1990 267    55    52    9.0      1   0.35    322     14      0    242    336      0    0.0  0.000      0      0  0.000  0.000  0.000  0.000   3.81   0.00   0.00      0      0    107.4   0.00   0.00   0.41   0.92   1.26   1.24   0.20   0.00   0.00   0.00   0.00   0.00   0.00      0      0      0       0      17
 1990 268    56    53    9.0      1   0.33    332     14      0    276    346      0    0.0  0.000      0      0  0.000  0.000  0.000  0.000   3.78   0.00   0.00      0      0     99.5   0.00   0.00   0.41   1.03   1.43   1.46   0.27   0.00   0.00   0.00   0.00   0.00   0.00      0      0      0       0      18
 1990 269    57    54    9.0      2   0.36    329     14      0    335    343      0    0.0  0.000      0      0  0.000  0.000  0.000  0.000   3.91   0.00   0.00      0      0    110.9   0.00   0.00   0.42   1.22   1.74   1.84   0.39   0.00   0.00   0.00   0.00   0.00   0.00      0      0      0       0      20
 1990 270    58    55    9.0      2   0.43    368     14      0    372    382      0    0.0  0.000      0      0  0.000  0.000  0.002  0.000   3.50   0.00   0.00      0      0    115.7   0.00   0.00   0.43   1.34   1.92   2.08   0.48   0.00   0.00   0.00   0.00   0.00   0.00      0      0      0       0      22
 1990 271    59    56   10.0      2   0.47    397     14      0    376    411      0    0.0  0.000      0      0  0.000  0.000  0.000  0.000   3.55   0.00   0.00      0      0    118.5   0.00   0.00   0.44   1.36   1.94   2.10   0.49   0.00   0.00   0.00   0.00   0.00   0.00      0      0      0       0      23
 1990 272    60    57   10.0      2   0.54    441     14      0    418    455      0    0.0  0.000      0      0  0.000  0.000  0.000  0.000   3.78   0.00   0.00      0      0    121.6   0.00   0.00   0.46   1.50   2.14   2.35   0.60   0.00   0.00   0.00   0.00   0.00   0.00      0      0      0       0      25
 1990 273    61    58   10.0      3   0.60    488     14      0    465    503      0    0.0  0.000      0      0  0.000  0.000  0.022  0.000   3.68   0.00   0.00      0      0    122.5   0.00   0.00   0.47   1.65   2.36   2.63   0.72   0.01   0.00   0.00   0.00   0.00   0.00      0      0      0       0      27
 1990 274    62    59   11.0      3   0.70    558     15      0    517    573      0    0.0  0.000      0      0  0.000  0.000  0.022  0.000   3.56   0.00   0.00      0      0    124.7   0.00   0.00   0.49   1.81   2.59   2.93   0.85   0.04   0.00   0.00   0.00   0.00   0.00      0      0      0       0      30
 1990 275    63    60   11.0      3   0.77    612     15      0    599    628      0    0.0  0.000      0      0  0.000  0.000  0.022  0.000   3.53   0.00   0.00      0      0    125.7   0.00   0.00   0.50   2.08   2.96   3.41   1.06   0.09   0.00   0.00   0.00   0.00   0.00      0      0      0       0      32
 1990 276    64    61   11.0      3   0.86    682     17      0    669    699      0    0.0  0.000      0      0  0.000  0.000  0.022  0.000   3.49   0.00   0.00      0      0    126.5   0.00   0.00   0.51   2.30   3.26   3.81   1.23   0.16   0.00   0.00   0.00   0.00   0.00      0      0      0       0      35
 1990 277    65    62   12.0      3   1.02    800     23      0    700    822      0    0.0  0.000      0      0  0.000  0.000  0.022  0.000   3.45   0.00   0.00      0      0    127.1   0.00   0.00   0.53   2.39   3.39   3.98   1.31   0.19   0.00   0.00   0.00   0.00   0.00      0      0      0       0      39
 1990 278    66    63   12.0      3   1.11    872     27      0    701    899      0    0.0  0.000      0      0  0.000  0.000  0.022  0.000   3.41   0.00   0.00      0      0    127.0   0.00   0.00   0.55   2.39   3.39   3.99   1.31   0.20   0.00   0.00   0.00   0.00   0.00      0      0      0       0      42
 1990 279    67    64   12.0      3   1.22    965     35      0    706   1000      0    0.0  0.000      0      0  0.000  0.000  0.022  0.000   3.38   0.00   0.00      0      0    126.7   0.00   0.00   0.56   2.39   3.41   4.00   1.32   0.21   0.00   0.00   0.00   0.00   0.00      0      0      0       0      46
 1990 280    68    65   12.0      3   1.32   1043     44      0    707   1087      0    0.0  0.000      0      0  0.000  0.000  0.022  0.000   3.34   0.00   0.00      0      0    126.3   0.00   0.00   0.57   2.39   3.41   4.00   1.33   0.22   0.00   0.00   0.00   0.00   0.00      0      0      0       0      49
 1990 281    69    66   13.0      3   1.40   1110     53      0    746   1163      0    0.0  0.000      0      0  0.000  0.000  0.022  0.140   3.31   0.00   0.00      0      0    125.8   0.00   0.00   0.59   2.24   3.33   3.97   1.35   0.29   0.00   0.00   0.00   0.00   0.00      0      0      0       0      53
 1990 282    70    67   13.0      3   1.47   1175     62      0    873   1237      0    0.0  0.000      0      0  0.000  0.000  0.022  0.060   3.29   0.00   0.00      0      0    125.3   0.00   0.00   0.60   2.17   3.61   4.00   1.64   0.59   0.00   0.00   0.00   0.00   0.00      0      0      0       0      56
 1990 283    71    68   13.0      3   1.56   1248     75      0    980   1323      0    0.0  0.000      0      0  0.000  0.000  0.022  0.022   3.26   0.00   0.00      0      0    124.7   0.00   0.00   0.61   2.13   3.85   4.00   1.90   0.86   0.00   0.00   0.00   0.00   0.00      0      0      0       0      61
 1990 284    72    69   13.0      3   1.65   1334     94      0    991   1428      0    0.0  0.000      0      0  0.000  0.000  0.022  0.010   3.23   0.00   0.00      0      0    124.0   0.00   0.00   0.62   2.09   3.81   3.99   1.90   0.88   0.00   0.00   0.00   0.00   0.00      0      0      0       0      66
 1990 285    73    70   14.0      3   1.72   1397    108      0   1146   1505      0    0.0  0.000      0      0  0.000  0.000  0.022  0.050   3.21   0.00   0.00      0      0    123.4   0.00   0.00   0.63   1.96   3.88   4.00   2.21   1.26   0.03   0.00   0.00   0.00   0.00      0      0      0       0      71
 1990 286    74    71   14.0      3   1.79   1454    123      0   1312   1577      0    0.0  0.000      0      0  0.000  0.000  0.022  0.040   3.19   0.00   0.00      0      0    122.8   0.00   0.00   0.63   1.89   4.00   4.00   2.62   1.70   0.06   0.00   0.00   0.00   0.00      0      0      0       0      76
 1990 287    75    72   14.0      3   1.87   1532    146      0   1455   1678      0    0.0  0.000      0      0  0.000  0.000  0.022  0.025   3.17   0.00   0.00      0      0    122.1   0.00   0.00   0.64   1.85   4.00   4.00   2.99   2.11   0.11   0.00   0.00   0.00   0.00      0      0      0       0      83
 1990 288    76    73   14.0      3   1.93   1589    164      0   1619   1753      0    0.0  0.000      0      0  0.000  0.000  0.022  0.008   3.15   0.00   0.00      0      0    121.5   0.00   0.00   0.65   1.83   4.00   4.00   3.47   2.62   0.18   0.00   0.00   0.00   0.00      0      0      0       0      90
 1990 289    77    74   14.0      3   1.96   1636    179      0   1800   1815      0    0.0  0.000      0      0  0.000  0.000  0.022  0.003   3.13   0.00   0.00      0      0    120.1   0.00   0.00   0.66   1.82   4.00   4.00   4.00   3.22   0.26   0.00   0.00   0.00   0.00      0      0      0       0      98
 1990 290    78    75   14.0      3   2.03   1699    203      0   1875   1902      0    0.0  0.000      0      0  0.000  0.000  0.022  0.003   3.11   0.00   0.00      0      0    119.5   0.00   0.00   0.67   1.80   4.00   4.00   4.00   3.47   0.31   0.00   0.00   0.00   0.00      0      0      0       0     107
 1990 291    79    76   15.0      3   2.14   1801    245      0   2001   2046      0    0.0  0.000      0      0  0.000  0.000  0.022  0.003   3.08   0.00   0.00      0      0    118.8   0.00   0.00   0.68   1.80   4.00   4.00   4.00   3.90   0.40   0.00   0.00   0.00   0.00      0      0      0       0     117
 1990 292    80    77   15.0      3   2.25   1906    294      0   2063   2200      0    0.0  0.000      0      0  0.000  0.000  0.022  0.003   3.05   0.00   0.00      0      0    118.0   0.00   0.00   0.69   1.79   4.00   4.00   4.00   4.00   0.46   0.00   0.00   0.00   0.00      0      0      0       0     127
 1990 293    81    78   15.0      3   2.36   2014    350      0   2115   2364      0    0.0  0.000      0      0  0.000  0.000  0.022  0.003   3.02   0.00   0.00      0      0    117.2   0.00   0.00   0.70   1.78   4.00   4.00   4.00   4.00   0.52   0.00   0.00   0.00   0.00      0      0      0       0     137
 1990 294    82    79   16.0      3   2.47   2116    410      0   2221   2526      0    0.0  0.000      0      0  0.000  0.000  0.022  0.002   2.99   0.00   0.00      0      0    116.5   0.00   0.00   0.72   1.79   4.00   4.00   4.00   4.00   0.66   0.00   0.00   0.00   0.00      0      0      0       0     148
 1990 295    83    80   16.0      3   2.57   2219    476      0   2371   2694      0    0.0  0.000      0      0  0.000  0.000  0.022  0.000   2.96   0.00   0.00      0      0    115.8   0.00   0.00   0.73   1.82   4.00   4.00   4.00   4.00   0.90   0.00   0.00   0.00   0.00      0      0      0       0     159
 1990 296    84    81   16.0      3   2.68   2326    551      0   2460   2877      0    0.0  0.000      0      0  0.000  0.000  0.022  0.000   2.93   0.00   0.00      0      0    115.0   0.00   0.00   0.74   1.84   4.00   4.00   4.00   4.00   1.08   0.00   0.00   0.00   0.00      0      0      0       0     170
 1990 297    85    82   16.0      3   2.77   2421    624      0   2556   3045      0    0.0  0.000      0      0  0.000  0.000  0.022  0.000   2.90   0.00   0.00      0      0    114.4   0.00   0.00   0.75   1.86   4.00   4.00   4.00   4.00   1.29   0.00   0.00   0.00   0.00      0      0      0       0     183
 1990 298    86    83   17.0      3   2.86   2519    706      0   2586   3225      0    0.0  0.000      0      0  0.000  0.000  0.022  0.000   2.87   0.00   0.00      0      0    113.7   0.00   0.00   0.77   1.87   4.00   4.00   4.00   4.00   1.38   0.00   0.00   0.00   0.00      0      0      0       0     196
 1990 299    87    84   17.0      3   2.99   2652    828      0   2682   3480      0    0.0  0.000      0      0  0.000  0.000  0.022  0.000   2.76   0.00   0.00      0      0    112.9   0.00   0.00   0.78   1.90   4.00   4.00   4.00   4.00   1.63   0.00   0.00   0.00   0.00      0      0      0       0     209
 1990 300    88    85   17.0      3   3.13   2795    974      0   2710   3769      0    0.0  0.000      0      0  0.000  0.000  0.022  0.000   2.64   0.00   0.00      0      0    112.0   0.00   0.00   0.80   1.92   4.00   4.00   4.00   4.00   1.73   0.00   0.00   0.00   0.00      0      0      0       0     222
 1990 301    89    86   18.0      3   3.20   2866   1054      0   2704   3920      0    0.0  0.000      0      0  0.000  0.000  0.022  0.000   2.61   0.00   0.00      0      0    111.5   0.00   0.00   0.81   1.91   3.98   3.98   4.00   4.00   1.75   0.00   0.00   0.00   0.00      0      0      0       0     235
 1990 302    90    87   18.0      3   3.36   3042   1089      0   2703   4131      0    0.0  0.000      0      0  0.000  0.000  0.022  0.000   2.54   0.00   0.00      0      0    110.6   0.00   0.00   0.83   1.91   3.97   3.97   4.00   4.00   1.78   0.00   0.00   0.00   0.00      0      0      0       0     249
 1990 303    91    88   19.0      3   3.58   3271   1320      0   2715   4591      0    0.0  0.000      0      0  0.000  0.000  0.022  0.000   2.33   0.00   0.00      0      0    109.5   0.00   0.00   0.85   1.93   3.98   3.98   4.00   4.00   1.86   0.00   0.00   0.00   0.00      0      0      0       0     262
 1990 304    92    89   19.0      3   3.71   3410   1500      0   2800   4910      0    0.0  0.000      0      0  0.000  0.000  0.025  0.000   2.21   0.00   0.00      0      0    108.7   0.00   0.00   0.86   2.08   4.00   4.00   4.00   4.00   2.20   0.00   0.00   0.00   0.00      0      0      0       0     276
 1990 305    93    90   19.0      3   3.81   3531   1690      0   2855   5221      0    0.0  0.000      0      0  0.000  0.000  0.034  0.000   2.11   0.00   0.00      0      0    107.9   0.00   0.00   0.87   2.21   4.00   4.00   4.00   4.00   2.43   0.00   0.00   0.00   0.00      0      0      0       0     290
 1990 306    94    91   19.0      3   3.89   3638   1880      0   2887   5519      0    0.0  0.000      0      0  0.000  0.000  0.040  0.000   2.02   0.00   0.00      0      0    107.0   0.00   0.00   0.89   2.31   4.00   4.00   4.00   4.00   2.56   0.00   0.00   0.00   0.00      0      0      0       0     304
 1990 307    95    92   20.0      3   3.94   3706   2018      0   2884   5723      0    0.0  0.000      0      0  0.000  0.000  0.046  0.000   1.97   0.00   0.00      0      0    106.2   0.00   0.00   0.91   2.34   4.00   4.00   3.99   3.99   2.57   0.00   0.00   0.00   0.00      0      0      0       0     319
 1990 308    96    93   20.0      3   3.97   3763   2141      0   2980   5904      0    0.0  0.000      0      0  0.000  0.000  0.052  0.000   1.92   0.00   0.00      0      0    105.4   0.00   0.00   0.92   2.66   4.00   4.00   4.00   4.00   2.66   0.25   0.00   0.00   0.00      0      0      0       0     333
 1990 309    97    94   20.0      3   3.97   3795   2212      0   3187   6007      0    0.0  0.000      0      0  0.000  0.000  0.056  0.000   1.92   0.00   0.00      0      0    104.6   0.00   0.00   0.92   3.27   4.00   4.00   4.00   4.00   2.84   0.86   0.00   0.00   0.00      0      0      0       0     348
 1990 310    98    95   20.0      3   3.98   3841   2320      0   3261   6161      0    0.0  0.000      0      0  0.000  0.000  0.058  0.000   1.90   0.00   0.00      0      0    103.7   0.00   0.00   0.93   3.49   4.00   4.00   4.00   4.00   2.90   1.14   0.00   0.00   0.00      0      0      0       0     364
 1990 311    99    96   21.0      3   4.01   3903   2470      0   3362   6373      0    0.0  0.000      0      0  0.000  0.000  0.057  0.000   1.85   0.00   0.00      0      0    102.8   0.00   0.00   0.94   3.77   4.00   4.00   4.00   4.00   2.98   1.57   0.00   0.00   0.00      0      0      0       0     380
 1990 312   100    97   21.0      3   4.02   3942   2568      0   3357   6510      0    0.0  0.000      0      0  0.000  0.000  0.058  0.000   1.83   0.00   0.00      0      0    102.0   0.00   0.00   0.94   3.78   4.00   4.00   3.99   3.99   2.98   1.60   0.00   0.00   0.00      0      0      0       0     397
 1990 313   101    98   21.0      3   4.05   3999   2720      0   3390   6719      0    0.0  0.000      0      0  0.000  0.000  0.061  0.000   1.79   0.00   0.00      0      0    101.2   0.00   0.00   0.95   3.88   4.00   4.00   4.00   4.00   3.00   1.79   0.00   0.00   0.00      0      0      0       0     414
 1990 314   102    99   21.0      3   4.07   4058   2880      0   3466   6937      0    0.0  0.000      0      0  0.000  0.000  0.061  0.000   1.75   0.00   0.00      0      0    100.3   0.00   0.00   0.96   4.00   4.00   4.00   4.00   4.00   3.06   2.14   0.00   0.00   0.00      0      0      0       0     431
 1990 315   103   100   22.0      3   4.10   4122   3065      0   3549   7187      0    0.0  0.000      0      0  0.000  0.000  0.063  0.000   1.71   0.00   0.00      0      0     99.4   0.00   0.00   0.98   4.00   4.00   4.00   4.00   4.00   3.12   2.53   0.00   0.00   0.00      0      0      0       0     448
 1990 316   104   101   22.0      3   4.11   4176   3219      0   3543   7395      0    0.0  0.000      0      0  0.000  0.000  0.067  0.000   1.67   0.00   0.00      0      0     98.5   0.00   0.00   0.99   4.00   4.00   4.00   3.99   3.99   3.11   2.56   0.00   0.00   0.00      0      0      0       0     466
 1990 317   105   102   22.0      3   4.16   4267   3476      0   3604   7743      0    0.0  0.000      0      0  0.000  0.000  0.069  0.000   1.61   0.00   0.00      0      0     97.6   0.00   0.00   1.01   4.00   4.00   4.00   4.00   4.00   3.16   2.85   0.00   0.00   0.00      0      0      0       0     484
 1990 318   106   103   22.0      3   4.19   4337   3677      0   3601   8014      0    0.0  0.000      0      0  0.000  0.000  0.071  0.000   1.56   0.00   0.00      0      0     96.7   0.00   0.00   1.02   4.00   4.00   4.00   4.00   3.99   3.15   2.89   0.00   0.00   0.00      0      0      0       0     502
 1990 319   107   104   22.0      3   4.19   4375   3784      0   3591   8159      0    0.0  0.000      0      0  0.000  0.000  0.077  0.000   1.55   0.00   0.00      0      0     95.7   0.00   0.00   1.04   4.00   4.00   4.00   3.98   3.98   3.14   2.90   0.00   0.00   0.00      0      0      0       0     520
 1990 320   108   105   22.0      3   4.18   4418   3906      0   3655   8323      0    0.0  0.000      0      0  0.000  0.000  0.082  0.000   1.53   0.00   0.00      0      0     94.7   0.00   0.00   1.04   4.00   4.00   4.00   4.00   4.00   3.20   3.13   0.00   0.00   0.00      0      0      0       0     538
 1990 321   109   106   22.0      3   4.18   4463   4034      0   3818   8497      0    0.0  0.000      0      0  0.000  0.000  0.083  0.000   1.50   0.00   0.00      0      0     93.7   0.00   0.00   1.05   4.00   4.00   4.00   4.00   4.00   3.35   3.54   0.00   0.00   0.00      0      0      0       0     556
 1990 322   110   107   22.0      4   4.14   4418   3434      0   3931   8709      0    0.0  0.000    857      0  0.000  0.000  0.084  0.006   1.64   0.00   0.10      0    857     93.6   0.00   0.00   1.07   4.00   4.00   4.00   4.00   4.00   3.47   3.76   0.00   0.00   0.00      0      0      0       0     575
 1990 323   111   108   22.0      4   4.10   4369   3530      0   3997   8997      0    0.0  0.000   1098      0  0.000  0.000  0.082  0.000   1.64   0.00   0.12      0   1098     93.7   0.00   0.00   1.09   4.00   4.00   4.00   4.00   4.00   3.54   3.84   0.00   0.00   0.00      0      0      0       0     595
 1990 324   112   109   22.0      4   4.07   4316   3592      0   3986   9159      0    0.0  0.000   1252      0  0.000  0.000  0.058  0.000   1.64   0.00   0.14      0   1252     94.2   0.00   0.00   1.10   4.00   4.00   4.00   3.99   3.99   3.53   3.83   0.01   0.00   0.00      0      0      0       0     615
 1990 325   113   110   22.0      4   4.04   4259   3676      0   4115   9396      0    0.0  0.000   1461      0  0.000  0.000  0.054  0.000   1.65   0.00   0.16      0   1461     94.8   0.00   0.00   1.11   4.00   4.00   4.00   4.00   4.00   3.66   3.92   0.21   0.00   0.00      0      0      0       0     635
 1990 326   114   111   22.0      4   4.01   4200   3749      0   4238   9594      0    0.0  0.000   1645      0  0.000  0.000  0.050  0.000   1.66   0.00   0.17      0   1645     95.5   0.00   0.00   1.12   4.00   4.00   4.00   4.00   4.00   3.78   3.99   0.46   0.00   0.00      0      0      0       0     655
 1990 327   115   112   22.0      4   3.99   4138   3821      0   4380   9783      0    0.0  0.000   1824      0  0.000  0.000  0.047  0.000   1.66   0.00   0.19      0   1824     96.4   0.00   0.00   1.13   4.00   4.00   4.00   4.00   4.00   3.91   4.00   0.77   0.00   0.00      0      0      0       0     676
 1990 328   116   113   22.0      4   3.97   4073   3902      0   4465  10001      0    0.0  0.000   2027      0  0.000  0.000  0.043  0.000   1.67   0.00   0.20      0   2027     97.4   0.00   0.00   1.14   4.00   4.00   4.00   4.00   4.00   3.99   4.00   0.99   0.00   0.00      0      0      0       0     698
 1990 329   117   114   22.0      4   3.95   4004   3989      0   4486  10238      0    0.0  0.000   2245      0  0.000  0.000  0.040  0.000   1.68   0.00   0.22      0   2245     98.6   0.00   0.00   1.15   4.00   4.00   4.00   4.00   4.00   4.00   4.00   1.09   0.00   0.00      0      0      0       0     721
 1990 330   118   115   22.0      4   3.93   3933   4058      0   4567  10408      0    0.0  0.000   2417      0  0.000  0.000  0.037  0.000   1.68   0.00   0.23      0   2417     99.9   0.00   0.00   1.16   4.00   4.00   4.00   4.00   4.00   4.00   4.00   1.32   0.00   0.00      0      0      0       0     743
 1990 331   119   116   22.0      4   3.91   3860   4101      0   4767  10485      0    0.0  0.000   2524      0  0.000  0.000  0.035  0.000   1.70   0.00   0.24      0   2524    101.4   0.00   0.00   1.16   4.00   4.00   4.00   4.00   4.00   4.00   4.00   1.81   0.00   0.00      0      0      0       0     766
 1990 332   120   117   22.0      4   3.90   3785   4150      0   4959  10584      0    0.0  0.000   2648      0  0.000  0.000  0.033  0.000   1.71   0.00   0.25      0   2648    102.9   0.00   0.00   1.17   4.00   4.00   4.00   4.00   4.00   4.00   4.00   2.27   0.00   0.00      0      0      0       0     790
 1990 333   121   118   22.0      4   3.88   3707   4217      0   5122  10738      0    0.0  0.000   2814      0  0.000  0.000  0.030  0.000   1.71   0.00   0.26      0   2814    104.7   0.00   0.00   1.18   4.00   4.00   4.00   4.00   4.00   4.00   4.00   2.66   0.00   0.00      0      0      0       0     814
 1990 334   122   119   22.0      5   3.87   3707   4217    273   5102  11012   4205    6.5  0.025   3087      7  0.000  0.000  0.027  0.000   1.66   8.84   0.28      0   3087    104.3   0.00   0.00   1.19   3.99   3.99   3.99   3.99   3.98   3.98   3.98   2.66   0.00   0.00      0      0      0       0     840
 1990 335   123   120   22.0      5   3.85   3707   4217    538   5124  11277   4205   12.8  0.048   3353      7  0.000  0.000  0.039  0.000   1.62  16.06   0.30      0   3353    103.8   0.00   0.00   1.19   4.00   4.00   4.00   4.00   4.00   4.00   3.99   2.74   0.00   0.00      0      0      0       0     866
 1990 336   124   121   22.0      5   3.83   3707   4170    759   5098  11450   4205   18.0  0.066   3573      7  0.000  0.000  0.047  0.000   1.59  21.24   0.31      0   3573    103.2   0.00   0.00   1.19   4.00   4.00   4.00   4.00   4.00   4.00   3.99   2.74   0.00   0.00      0      0      0       0     891
 1990 337   125   122   22.0      5   3.80   3707   4217    937   5172  11676   4205   22.3  0.080   3751      7  0.000  0.000  0.054  0.000   1.55  24.98   0.32      0   3751    102.5   0.00   0.00   1.20   4.00   4.00   4.00   4.00   4.00   4.00   4.00   2.89   0.00   0.00      0      0      0       0     917
 1990 338   126   123   22.0      5   3.78   3707   4217   1169   5226  11908   4205   27.8  0.098   3983      7  0.000  0.000  0.054  0.000   1.57  29.35   0.33      0   3983    101.8   0.00   0.00   1.21   4.00   4.00   4.00   3.99   3.99   3.99   3.99   2.89   0.00   0.00      0      0      0       0     943
 1990 339   127   124   22.0      5   3.76   3707   4217   1484   5202  12223   4205   35.3  0.121   4299      7  0.000  0.000  0.040  0.000   1.53  34.53   0.35      0   4299    101.3   0.00   0.00   1.22   4.00   3.98   3.98   3.97   3.97   3.97   3.97   2.87   0.00   0.00      0      0      0       0     969
 1990 340   128   125   22.0      5   3.74   3707   4217   1775   5184  12514   4205   42.2  0.142   4590      7  0.000  0.000  0.045  0.000   1.49  38.68   0.37      0   4590    100.8   0.00   0.00   1.23   3.99   4.00   3.97   3.96   3.95   3.95   3.95   2.86   0.00   0.00      0      0      0       0     995
 1990 341   129   126   22.0      5   3.71   3707   4217   2042   5220  12781   4205   48.6  0.160   4856      7  0.000  0.000  0.053  0.000   1.44  42.05   0.38      0   4856    100.1   0.00   0.00   1.24   4.00   4.00   4.00   4.00   4.00   3.99   3.97   2.90   0.00   0.00      0      0      0       0    1021
 1990 342   130   127   22.0      5   3.68   3707   4217   2255   5284  12993   4205   53.6  0.174   5069      7  0.000  0.000  0.062  0.059   1.41  44.48   0.39      0   5069     99.3   0.00   0.00   1.25   4.00   4.00   4.00   4.00   4.00   4.00   4.00   2.96   0.00   0.00      0      0      0       0    1047
 1990 343   131   128   22.0      5   3.65   3707   4212   2428   5258  13162   4205   57.7  0.184   5242      7  0.000  0.000  0.069  0.085   1.38  46.31   0.40      0   5242     98.5   0.00   0.00   1.25   4.00   4.00   4.00   4.00   4.00   4.00   4.00   2.96   0.00   0.00      0      0      0       0    1073
 1990 344   132   129   22.0      5   3.62   3707   4190   2620   5231  13332   4205   62.3  0.197   5435      7  0.000  0.000  0.073  0.350   1.36  48.21   0.41      0   5435     97.6   0.00   0.00   1.25   4.00   4.00   4.00   4.00   4.00   4.00   4.00   2.96   0.00   0.00      0      0      0       0    1099
 1990 345   133   130   22.0      5   3.58   3707   4217   2868   5258  13606   4205   68.2  0.211   5682      7  0.000  0.000  0.078  0.205   1.31  50.47   0.42      0   5682     96.6   0.00   0.00   1.25   4.00   4.00   4.00   4.00   4.00   3.99   3.97   2.93   0.00   0.00      0      0      0       0    1126
 1990 346   134   131   22.0      5   3.54   3707   4217   3023   5260  13761   4205   71.9  0.220   5837      7  0.000  0.000  0.087  0.126   1.29  51.79   0.42      0   5837     95.6   0.00   0.00   1.25   4.00   4.00   4.00   4.00   4.00   4.00   3.98   2.93   0.00   0.00      0      0      0       0    1152
 1990 347   135   132   22.0      5   3.50   3707   4217   3252   5262  13991   4205   77.3  0.232   6067      7  0.000  0.000  0.091  0.050   1.25  53.61   0.43      0   6067     94.5   0.00   0.00   1.25   4.00   4.00   4.00   4.00   4.00   4.00   3.98   2.93   0.00   0.00      0      0      0       0    1178
 1990 348   136   133   22.0      5   3.46   3707   4217   3403   5329  14142   4205   80.9  0.241   6218      7  0.000  0.000  0.100  0.006   1.23  54.74   0.44      0   6218     93.3   0.00   0.00   1.25   4.00   4.00   4.00   4.00   4.00   4.00   4.00   2.95   0.00   0.00      0      0      0       0    1204
 1990 349   137   134   22.0      5   3.41   3707   4217   3632   5388  14370   4205   86.4  0.253   6446      7  0.000  0.000  0.102  0.000   1.20  56.34   0.45      0   6446     92.1   0.00   0.00   1.25   4.00   4.00   4.00   4.00   4.00   4.00   4.00   2.97   0.00   0.00      0      0      0       0    1231
 1990 350   138   135   22.0      5   3.37   3707   4217   3933   5413  14671   4205   93.5  0.268   6747      7  0.000  0.000  0.108  0.000   1.15  58.29   0.46      0   6747     90.9   0.00   0.00   1.25   4.00   4.00   4.00   4.00   4.00   4.00   4.00   2.97   0.00   0.00      0      0      0       0    1258
 1990 351   139   136   22.0      5   3.32   3707   4154   4248   5386  14924   4205  101.0  0.285   7063      7  0.000  0.000  0.118  0.000   1.12  60.15   0.47      0   7063     89.5   0.00   0.00   1.25   4.00   4.00   4.00   4.00   4.00   4.00   4.00   2.97   0.00   0.00      0      0      0       0    1285
 1990 352   140   137   22.0      5   3.26   3707   4217   4537   5405  15275   4205  107.9  0.297   7351      7  0.000  0.000  0.130  0.000   1.07  61.72   0.48      0   7351     88.1   0.00   0.00   1.25   4.00   4.00   4.00   4.00   4.00   4.00   4.00   2.98   0.00   0.00      0      0      0       0    1312
 1990 353   141   138   22.0      5   3.21   3707   4217   4788   5449  15526   4205  113.9  0.308   7602      7  0.000  0.000  0.137  0.000   1.04  62.98   0.49      0   7602     86.6   0.00   0.00   1.25   4.00   4.00   4.00   4.00   4.00   4.00   4.00   2.99   0.00   0.00      0      0      0       0    1339
 1990 354   142   139   22.0      5   3.15   3707   4217   5053   5487  15792   4205  120.2  0.320   7868      7  0.000  0.000  0.150  0.021   1.00  64.23   0.50      0   7868     84.9   0.00   0.00   1.25   4.00   4.00   4.00   4.00   4.00   4.00   4.00   3.00   0.00   0.00      0      0      0       0    1366
 1990 355   143   140   22.0      5   3.09   3707   4217   5369   5487  16107   4205  127.7  0.333   8183      7  0.000  0.000  0.158  0.001   0.96  65.61   0.51      0   8183     83.2   0.00   0.00   1.25   4.00   4.00   4.00   4.00   4.00   4.00   4.00   2.99   0.00   0.00      0      0      0       0    1394
 1990 356   144   141   22.0      5   3.02   3707   4067   5680   5459  16269   4205  135.1  0.349   8494      7  0.000  0.000  0.170  0.074   0.94  66.87   0.52      0   8494     81.5   0.00   0.00   1.25   4.00   4.00   4.00   4.00   4.00   4.00   4.00   2.99   0.00   0.00      0      0      0       0    1421
 1990 357   145   142   22.0      5   2.95   3707   4063   5995   5432  16580   4205  142.6  0.362   8810      7  0.000  0.000  0.181  0.048   0.91  68.05   0.53      0   8810     79.6   0.00   0.00   1.25   4.00   4.00   4.00   4.00   4.00   4.00   4.00   2.99   0.00   0.00      0      0      0       0    1449
 1990 358   146   143   22.0      5   2.88   3707   4019   6245   5405  16786   4205  148.5  0.372   9060      7  0.000  0.000  0.187  0.334   0.88  68.94   0.54      0   9060     77.8   0.00   0.00   1.25   4.00   4.00   4.00   4.00   4.00   4.00   4.00   2.99   0.00   0.00      0      0      0       0    1476
 1990 359   147   144   22.0      5   2.81   3707   4131   6476   5434  17129   4205  154.0  0.378   9291      7  0.000  0.000  0.197  0.152   0.84  69.71   0.54      0   9291     75.9   0.00   0.00   1.25   4.00   4.00   4.00   4.00   4.00   4.00   4.00   3.00   0.00   0.00      0      0      0       0    1503
 1990 360   148   145   22.0      5   2.74   3707   4212   6792   5447  17525   4205  161.5  0.388   9606      7  0.000  0.000  0.204  0.048   0.80  70.70   0.55      0   9606     74.0   0.00   0.00   1.25   4.00   4.00   4.00   4.00   4.00   4.00   4.00   3.00   0.00   0.00      0      0      0       0    1530
 1990 361   149   146   22.0      5   2.67   3707   4217   7107   5453  17845   4205  169.0  0.398   9921      7  0.000  0.000  0.253  0.006   0.77  71.63   0.56      0   9921     71.9   0.00   0.00   1.25   4.00   4.00   4.00   4.00   4.00   4.00   4.00   3.00   0.00   0.00      0      0      0       0    1557
 1990 362   150   147   22.0      5   2.59   3707   4217   7285   5484  18024   4205  173.3  0.404  10099      7  0.000  0.000  0.306  0.000   0.76  72.13   0.56      0  10099     69.8   0.00   0.00   1.25   4.00   4.00   4.00   4.00   4.00   4.00   4.00   3.01   0.00   0.00      0      0      0       0    1584
 1990 363   151   148   22.0      5   2.51   3707   4217   7443   5512  18181   4205  177.0  0.409  10257      7  0.000  0.000  0.315  0.000   0.75  72.56   0.56      0  10257     67.7   0.00   0.00   1.25   4.00   4.00   4.00   4.00   4.00   4.00   4.00   3.02   0.00   0.00      0      0      0       0    1612
 1990 364   152   149   22.0      5   2.44   3707   4217   7676   5523  18415   4205  182.6  0.417  10490      7  0.000  0.000  0.321  0.000   0.73  73.17   0.57      0  10490     65.7   0.00   0.00   1.25   4.00   4.00   4.00   4.00   4.00   4.00   4.00   3.02   0.00   0.00      0      0      0       0    1639
 1990 365   153   150   22.0      5   2.36   3707   4217   7981   5515  18720   4205  189.8  0.426  10795      7  0.000  0.000  0.339  0.000   0.71  73.93   0.58      0  10795     63.7   0.00   0.00   1.25   4.00   4.00   4.00   4.00   4.00   4.00   3.99   3.01   0.00   0.00      0      0      0       0    1667
 1991 001   154   151   22.0      5   2.29   3707   4181   8297   5488  18999   4205  197.3  0.437  11111      7  0.000  0.000  0.370  0.000   0.68  74.67   0.58      0  11111     61.6   0.00   0.00   1.25   4.00   4.00   4.00   4.00   4.00   4.00   3.99   3.01   0.00   0.00      0      0      0       0    1695
 1991 002   155   152   22.0      5   2.21   3707   4125   8612   5460  19259   4205  204.8  0.447  11426      7  0.000  0.000  0.403  0.000   0.66  75.37   0.59      0  11426     59.6   0.00   0.00   1.25   4.00   4.00   4.00   4.00   4.00   4.00   3.99   3.01   0.00   0.00      0      0      0       0    1722
 1991 003   156   153   22.0      5   2.13   3707   4081   8927   5433  19530   4205  212.3  0.457  11742      7  0.000  0.000  0.431  0.000   0.64  76.03   0.60      0  11742     57.5   0.00   0.00   1.25   4.00   4.00   4.00   4.00   4.00   4.00   3.99   3.01   0.00   0.00      0      0      0       0    1749
 1991 004   157   154   22.0      5   2.06   3707   4093   9204   5411  19819   4205  218.9  0.464  12018      7  0.000  0.000  0.457  0.000   0.62  76.58   0.61      0  12018     55.5   0.00   0.00   1.25   4.00   4.00   4.00   3.99   3.99   3.99   3.98   2.99   0.00   0.00      0      0      0       0    1776
 1991 005   158   155   22.0      5   1.98   3707   4097   9481   5387  20100   4205  225.5  0.472  12295      7  0.000  0.000  0.477  0.000   0.61  77.11   0.61      0  12295     53.4   0.00   0.00   1.25   3.99   3.99   3.99   3.97   3.97   3.97   3.96   2.98   0.00   0.00      0      0      0       0    1803
 1991 006   159   156   22.0      5   1.91   3707   4071   9773   5360  20366   4205  232.4  0.480  12588      7  0.000  0.000  0.505  0.000   0.59  77.64   0.62      0  12588     51.4   0.00   0.00   1.25   3.99   3.99   3.99   3.97   3.97   3.97   3.96   2.98   0.00   0.00      0      0      0       0    1830
 1991 007   160   157   22.0      5   1.83   3707   3990  10089   5333  20600   4205  239.9  0.490  12903      7  0.000  0.000  0.533  0.000   0.58  78.19   0.63      0  12903     49.4   0.00   0.00   1.25   3.99   3.99   3.99   3.97   3.97   3.97   3.96   2.98   0.00   0.00      0      0      0       0    1857
 1991 008   161   158   22.0      5   1.76   3707   3895  10404   5306  20820   4205  247.4  0.500  13218      7  0.000  0.000  0.558  0.000   0.57  78.71   0.63      0  13218     47.4   0.00   0.00   1.25   3.99   3.99   3.99   3.97   3.97   3.97   3.96   2.98   0.00   0.00      0      0      0       0    1884
 1991 009   162   159   22.0      5   1.69   3707   3649  10719   5280  20890   4205  254.9  0.513  13534      7  0.000  0.000  0.570  0.000   0.57  79.21   0.65      0  13534     45.5   0.00   0.00   1.25   3.99   3.99   3.99   3.97   3.97   3.97   3.96   2.98   0.00   0.00      0      0      0       0    1910
 1991 010   163   160   22.0      5   1.62   3707   3523  11035   5253  21080   4205  262.4  0.523  13849      7  0.000  0.000  0.578  0.000   0.57  79.68   0.66      0  13849     43.7   0.00   0.00   1.25   3.99   3.99   3.99   3.97   3.97   3.97   3.96   2.98   0.00   0.00      0      0      0       0    1937
 1991 011   164   161   22.0      5   1.62   3707   3523  11035   5253  21080   4205  262.4  0.523  13849      7  0.000  0.000  0.578  0.000   0.57  79.68   0.66      0  13849     43.7   0.00   0.00   1.25   3.99   3.99   3.99   3.97   3.97   3.97   3.96   2.98   0.00   0.00      0      0      0       0    1937
 1991 012   165   162   22.0      5   1.62   3707   3523  11035   5253  21080   4205  262.4  0.523  13849      7  0.000  0.000  0.578  0.000   0.57  79.68   0.66      0  13849     43.7   0.00   0.00   1.25   3.99   3.99   3.99   3.97   3.97   3.97   3.96   2.98   0.00   0.00      0      0      0       0    1937
 1991 013   166   163   22.0      5   1.62   3707   3523  11035   5253  21080   4205  262.4  0.523  13849      7  0.000  0.000  0.578  0.000   0.57  79.68   0.66      0  13849     43.7   0.00   0.00   1.25   3.99   3.99   3.99   3.97   3.97   3.97   3.96   2.98   0.00   0.00      0      0      0       0    1937
 1991 014   167   164   22.0      5   1.62   3707   3523  11035   5253  21080   4205  262.4  0.523  13849      7  0.000  0.000  0.578  0.000   0.57  79.68   0.66      0  13849     43.7   0.00   0.00   1.25   3.99   3.99   3.99   3.97   3.97   3.97   3.96   2.98   0.00   0.00      0      0      0       0    1937

*DSSAT Cropping System Model Ver. 4.0.2.000               Aug 03, 2016; 15:30:22

*RUN   2        : UYMZ                    
 MODEL          : MZCER040 - Maize           
 EXPERIMENT     : UYMZ0129 MZ    late to create DSS                             
 TREATMENT  1   : UYMZ                    

@YEAR DOY   DAS   DAP   L#SD   GSTD   LAID   LWAD   SWAD   GWAD   RWAD   CWAD   G#AD   GWGD   HIAD   PWAD   P#AD   WSPD   WSGD   NSTD   EWSD   LN%D   SH%D   HIPD   PWDD   PWTD     SLAD   CHTD   CWID   RDPD   RL1D   RL2D   RL3D   RL4D   RL5D   RL6D   RL7D   RL8D   RL9D   RL10   CDAD   LDAD   SDAD   SNW0C   SNW1C
 1991 215     3     0    0.0      0   0.00      0      0      0      0      0      0    0.0  0.000      0      0  0.000  0.000  0.000  0.000   0.00   0.00   0.00      0      0      0.0   0.00   0.00   0.03   0.00   0.00   0.00   0.00   0.00   0.00   0.00   0.00   0.00   0.00      0      0      0       0       0
 1991 216     4     1    0.0      0   0.00      0      0      0      0      0      0    0.0  0.000      0      0  0.000  0.000  0.000  0.000   0.00   0.00   0.00      0      0      0.0   0.00   0.00   0.03   0.00   0.00   0.00   0.00   0.00   0.00   0.00   0.00   0.00   0.00      0      0      0       0       0
 1991 217     5     2    0.0      0   0.00      0      0      0      0      0      0    0.0  0.000      0      0  0.000  0.000  0.000  0.000   0.00   0.00   0.00      0      0      0.0   0.00   0.00   0.03   0.00   0.00   0.00   0.00   0.00   0.00   0.00   0.00   0.00   0.00      0      0      0       0       0
 1991 218     6     3    0.0      0   0.00      0      0      0      0      0      0    0.0  0.000      0      0  0.000  0.000  0.000  0.000   0.00   0.00   0.00      0      0      0.0   0.00   0.00   0.03   0.00   0.00   0.00   0.00   0.00   0.00   0.00   0.00   0.00   0.00      0      0      0       0       0
 1991 219     7     4    0.0      0   0.00      0      0      0      0      0      0    0.0  0.000      0      0  0.000  0.000  0.000  0.000   0.00   0.00   0.00      0      0      0.0   0.00   0.00   0.03   0.00   0.00   0.00   0.00   0.00   0.00   0.00   0.00   0.00   0.00      0      0      0       0       0
 1991 220     8     5    0.0      0   0.00      0      0      0      0      0      0    0.0  0.000      0      0  0.000  0.000  0.000  0.000   0.00   0.00   0.00      0      0      0.0   0.00   0.00   0.04   0.00   0.00   0.00   0.00   0.00   0.00   0.00   0.00   0.00   0.00      0      0      0       0       0
 1991 221     9     6    0.0      0   0.00      0      0      0      0      0      0    0.0  0.000      0      0  0.000  0.000  0.000  0.000   0.00   0.00   0.00      0      0      0.0   0.00   0.00   0.05   0.00   0.00   0.00   0.00   0.00   0.00   0.00   0.00   0.00   0.00      0      0      0       0       0
 1991 222    10     7    0.0      0   0.00      0      0      0      0      0      0    0.0  0.000      0      0  0.000  0.000  0.000  0.000   0.00   0.00   0.00      0      0      0.0   0.00   0.00   0.05   0.00   0.00   0.00   0.00   0.00   0.00   0.00   0.00   0.00   0.00      0      0      0       0       0
 1991 223    11     8    0.0      0   0.00      0      0      0      0      0      0    0.0  0.000      0      0  0.000  0.000  0.000  0.000   0.00   0.00   0.00      0      0      0.0   0.00   0.00   0.05   0.00   0.00   0.00   0.00   0.00   0.00   0.00   0.00   0.00   0.00      0      0      0       0       0
 1991 224    12     9    0.0      0   0.00      0      0      0      0      0      0    0.0  0.000      0      0  0.000  0.000  0.000  0.000   0.00   0.00   0.00      0      0      0.0   0.00   0.00   0.05   0.00   0.00   0.00   0.00   0.00   0.00   0.00   0.00   0.00   0.00      0      0      0       0       0
 1991 225    13    10    0.0      0   0.00      0      0      0      0      0      0    0.0  0.000      0      0  0.000  0.000  0.000  0.000   0.00   0.00   0.00      0      0      0.0   0.00   0.00   0.06   0.00   0.00   0.00   0.00   0.00   0.00   0.00   0.00   0.00   0.00      0      0      0       0       0
 1991 226    14    11    0.0      0   0.00      0      0      0      0      0      0    0.0  0.000      0      0  0.000  0.000  0.000  0.000   0.00   0.00   0.00      0      0      0.0   0.00   0.00   0.08   0.00   0.00   0.00   0.00   0.00   0.00   0.00   0.00   0.00   0.00      0      0      0       0       0
 1991 227    15    12    0.0      0   0.00      0      0      0      0      0      0    0.0  0.000      0      0  0.000  0.000  0.000  0.000   0.00   0.00   0.00      0      0      0.0   0.00   0.00   0.10   0.00   0.00   0.00   0.00   0.00   0.00   0.00   0.00   0.00   0.00      0      0      0       0       0
 1991 228    16    13    2.0      1   0.00     14     14      0     14     28      0    0.0  0.000      0      0  0.000  0.000  0.012  0.000   4.40   0.00   0.00      0      0     24.9   0.00   0.00   0.11   0.28   0.07   0.00   0.00   0.00   0.00   0.00   0.00   0.00   0.00      0      0      0       0       0
 1991 229    17    14    2.0      1   0.01     14     14      0     14     28      0    0.0  0.000      0      0  0.000  0.000  0.017  0.000   4.54   0.00   0.00      0      0     43.5   0.00   0.00   0.12   0.28   0.07   0.00   0.00   0.00   0.00   0.00   0.00   0.00   0.00      0      0      0       0       0
 1991 230    18    15    2.0      1   0.01     14     14      0     15     28      0    0.0  0.000      0      0  0.000  0.000  0.000  0.000   4.54   0.00   0.00      0      0     64.2   0.00   0.00   0.13   0.29   0.08   0.00   0.00   0.00   0.00   0.00   0.00   0.00   0.00      0      0      0       0       0
 1991 231    19    16    3.0      1   0.01     14     14      0     16     28      0    0.0  0.000      0      0  0.000  0.000  0.000  0.000   4.48   0.00   0.00      0      0     87.2   0.00   0.00   0.14   0.30   0.09   0.00   0.00   0.00   0.00   0.00   0.00   0.00   0.00      0      0      0       0       0
 1991 232    20    17    3.0      1   0.02     14     14      0     17     28      0    0.0  0.000      0      0  0.000  0.000  0.000  0.000   4.45   0.00   0.00      0      0    112.4   0.00   0.00   0.15   0.30   0.11   0.00   0.00   0.00   0.00   0.00   0.00   0.00   0.00      0      0      0       0       0
 1991 233    21    18    3.0      1   0.02     14     14      0     19     28      0    0.0  0.000      0      0  0.000  0.000  0.000  0.000   4.42   0.00   0.00      0      0    140.1   0.00   0.00   0.17   0.32   0.13   0.00   0.00   0.00   0.00   0.00   0.00   0.00   0.00      0      0      0       0       0
 1991 234    22    19    4.0      1   0.03     14     14      0     21     28      0    0.0  0.000      0      0  0.000  0.000  0.000  0.000   4.39   0.00   0.00      0      0    246.9   0.00   0.00   0.18   0.34   0.16   0.01   0.00   0.00   0.00   0.00   0.00   0.00   0.00      0      0      0       0       0
 1991 235    23    20    4.0      1   0.05     14     14      0     26     28      0    0.0  0.000      0      0  0.000  0.000  0.000  0.000   4.37   0.00   0.00      0      0    342.6   0.00   0.00   0.19   0.38   0.21   0.03   0.00   0.00   0.00   0.00   0.00   0.00   0.00      0      0      0       0       0
 1991 236    24    21    4.0      1   0.06     18     14      0     31     32      0    0.0  0.000      0      0  0.000  0.000  0.000  0.000   3.82   0.00   0.00      0      0    326.9   0.00   0.00   0.20   0.43   0.25   0.04   0.00   0.00   0.00   0.00   0.00   0.00   0.00      0      0      0       0       1
 1991 237    25    22    5.0      1   0.07     24     14      0     35     38      0    0.0  0.000      0      0  0.000  0.000  0.000  0.000   3.61   0.00   0.00      0      0    307.4   0.00   0.00   0.21   0.47   0.29   0.06   0.00   0.00   0.00   0.00   0.00   0.00   0.00      0      0      0       0       1
 1991 238    26    23    5.0      1   0.08     28     14      0     36     42      0    0.0  0.000      0      0  0.000  0.000  0.000  0.000   3.88   0.00   0.00      0      0    297.6   0.00   0.00   0.22   0.48   0.29   0.06   0.00   0.00   0.00   0.00   0.00   0.00   0.00      0      0      0       0       1
 1991 239    27    24    5.0      1   0.09     32     14      0     37     46      0    0.0  0.000      0      0  0.000  0.000  0.000  0.000   3.95   0.00   0.00      0      0    290.4   0.00   0.00   0.22   0.49   0.30   0.06   0.00   0.00   0.00   0.00   0.00   0.00   0.00      0      0      0       0       1
 1991 240    28    25    5.0      1   0.11     39     14      0     42     53      0    0.0  0.000      0      0  0.000  0.000  0.000  0.000   3.70   0.00   0.00      0      0    278.8   0.00   0.00   0.23   0.53   0.34   0.09   0.00   0.00   0.00   0.00   0.00   0.00   0.00      0      0      0       0       1
 1991 241    29    26    5.0      1   0.13     49     14      0     47     63      0    0.0  0.000      0      0  0.000  0.000  0.000  0.000   3.59   0.00   0.00      0      0    266.6   0.00   0.00   0.24   0.58   0.38   0.11   0.00   0.00   0.00   0.00   0.00   0.00   0.00      0      0      0       0       1
 1991 242    30    27    6.0      1   0.16     61     14      0     48     75      0    0.0  0.000      0      0  0.000  0.000  0.000  0.000   3.52   0.00   0.00      0      0    254.7   0.00   0.00   0.25   0.59   0.39   0.12   0.00   0.00   0.00   0.00   0.00   0.00   0.00      0      0      0       0       2
 1991 243    31    28    6.0      1   0.17     67     14      0     51     81      0    0.0  0.000      0      0  0.000  0.000  0.000  0.000   3.87   0.00   0.00      0      0    249.5   0.00   0.00   0.26   0.61   0.41   0.14   0.00   0.00   0.00   0.00   0.00   0.00   0.00      0      0      0       0       2
 1991 244    32    29    6.0      1   0.18     72     14      0     58     86      0    0.0  0.000      0      0  0.000  0.000  0.000  0.000   3.95   0.00   0.00      0      0    245.9   0.00   0.00   0.26   0.67   0.46   0.18   0.00   0.00   0.00   0.00   0.00   0.00   0.00      0      0      0       0       2
 1991 245    33    30    6.0      1   0.19     80     14      0     62     94      0    0.0  0.000      0      0  0.000  0.000  0.000  0.000   3.82   0.00   0.00      0      0    240.6   0.00   0.00   0.27   0.69   0.48   0.20   0.00   0.00   0.00   0.00   0.00   0.00   0.00      0      0      0       0       2
 1991 246    34    31    6.0      1   0.22     94     14      0     71    108      0    0.0  0.000      0      0  0.000  0.000  0.000  0.015   3.60   0.00   0.00      0      0    232.7   0.00   0.00   0.28   0.76   0.54   0.26   0.00   0.00   0.00   0.00   0.00   0.00   0.00      0      0      0       0       3
 1991 247    35    32    7.0      1   0.25    114     14      0     94    128      0    0.0  0.000      0      0  0.000  0.000  0.000  0.000   3.50   0.00   0.00      0      0    224.0   0.00   0.00   0.29   0.91   0.69   0.40   0.00   0.00   0.00   0.00   0.00   0.00   0.00      0      0      0       0       3
 1991 248    36    33    7.0      1   0.30    137     14      0    119    151      0    0.0  0.000      0      0  0.000  0.000  0.000  0.000   3.45   0.00   0.00      0      0    215.4   0.00   0.00   0.31   1.08   0.85   0.57   0.00   0.00   0.00   0.00   0.00   0.00   0.00      0      0      0       0       4
 1991 249    37    34    7.0      1   0.33    159     14      0    121    173      0    0.0  0.000      0      0  0.000  0.000  0.000  0.000   3.54   0.00   0.00      0      0    208.9   0.00   0.00   0.31   1.09   0.86   0.59   0.00   0.00   0.00   0.00   0.00   0.00   0.00      0      0      0       0       4
 1991 250    38    35    8.0      1   0.36    174     14      0    127    188      0    0.0  0.000      0      0  0.000  0.000  0.000  0.000   3.73   0.00   0.00      0      0    205.1   0.00   0.00   0.32   1.13   0.90   0.62   0.00   0.00   0.00   0.00   0.00   0.00   0.00      0      0      0       0       5
 1991 251    39    36    8.0      1   0.38    187     14      0    136    201      0    0.0  0.000      0      0  0.000  0.000  0.000  0.000   3.77   0.00   0.00      0      0    202.1   0.00   0.00   0.33   1.18   0.95   0.68   0.01   0.00   0.00   0.00   0.00   0.00   0.00      0      0      0       0       5
 1991 252    40    37    8.0      1   0.40    203     14      0    172    217      0    0.0  0.000      0      0  0.000  0.000  0.000  0.000   3.72   0.00   0.00      0      0    198.7   0.00   0.00   0.34   1.41   1.17   0.90   0.03   0.00   0.00   0.00   0.00   0.00   0.00      0      0      0       0       6
 1991 253    41    38    8.0      1   0.44    225     14      0    213    239      0    0.0  0.000      0      0  0.000  0.000  0.000  0.000   3.62   0.00   0.00      0      0    194.4   0.00   0.00   0.35   1.67   1.41   1.15   0.06   0.00   0.00   0.00   0.00   0.00   0.00      0      0      0       0       7
 1991 254    42    39    8.0      1   0.48    256     14      0    262    270      0    0.0  0.000      0      0  0.000  0.000  0.000  0.000   3.52   0.00   0.00      0      0    189.4   0.00   0.00   0.37   1.97   1.70   1.45   0.12   0.00   0.00   0.00   0.00   0.00   0.00      0      0      0       0       8
 1991 255    43    40    9.0      1   0.55    299     14      0    309    313      0    0.0  0.000      0      0  0.000  0.000  0.000  0.000   3.40   0.00   0.00      0      0    183.3   0.00   0.00   0.38   2.25   1.98   1.73   0.18   0.00   0.00   0.00   0.00   0.00   0.00      0      0      0       0       9
 1991 256    44    41    9.0      1   0.63    354     14      0    339    368      0    0.0  0.000      0      0  0.000  0.000  0.000  0.000   3.31   0.00   0.00      0      0    176.9   0.00   0.00   0.41   2.43   2.14   1.90   0.23   0.00   0.00   0.00   0.00   0.00   0.00      0      0      0       0      11
 1991 257    45    42    9.0      2   0.67    352     14      0    364    366      0    0.0  0.000      0      0  0.000  0.000  0.000  0.000   3.91   0.00   0.00      0      0    189.2   0.00   0.00   0.41   2.57   2.28   2.04   0.27   0.00   0.00   0.00   0.00   0.00   0.00      0      0      0       0      13
 1991 258    46    43    9.0      2   0.68    361     14      0    370    375      0    0.0  0.000      0      0  0.000  0.000  0.002  0.000   3.82   0.00   0.00      0      0    188.2   0.00   0.00   0.42   2.60   2.31   2.07   0.28   0.00   0.00   0.00   0.00   0.00   0.00      0      0      0       0      13
 1991 259    47    44   10.0      2   0.74    405     14      0    397    419      0    0.0  0.000      0      0  0.000  0.000  0.000  0.000   3.41   0.00   0.00      0      0    183.7   0.00   0.00   0.43   2.74   2.46   2.23   0.34   0.00   0.00   0.00   0.00   0.00   0.00      0      0      0       0      14
 1991 260    48    45   10.0      2   0.81    448     14      0    403    462      0    0.0  0.000      0      0  0.000  0.000  0.000  0.138   3.78   0.00   0.00      0      0    179.9   0.00   0.00   0.45   2.76   2.49   2.26   0.35   0.00   0.00   0.00   0.00   0.00   0.00      0      0      0       0      16
 1991 261    49    46   10.0      3   0.85    484     14      0    480    498      0    0.0  0.000      0      0  0.000  0.000  0.022  0.187   3.68   0.00   0.00      0      0    175.7   0.00   0.00   0.46   2.74   2.74   2.59   0.53   0.00   0.00   0.00   0.00   0.00   0.00      0      0      0       0      18
 1991 262    50    47   10.0      3   0.88    508     14      0    569    522      0    0.0  0.000      0      0  0.000  0.000  0.022  0.169   3.60   0.00   0.00      0      0    173.7   0.00   0.00   0.46   2.77   3.08   3.03   0.72   0.02   0.00   0.00   0.00   0.00   0.00      0      0      0       0      21
 1991 263    51    48   11.0      3   0.94    550     14      0    617    564      0    0.0  0.000      0      0  0.000  0.000  0.022  0.042   3.56   0.00   0.00      0      0    170.9   0.00   0.00   0.47   2.78   3.25   3.25   0.83   0.03   0.00   0.00   0.00   0.00   0.00      0      0      0       0      24
 1991 264    52    49   11.0      3   1.03    615     15      0    643    631      0    0.0  0.000      0      0  0.000  0.000  0.022  0.003   3.52   0.00   0.00      0      0    167.1   0.00   0.00   0.49   2.79   3.33   3.36   0.88   0.05   0.00   0.00   0.00   0.00   0.00      0      0      0       0      27
 1991 265    53    50   11.0      3   1.08    657     16      0    741    674      0    0.0  0.000      0      0  0.000  0.000  0.022  0.001   3.50   0.00   0.00      0      0    164.8   0.00   0.00   0.50   2.95   3.78   3.91   1.11   0.11   0.00   0.00   0.00   0.00   0.00      0      0      0       0      30
 1991 266    54    51   11.0      3   1.02    677     17      0    825    694      0    0.0  0.000      0      0  0.000  0.000  0.022  0.001   3.52   0.00   0.00      0      0    151.1   0.00   0.00   0.50   3.10   4.00   4.00   1.31   0.17   0.00   0.00   0.00   0.00   0.00      0      0      0       0      34
 1991 267    55    52   11.0      3   1.05    705     18      0    929    722      0    0.0  0.000      0      0  0.000  0.000  0.022  0.001   3.48   0.00   0.00      0      0    148.6   0.00   0.00   0.51   3.30   4.00   4.00   1.56   0.26   0.00   0.00   0.00   0.00   0.00      0      0      0       0      38
 1991 268    56    53   11.0      3   1.10    748     19      0   1026    767      0    0.0  0.000      0      0  0.000  0.000  0.022  0.001   3.45   0.00   0.00      0      0    147.4   0.00   0.00   0.52   3.49   4.00   4.00   1.79   0.35   0.00   0.00   0.00   0.00   0.00      0      0      0       0      42
 1991 269    57    54   12.0      3   1.18    806     22      0   1127    828      0    0.0  0.000      0      0  0.000  0.000  0.022  0.000   3.43   0.00   0.00      0      0    145.9   0.00   0.00   0.53   3.70   4.00   4.00   2.03   0.46   0.00   0.00   0.00   0.00   0.00      0      0      0       0      48
 1991 270    58    55   12.0      3   1.30    905     29      0   1184    934      0    0.0  0.000      0      0  0.000  0.000  0.022  0.000   3.39   0.00   0.00      0      0    143.7   0.00   0.00   0.54   3.82   4.00   4.00   2.17   0.53   0.00   0.00   0.00   0.00   0.00      0      0      0       0      53
 1991 271    59    56   12.0      3   1.34    941     32      0   1283    973      0    0.0  0.000      0      0  0.000  0.000  0.022  0.000   3.40   0.00   0.00      0      0    142.7   0.00   0.00   0.55   4.00   4.00   4.00   2.41   0.67   0.00   0.00   0.00   0.00   0.00      0      0      0       0      59
 1991 272    60    57   12.0      3   1.39    979     36      0   1395   1014      0    0.0  0.000      0      0  0.000  0.000  0.022  0.000   3.37   0.00   0.00      0      0    141.7   0.00   0.00   0.55   4.00   4.00   4.00   2.69   0.84   0.00   0.00   0.00   0.00   0.00      0      0      0       0      66
 1991 273    61    58   12.0      3   1.45   1034     42      0   1508   1076      0    0.0  0.000      0      0  0.000  0.000  0.022  0.000   3.34   0.00   0.00      0      0    140.4   0.00   0.00   0.56   4.00   4.00   4.00   2.98   1.03   0.00   0.00   0.00   0.00   0.00      0      0      0       0      73
 1991 274    62    59   13.0      3   1.50   1073     46      0   1613   1119      0    0.0  0.000      0      0  0.000  0.000  0.022  0.000   3.33   0.00   0.00      0      0    139.4   0.00   0.00   0.57   4.00   4.00   4.00   3.24   1.21   0.00   0.00   0.00   0.00   0.00      0      0      0       0      80
 1991 275    63    60   13.0      3   1.54   1110     51      0   1731   1161      0    0.0  0.000      0      0  0.000  0.000  0.022  0.000   3.32   0.00   0.00      0      0    138.5   0.00   0.00   0.57   4.00   4.00   4.00   3.55   1.43   0.00   0.00   0.00   0.00   0.00      0      0      0       0      88
 1991 276    64    61   13.0      3   1.51   1148     56      0   1865   1205      0    0.0  0.000      0      0  0.000  0.000  0.022  0.000   3.30   0.00   0.00      0      0    131.3   0.00   0.00   0.58   4.00   4.00   4.00   3.90   1.71   0.00   0.00   0.00   0.00   0.00      0      0      0       0      97
 1991 277    65    62   13.0      3   1.57   1200     64      0   1968   1264      0    0.0  0.000      0      0  0.000  0.000  0.022  0.000   3.27   0.00   0.00      0      0    130.5   0.00   0.00   0.59   4.00   4.00   4.00   4.00   1.93   0.00   0.00   0.00   0.00   0.00      0      0      0       0     106
 1991 278    66    63   13.0      3   1.60   1234     70      0   1974   1304      0    0.0  0.000      0      0  0.000  0.000  0.022  0.000   3.31   0.00   0.00      0      0    129.9   0.00   0.00   0.59   3.99   4.00   4.00   4.00   1.95   0.00   0.00   0.00   0.00   0.00      0      0      0       0     116
 1991 279    67    64   13.0      3   1.62   1250     73      0   2005   1323      0    0.0  0.000      0      0  0.000  0.000  0.022  0.000   3.30   0.00   0.00      0      0    129.4   0.00   0.00   0.60   3.97   4.00   4.00   4.00   2.04   0.00   0.00   0.00   0.00   0.00      0      0      0       0     126
 1991 280    68    65   13.0      3   1.57   1268     76      0   2046   1345      0    0.0  0.000      0      0  0.000  0.000  0.022  0.000   3.29   0.00   0.00      0      0    124.1   0.00   0.00   0.60   3.72   3.87   4.00   3.89   2.03   0.00   0.00   0.00   0.00   0.00      0      0      0       0     136
 1991 281    69    66   13.0      3   1.53   1294     81      0   2153   1376      0    0.0  0.000      0      0  0.000  0.000  0.022  0.138   3.27   0.00   0.00      0      0    118.6   0.00   0.00   0.60   3.60   4.00   4.00   4.00   2.27   0.00   0.00   0.00   0.00   0.00      0      0      0       0     146
 1991 282    70    67   13.0      3   1.59   1347     92      0   2263   1439      0    0.0  0.000      0      0  0.000  0.000  0.022  0.055   3.22   0.00   0.00      0      0    118.2   0.00   0.00   0.61   3.55   4.00   4.00   4.00   2.56   0.01   0.00   0.00   0.00   0.00      0      0      0       0     157
 1991 283    71    68   14.0      3   1.66   1408    107      0   2400   1515      0    0.0  0.000      0      0  0.000  0.000  0.022  0.002   3.20   0.00   0.00      0      0    117.9   0.00   0.00   0.62   3.51   4.00   4.00   4.00   2.93   0.02   0.00   0.00   0.00   0.00      0      0      0       0     168
 1991 284    72    69   14.0      3   1.74   1484    127      0   2529   1611      0    0.0  0.000      0      0  0.000  0.000  0.022  0.000   3.18   0.00   0.00      0      0    117.5   0.00   0.00   0.63   3.47   4.00   4.00   4.00   3.29   0.05   0.00   0.00   0.00   0.00      0      0      0       0     180
 1991 285    73    70   14.0      3   1.87   1595    161      0   2639   1757      0    0.0  0.000      0      0  0.000  0.000  0.022  0.001   3.14   0.00   0.00      0      0    117.0   0.00   0.00   0.64   3.43   4.00   4.00   4.00   3.61   0.08   0.00   0.00   0.00   0.00      0      0      0       0     193
 1991 286    74    71   15.0      3   2.05   1759    225      0   2692   1984      0    0.0  0.000      0      0  0.000  0.000  0.022  0.001   3.09   0.00   0.00      0      0    116.4   0.00   0.00   0.66   3.39   4.00   4.00   4.00   3.77   0.11   0.00   0.00   0.00   0.00      0      0      0       0     206
 1991 287    75    72   15.0      3   2.18   1881    282      0   2689   2164      0    0.0  0.000      0      0  0.000  0.000  0.022  0.001   3.04   0.00   0.00      0      0    115.7   0.00   0.00   0.68   3.34   3.95   3.98   3.98   3.75   0.12   0.00   0.00   0.00   0.00      0      0      0       0     219
 1991 288    76    73   15.0      3   2.25   1958    323      0   2682   2281      0    0.0  0.000      0      0  0.000  0.000  0.022  0.002   3.00   0.00   0.00      0      0    115.2   0.00   0.00   0.70   3.28   3.88   3.92   3.93   3.70   0.12   0.00   0.00   0.00   0.00      0      0      0       0     233
 1991 289    77    74   16.0      3   2.32   2019    358      0   2686   2377      0    0.0  0.000      0      0  0.000  0.000  0.022  0.010   2.98   0.00   0.00      0      0    114.7   0.00   0.00   0.71   3.06   3.62   3.69   3.72   3.53   0.14   0.00   0.00   0.00   0.00      0      0      0       0     246
 1991 290    78    75   16.0      3   2.34   2044    373      0   2761   2417      0    0.0  0.000      0      0  0.000  0.000  0.022  0.391   2.98   0.00   0.00      0      0    114.3   0.00   0.00   0.71   2.95   3.49   3.74   3.81   3.69   0.27   0.00   0.00   0.00   0.00      0      0      0       0     260
 1991 291    79    76   16.0      3   2.39   2102    410      0   2933   2512      0    0.0  0.000      0      0  0.000  0.000  0.022  0.138   2.95   0.00   0.00      0      0    113.8   0.00   0.00   0.72   2.92   3.44   4.00   4.00   4.00   0.60   0.00   0.00   0.00   0.00      0      0      0       0     274
 1991 292    80    77   16.0      3   2.49   2194    472      0   3077   2666      0    0.0  0.000      0      0  0.000  0.000  0.022  0.028   2.92   0.00   0.00      0      0    113.3   0.00   0.00   0.73   2.93   3.44   4.00   4.00   4.00   0.95   0.00   0.00   0.00   0.00      0      0      0       0     288
 1991 293    81    78   16.0      3   2.59   2294    548      0   3212   2842      0    0.0  0.000      0      0  0.000  0.000  0.022  0.010   2.86   0.00   0.00      0      0    112.7   0.00   0.00   0.74   2.97   3.47   4.00   4.00   4.00   1.35   0.00   0.00   0.00   0.00      0      0      0       0     304
 1991 294    82    79   17.0      3   2.72   2427    658      0   3298   3084      0    0.0  0.000      0      0  0.000  0.000  0.022  0.006   2.74   0.00   0.00      0      0    112.0   0.00   0.00   0.76   3.01   3.51   4.00   4.00   4.00   1.65   0.00   0.00   0.00   0.00      0      0      0       0     320
 1991 295    83    80   17.0      3   2.88   2589    810      0   3312   3399      0    0.0  0.000      0      0  0.000  0.000  0.022  0.000   2.57   0.00   0.00      0      0    111.2   0.00   0.00   0.78   3.02   3.52   4.00   4.00   4.00   1.75   0.00   0.00   0.00   0.00      0      0      0       0     336
 1991 296    84    81   17.0      3   2.94   2659    880      0   3303   3539      0    0.0  0.000      0      0  0.000  0.000  0.022  0.000   2.54   0.00   0.00      0      0    110.7   0.00   0.00   0.78   3.02   3.51   3.99   3.99   4.00   1.77   0.00   0.00   0.00   0.00      0      0      0       0     353
 1991 297    85    82   18.0      3   2.99   2714    938      0   3299   3652      0    0.0  0.000      0      0  0.000  0.000  0.027  0.000   2.52   0.00   0.00      0      0    110.2   0.00   0.00   0.79   3.02   3.51   3.98   3.97   4.00   1.81   0.00   0.00   0.00   0.00      0      0      0       0     369
 1991 298    86    83   18.0      3   3.04   2777   1008      0   3290   3786      0    0.0  0.000      0      0  0.000  0.000  0.028  0.000   2.48   0.00   0.00      0      0    109.6   0.00   0.00   0.80   3.02   3.50   3.98   3.96   3.99   1.83   0.00   0.00   0.00   0.00      0      0      0       0     386
 1991 299    87    84   18.0      3   3.24   2984   1188      0   3295   4172      0    0.0  0.000      0      0  0.000  0.000  0.028  0.000   2.29   0.00   0.00      0      0    108.7   0.00   0.00   0.82   3.04   3.53   4.00   3.96   3.98   1.90   0.00   0.00   0.00   0.00      0      0      0       0     402
 1991 300    88    85   18.0      3   3.33   3079   1303      0   3290   4382      0    0.0  0.000      0      0  0.000  0.000  0.029  0.000   2.21   0.00   0.00      0      0    108.0   0.00   0.00   0.83   3.06   3.54   4.00   3.95   3.97   1.92   0.00   0.00   0.00   0.00      0      0      0       0     419
[...]
 1992 322   110   107   21.0      3   3.57   4026   3124      0   5113   7150      0    0.0  0.000      0      0  0.000  0.000  0.074  0.000   1.68   0.00   0.00      0      0     88.7   0.00   0.00   0.95   4.00   4.00   4.00   4.00   4.00   2.47   1.57   0.00   0.00   0.00      0      0      0       0     690
 1992 323   111   108   21.0      3   3.57   4062   3228      0   5284   7289      0    0.0  0.000      0      0  0.000  0.000  0.075  0.000   1.66   0.00   0.00      0      0     87.9   0.00   0.00   0.96   4.00   4.00   4.00   4.00   4.00   2.63   2.06   0.00   0.00   0.00      0      0      0       0     715
 1992 324   112   109   21.0      3   3.59   4116   3386      0   5424   7503      0    0.0  0.000      0      0  0.000  0.000  0.075  0.000   1.62   0.00   0.00      0      0     87.2   0.00   0.00   0.97   4.00   4.00   4.00   4.00   4.00   2.78   2.45   0.00   0.00   0.00      0      0      0       0     742
 1992 325   113   110   21.0      3   3.62   4182   3575      0   5475   7757      0    0.0  0.000      0      0  0.000  0.000  0.076  0.000   1.58   0.00   0.00      0      0     86.5   0.00   0.00   0.99   4.00   4.00   4.00   4.00   4.00   2.84   2.61   0.00   0.00   0.00      0      0      0       0     769
 1992 326   114   111   21.0      3   3.62   4219   3682      0   5455   7901      0    0.0  0.000      0      0  0.000  0.000  0.079  0.000   1.56   0.00   0.00      0      0     85.7   0.00   0.00   1.00   4.00   4.00   4.00   3.99   3.99   2.83   2.61   0.00   0.00   0.00      0      0      0       0     796
 1992 327   115   112   21.0      3   3.61   4249   3770      0   5605   8019      0    0.0  0.000      0      0  0.000  0.000  0.084  0.000   1.55   0.00   0.00      0      0     84.9   0.00   0.00   1.00   4.00   4.00   4.00   4.00   4.00   3.00   2.83   0.00   0.00   0.00      0      0      0       0     823
 1992 328   116   113   21.0      3   3.59   4275   3845      0   5728   8120      0    0.0  0.000      0      0  0.000  0.000  0.086  0.000   1.54   0.00   0.00      0      0     84.0   0.00   0.00   1.01   4.00   4.00   4.00   4.00   4.00   3.16   2.94   0.00   0.00   0.00      0      0      0       0     851
 1992 329   117   114   21.0      3   3.60   4324   3983      0   5826   8307      0    0.0  0.000      0      0  0.000  0.000  0.087  0.000   1.51   0.00   0.00      0      0     83.2   0.00   0.00   1.02   4.00   4.00   4.00   4.00   4.00   3.28   2.99   0.00   0.00   0.00      0      0      0       0     880
 1992 330   118   115   21.0      3   3.61   4377   4136      0   5893   8513      0    0.0  0.000      0      0  0.000  0.000  0.086  0.000   1.48   0.00   0.00      0      0     82.4   0.00   0.00   1.03   4.00   4.00   4.00   4.00   4.00   3.38   3.03   0.00   0.00   0.00      0      0      0       0     909
 1992 331   119   116   21.0      4   3.57   4335   3504      0   5936   8675      0    0.0  0.000    837      0  0.000  0.000  0.088  0.000   1.61   0.00   0.10      0    837     82.3   0.00   0.00   1.04   4.00   4.00   4.00   4.00   4.00   3.44   3.06   0.00   0.00   0.00      0      0      0       0     939
 1992 332   120   117   21.0      4   3.53   4290   3561      0   6080   8831      0    0.0  0.000    980      0  0.000  0.000  0.090  0.000   1.62   0.00   0.11      0    980     82.2   0.00   0.00   1.05   4.00   4.00   4.00   4.00   4.00   3.62   3.17   0.00   0.00   0.00      0      0      0       0     968
 1992 333   121   118   21.0      4   3.50   4242   3626      0   6132   9010      0    0.0  0.000   1142      0  0.000  0.000  0.066  0.000   1.62   0.00   0.13      0   1142     82.5   0.00   0.00   1.06   4.00   4.00   4.00   4.00   4.00   3.69   3.21   0.00   0.00   0.00      0      0      0       0     999
 1992 334   122   119   21.0      4   3.47   4191   3706      0   6147   9239      0    0.0  0.000   1342      0  0.000  0.000  0.062  0.000   1.62   0.00   0.15      0   1342     82.9   0.00   0.00   1.08   4.00   4.00   4.00   4.00   4.00   3.72   3.23   0.00   0.00   0.00      0      0      0       0    1029
 1992 335   123   120   21.0      4   3.45   4136   3787      0   6180   9468      0    0.0  0.000   1545      0  0.000  0.000  0.058  0.000   1.62   0.00   0.16      0   1545     83.3   0.00   0.00   1.09   4.00   4.00   4.00   4.00   4.00   3.78   3.27   0.00   0.00   0.00      0      0      0       0    1060
 1992 336   124   121   21.0      4   3.42   4079   3845      0   6325   9615      0    0.0  0.000   1690      0  0.000  0.000  0.055  0.000   1.62   0.00   0.18      0   1690     83.9   0.00   0.00   1.10   4.00   4.00   4.00   4.00   4.00   3.94   3.39   0.12   0.00   0.00      0      0      0       0    1091
 1992 337   125   122   21.0      4   3.40   4021   3892      0   6495   9721      0    0.0  0.000   1808      0  0.000  0.000  0.053  0.000   1.63   0.00   0.19      0   1808     84.6   0.00   0.00   1.11   4.00   4.00   4.00   4.00   4.00   4.00   3.52   0.29   0.00   0.00      0      0      0       0    1123
 1992 338   126   123   21.0      4   3.38   3960   3949      0   6611   9859      0    0.0  0.000   1950      0  0.000  0.000  0.050  0.000   1.70   0.00   0.20      0   1950     85.3   0.00   0.00   1.11   4.00   4.00   4.00   4.00   4.00   4.00   3.51   0.31   0.00   0.00      0      0      0       0    1155
 1992 339   127   124   21.0      4   3.36   3896   4023      0   6738  10053      0    0.0  0.000   2134      0  0.000  0.000  0.041  0.000   1.72   0.00   0.21      0   2134     86.3   0.00   0.00   1.12   4.00   4.00   4.00   4.00   4.00   4.00   3.51   0.34   0.00   0.00      0      0      0       0    1188
 1992 340   128   125   21.0      4   3.35   3830   4096      0   6755  10242      0    0.0  0.000   2317      0  0.000  0.000  0.036  0.000   1.73   0.00   0.23      0   2317     87.4   0.00   0.00   1.13   4.00   4.00   4.00   4.00   4.00   4.00   3.51   0.36   0.00   0.00      0      0      0       0    1222
 1992 341   129   126   21.0      4   3.33   3760   4188      0   6802  10494      0    0.0  0.000   2547      0  0.000  0.000  0.032  0.000   1.74   0.00   0.24      0   2547     88.7   0.00   0.00   1.14   4.00   4.00   4.00   4.00   4.00   4.00   3.55   0.46   0.00   0.00      0      0      0       0    1256
 1992 342   130   127   21.0      4   3.32   3687   4261      0   6863  10679      0    0.0  0.000   2730      0  0.000  0.000  0.030  0.000   1.74   0.00   0.26      0   2730     90.1   0.00   0.00   1.15   4.00   4.00   4.00   4.00   4.00   4.00   3.60   0.57   0.00   0.00      0      0      0       0    1290
 1992 343   131   128   21.0      4   3.31   3612   4338      0   6940  10871      0    0.0  0.000   2922      0  0.000  0.000  0.028  0.000   1.74   0.00   0.27      0   2922     91.6   0.00   0.00   1.16   4.00   4.00   4.00   4.00   4.00   4.00   3.66   0.71   0.00   0.00      0      0      0       0    1324
 1992 344   132   129   21.0      4   3.30   3533   4416      0   6970  11067      0    0.0  0.000   3118      0  0.000  0.000  0.026  0.000   1.75   0.00   0.28      0   3118     93.4   0.00   0.00   1.17   4.00   4.00   4.00   4.00   4.00   4.00   3.69   0.78   0.00   0.00      0      0      0       0    1359
 1992 345   133   130   21.0      5   3.30   3533   4416    287   6975  11355   3831    7.5  0.025   3405      7  0.000  0.000  0.008  0.000   1.69   8.44   0.30      0   3405     93.3   0.00   0.00   1.18   4.00   4.00   4.00   4.00   4.00   4.00   3.70   0.81   0.00   0.00      0      0      0       0    1394
 1992 346   134   131   21.0      5   3.29   3533   4416    542   6988  11609   3831   14.1  0.047   3660      7  0.000  0.000  0.023  0.000   1.65  14.81   0.32      0   3660     93.0   0.00   0.00   1.19   4.00   4.00   4.00   4.00   4.00   4.00   3.71   0.85   0.00   0.00      0      0      0       0    1428
 1992 347   135   132   21.0      5   3.27   3533   4416    779   7035  11846   3831   20.3  0.066   3897      7  0.000  0.000  0.030  0.000   1.60  19.99   0.33      0   3897     92.7   0.00   0.00   1.20   4.00   4.00   4.00   4.00   4.00   4.00   3.76   0.90   0.00   0.00      0      0      0       0    1463
 1992 348   136   133   21.0      5   3.26   3533   4416   1066   7076  12134   3831   27.8  0.088   4184      7  0.000  0.000  0.035  0.000   1.55  25.49   0.34      0   4184     92.3   0.00   0.00   1.21   4.00   4.00   4.00   4.00   4.00   4.00   3.80   0.93   0.00   0.00      0      0      0       0    1499
 1992 349   137   134   21.0      5   3.24   3533   4416   1343   7107  12410   3831   35.1  0.108   4461      7  0.000  0.000  0.043  0.000   1.50  30.11   0.36      0   4461     91.8   0.00   0.00   1.22   4.00   4.00   4.00   4.00   4.00   4.00   3.83   0.94   0.00   0.00      0      0      0       0    1534
 1992 350   138   135   21.0      5   3.22   3533   4416   1549   7162  12616   3831   40.4  0.123   4666      7  0.000  0.000  0.053  0.000   1.47  33.19   0.37      0   4666     91.1   0.00   0.00   1.23   4.00   4.00   4.00   4.00   4.00   4.00   3.88   0.97   0.00   0.00      0      0      0       0    1569
 1992 351   139   136   21.0      5   3.20   3533   4416   1804   7177  12872   3831   47.1  0.140   4922      7  0.000  0.000  0.057  0.000   1.43  36.66   0.38      0   4922     90.5   0.00   0.00   1.24   4.00   4.00   4.00   4.00   4.00   4.00   3.90   0.99   0.00   0.00      0      0      0       0    1605
 1992 352   140   137   21.0      5   3.17   3533   4416   2092   7159  13159   3831   54.6  0.159   5210      7  0.000  0.000  0.064  0.000   1.38  40.15   0.40      0   5210     89.8   0.00   0.00   1.25   4.00   4.00   4.00   4.00   4.00   4.00   3.89   0.99   0.00   0.00      0      0      0       0    1641
 1992 353   141   138   21.0      5   3.14   3533   4416   2378   7187  13445   3831   62.1  0.177   5496      7  0.000  0.000  0.073  0.000   1.33  43.27   0.41      0   5496     89.0   0.00   0.00   1.25   4.00   4.00   4.00   4.00   4.00   4.00   3.92   1.01   0.00   0.00      0      0      0       0    1677
 1992 354   142   139   21.0      5   3.11   3533   4416   2665   7160  13732   3831   69.6  0.194   5783      7  0.000  0.000  0.082  0.000   1.29  46.09   0.42      0   5783     88.0   0.00   0.00   1.25   4.00   4.00   4.00   3.99   3.99   3.99   3.91   1.00   0.00   0.00      0      0      0       0    1713
 1992 355   143   140   21.0      5   3.08   3533   4416   2953   7194  14020   3831   77.1  0.211   6070      7  0.000  0.000  0.089  0.000   1.24  48.64   0.43      0   6070     87.1   0.00   0.00   1.25   4.00   4.00   4.00   4.00   4.00   4.00   3.95   1.03   0.00   0.00      0      0      0       0    1749
 1992 356   144   141   21.0      5   3.04   3533   4416   3240   7198  14307   3831   84.6  0.226   6358      7  0.000  0.000  0.098  0.000   1.20  50.96   0.44      0   6358     86.0   0.00   0.00   1.25   4.00   4.00   4.00   4.00   4.00   4.00   3.96   1.04   0.00   0.00      0      0      0       0    1785
 1992 357   145   142   21.0      5   3.00   3533   4324   3527   7162  14502   3831   92.1  0.243   6645      7  0.000  0.000  0.107  0.000   1.17  53.08   0.46      0   6645     84.9   0.00   0.00   1.25   4.00   4.00   4.00   4.00   4.00   4.00   3.96   1.04   0.00   0.00      0      0      0       0    1821
 1992 358   146   143   21.0      5   2.95   3533   4229   3815   7127  14694   3831   99.6  0.260   6932      7  0.000  0.000  0.116  0.000   1.14  55.03   0.47      0   6932     83.6   0.00   0.00   1.25   4.00   4.00   4.00   4.00   4.00   4.00   3.96   1.04   0.00   0.00      0      0      0       0    1856
 1992 359   147   144   21.0      5   2.91   3533   4322   4102   7138  15075   3831  107.1  0.272   7220      7  0.000  0.000  0.120  0.000   1.09  56.82   0.48      0   7220     82.4   0.00   0.00   1.25   4.00   4.00   4.00   4.00   4.00   4.00   3.97   1.05   0.00   0.00      0      0      0       0    1892
 1992 360   148   145   21.0      5   2.86   3533   4386   4360   7134  15397   3831  113.8  0.283   7478      7  0.000  0.000  0.125  0.000   1.04  58.31   0.49      0   7478     81.1   0.00   0.00   1.25   4.00   4.00   4.00   4.00   4.00   4.00   3.98   1.06   0.00   0.00      0      0      0       0    1928
 1992 361   149   146   21.0      5   2.81   3533   4416   4596   7169  15663   3831  120.0  0.293   7714      7  0.000  0.000  0.141  0.000   1.01  59.58   0.49      0   7714     79.7   0.00   0.00   1.25   4.00   4.00   4.00   4.00   4.00   4.00   4.00   1.08   0.00   0.00      0      0      0       0    1963
 1992 362   150   147   21.0      5   2.76   3533   4416   4832   7200  15899   3831  126.1  0.304   7950      7  0.000  0.000  0.152  0.000   0.98  60.78   0.50      0   7950     78.1   0.00   0.00   1.25   4.00   4.00   4.00   4.00   4.00   4.00   4.00   1.10   0.00   0.00      0      0      0       0    1999
 1992 363   151   148   21.0      5   2.71   3533   4416   5119   7212  16186   3831  133.6  0.316   8237      7  0.000  0.000  0.161  0.000   0.94  62.15   0.51      0   8237     76.6   0.00   0.00   1.25   4.00   4.00   4.00   4.00   4.00   4.00   4.00   1.12   0.00   0.00      0      0      0       0    2035
 1992 364   152   149   21.0      5   2.65   3533   4272   5406   7176  16329   3831  141.1  0.331   8524      7  0.000  0.000  0.171  0.000   0.92  63.43   0.52      0   8524     74.9   0.00   0.00   1.25   4.00   4.00   4.00   4.00   4.00   4.00   4.00   1.12   0.00   0.00      0      0      0       0    2071
 1992 365   153   150   21.0      5   2.59   3533   4149   5669   7140  16470   3831  148.0  0.344   8787      7  0.000  0.000  0.182  0.000   0.91  64.52   0.53      0   8787     73.2   0.00   0.00   1.25   4.00   4.00   4.00   4.00   4.00   4.00   4.00   1.12   0.00   0.00      0      0      0       0    2107
 1992 366   154   151   21.0      5   2.53   3533   4067   5891   7104  16609   3831  153.8  0.355   9009      7  0.000  0.000  0.184  0.000   0.89  65.39   0.54      0   9009     71.5   0.00   0.00   1.25   4.00   4.00   4.00   4.00   4.00   4.00   4.00   1.12   0.00   0.00      0      0      0       0    2143
 1993 001   155   152   21.0      5   2.47   3533   3966   6129   7069  16747   3831  160.0  0.366   9247      7  0.000  0.000  0.185  0.000   0.87  66.28   0.55      0   9247     69.9   0.00   0.00   1.25   4.00   4.00   4.00   4.00   4.00   4.00   4.00   1.12   0.00   0.00      0      0      0       0    2178
 1993 002   156   153   21.0      5   2.41   3533   3859   6372   7033  16883   3831  166.3  0.377   9490      7  0.000  0.000  0.192  0.212   0.85  67.15   0.56      0   9490     68.2   0.00   0.00   1.25   4.00   4.00   4.00   4.00   4.00   4.00   4.00   1.12   0.00   0.00      0      0      0       0    2214
 1993 003   157   154   21.0      5   2.35   3533   3746   6620   6998  17017   3831  172.8  0.389   9738      7  0.000  0.000  0.197  0.558   0.83  67.98   0.57      0   9738     66.5   0.00   0.00   1.25   4.00   4.00   4.00   4.00   4.00   4.00   4.00   1.12   0.00   0.00      0      0      0       0    2249
 1993 004   158   155   21.0      5   2.29   3533   3675   6907   6963  17233   3831  180.3  0.401  10025      7  0.000  0.000  0.204  0.554   0.80  68.90   0.58      0  10025     64.8   0.00   0.00   1.25   4.00   4.00   4.00   4.00   4.00   4.00   4.00   1.12   0.00   0.00      0      0      0       0    2284
 1993 005   159   156   21.0      5   2.23   3533   3696   7195   6939  17542   3831  187.8  0.410  10312      7  0.000  0.000  0.226  0.261   0.76  69.77   0.59      0  10312     63.2   0.00   0.00   1.25   3.95   3.95   3.95   3.93   3.92   3.92   3.92   1.09   0.00   0.00      0      0      0       0    2319
 1993 006   160   157   21.0      5   2.17   3533   3753   7482   6933  17886   3831  195.3  0.418  10600      7  0.000  0.000  0.254  0.061   0.73  70.59   0.59      0  10600     61.4   0.00   0.00   1.25   4.00   4.00   4.00   3.95   3.94   3.93   3.92   1.10   0.00   0.00      0      0      0       0    2353
 1993 007   161   158   21.0      5   2.11   3533   3622   7769   6898  18042   3831  202.8  0.431  10887      7  0.000  0.000  0.296  0.030   0.71  71.36   0.60      0  10887     59.7   0.00   0.00   1.25   4.00   4.00   4.00   3.95   3.94   3.93   3.92   1.10   0.00   0.00      0      0      0       0    2388
 1993 008   162   159   21.0      5   2.04   3533   3567   8057   6863  18274   3831  210.3  0.441  11174      7  0.000  0.000  0.346  0.200   0.69  72.10   0.61      0  11174     57.8   0.00   0.00   1.25   4.00   4.00   4.00   3.95   3.94   3.93   3.92   1.10   0.00   0.00      0      0      0       0    2423
 1993 009   163   160   21.0      5   1.98   3533   3605   8319   6848  18575   3831  217.2  0.448  11437      7  0.000  0.000  0.365  0.096   0.66  72.74   0.62      0  11437     56.0   0.00   0.00   1.25   4.00   4.00   4.00   3.95   3.95   3.93   3.92   1.10   0.00   0.00      0      0      0       0    2457
 1993 010   164   161   21.0      5   1.91   3533   3622   8607   6823  18880   3831  224.7  0.456  11724      7  0.000  0.000  0.393  0.034   0.63  73.41   0.62      0  11724     54.1   0.00   0.00   1.25   4.00   4.00   4.00   3.95   3.94   3.92   3.90   1.10   0.00   0.00      0      0      0       0    2491
 1993 011   165   162   21.0      5   1.85   3533   3629   8894   6792  19174   3831  232.2  0.464  12012      7  0.000  0.000  0.432  0.000   0.61  74.04   0.63      0  12012     52.2   0.00   0.00   1.25   3.99   3.99   3.99   3.93   3.92   3.90   3.89   1.09   0.00   0.00      0      0      0       0    2525
 1993 012   166   163   21.0      5   1.78   3533   3618   9181   6758  19450   3831  239.7  0.472  12299      7  0.000  0.000  0.466  0.000   0.59  74.65   0.63      0  12299     50.3   0.00   0.00   1.25   3.99   3.99   3.99   3.93   3.92   3.90   3.89   1.09   0.00   0.00      0      0      0       0    2559
 1993 013   167   164   21.0      5   1.71   3533   3519   9469   6724  19639   3831  247.2  0.482  12586      7  0.000  0.000  0.494  0.000   0.58  75.23   0.64      0  12586     48.5   0.00   0.00   1.25   3.99   3.99   3.99   3.93   3.92   3.90   3.89   1.09   0.00   0.00      0      0      0       0    2593
 1993 014   168   165   21.0      5   1.65   3533   3367   9756   6691  19774   3831  254.7  0.493  12874      7  0.000  0.000  0.522  0.000   0.58  75.78   0.65      0  12874     46.6   0.00   0.00   1.25   3.99   3.99   3.99   3.93   3.92   3.90   3.89   1.09   0.00   0.00      0      0      0       0    2627
 1993 015   169   166   21.0      5   1.65   3533   3367   9756   6691  19774   3831  254.7  0.493  12874      7  0.000  0.000  0.522  0.000   0.58  75.78   0.65      0  12874     46.6   0.00   0.00   1.25   3.99   3.99   3.99   3.93   3.92   3.90   3.89   1.09   0.00   0.00      0      0      0       0    2627
 1993 016   170   167   21.0      5   1.65   3533   3367   9756   6691  19774   3831  254.7  0.493  12874      7  0.000  0.000  0.522  0.000   0.58  75.78   0.65      0  12874     46.6   0.00   0.00   1.25   3.99   3.99   3.99   3.93   3.92   3.90   3.89   1.09   0.00   0.00      0      0      0       0    2627
 1993 017   171   168   21.0      5   1.65   3533   3367   9756   6691  19774   3831  254.7  0.493  12874      7  0.000  0.000  0.522  0.000   0.58  75.78   0.65      0  12874     46.6   0.00   0.00   1.25   3.99   3.99   3.99   3.93   3.92   3.90   3.89   1.09   0.00   0.00      0      0      0       0    2627
 1993 018   172   169   21.0      5   1.65   3533   3367   9756   6691  19774   3831  254.7  0.493  12874      7  0.000  0.000  0.522  0.000   0.58  75.78   0.65      0  12874     46.6   0.00   0.00   1.25   3.99   3.99   3.99   3.93   3.92   3.90   3.89   1.09   0.00   0.00      0      0      0       0    2627
