*SOIL WATER DAILY OUTPUT FILE

*DSSAT Cropping System Model Ver. 4.0.2.000               Aug 03, 2016; 15:30:22

*RUN   1        : UYMZ                    
 MODEL          : MZCER040 - Maize           
 EXPERIMENT     : UYMZ0129 MZ    late to create DSS                             
 TREATMENT  1   : UYMZ                    

@YEAR DOY   DAS  SWXD   ROFC   DRNC   PREC  IR#C  IRRC  DTWT   SW1D   SW2D   SW3D   SW4D   SW5D   SW6D   SW7D   SW8D   SW9D   SW10
 1990 212     0   116      0      0      0     0     0   125  0.347  0.394  0.394  0.335  0.375  0.419  0.408  0.395  0.000  0.000
 1990 213     1   114      0      0      0     0     0   125  0.322  0.393  0.394  0.335  0.376  0.418  0.408  0.395  0.000  0.000
 1990 214     2   113      0      0      0     0     0   125  0.303  0.391  0.394  0.336  0.376  0.418  0.408  0.395  0.000  0.000
 1990 215     3   153      0      0      0     1    43   125  0.507  0.566  0.477  0.336  0.377  0.417  0.408  0.395  0.000  0.000
 1990 216     4   150      0      0      0     1    43   125  0.474  0.533  0.488  0.338  0.377  0.417  0.408  0.395  0.000  0.000
 1990 217     5   147      0      0      0     1    43   125  0.444  0.512  0.489  0.341  0.378  0.416  0.408  0.395  0.000  0.000
 1990 218     6   146      0      0      0     1    43   125  0.441  0.497  0.488  0.343  0.378  0.416  0.408  0.395  0.000  0.000
 1990 219     7   144      0      0      0     1    43   125  0.437  0.488  0.486  0.345  0.378  0.415  0.408  0.395  0.000  0.000
 1990 220     8   143      0      0      0     1    43   125  0.433  0.482  0.484  0.347  0.379  0.415  0.408  0.395  0.000  0.000
 1990 221     9   144      0      0      2     1    43   125  0.453  0.476  0.482  0.349  0.379  0.415  0.408  0.395  0.000  0.000
 1990 222    10   143      0      0      2     1    43   125  0.442  0.474  0.480  0.351  0.379  0.414  0.408  0.395  0.000  0.000
 1990 223    11   142      0      0      2     1    43   125  0.434  0.471  0.478  0.353  0.380  0.414  0.407  0.395  0.000  0.000
 1990 224    12   142      0      0      2     1    43   125  0.428  0.468  0.476  0.355  0.380  0.414  0.407  0.395  0.000  0.000
 1990 225    13   141      0      0      2     1    43   125  0.423  0.465  0.475  0.356  0.381  0.413  0.407  0.395  0.000  0.000
 1990 226    14   140      0      0      2     1    43   125  0.419  0.462  0.473  0.358  0.381  0.413  0.407  0.395  0.000  0.000
 1990 227    15   167      0      0     30     1    43   125  0.544  0.565  0.537  0.359  0.381  0.413  0.407  0.395  0.000  0.000
 1990 228    16   163      0      0     30     1    43   125  0.481  0.554  0.539  0.365  0.382  0.412  0.407  0.395  0.000  0.000
 1990 229    17   161      0      0     30     1    43   125  0.468  0.530  0.537  0.369  0.382  0.412  0.407  0.395  0.000  0.000
 1990 230    18   158      0      0     30     1    43   125  0.454  0.518  0.530  0.373  0.382  0.412  0.407  0.395  0.000  0.000
 1990 231    19   157      0      0     30     1    43   125  0.454  0.509  0.523  0.376  0.383  0.411  0.407  0.395  0.000  0.000
 1990 232    20   156      0      0     30     1    43   125  0.453  0.502  0.518  0.379  0.384  0.411  0.407  0.395  0.000  0.000
 1990 233    21   155      0      0     30     1    43   125  0.452  0.496  0.513  0.381  0.384  0.411  0.407  0.395  0.000  0.000
 1990 234    22   154      0      0     30     1    43   125  0.450  0.492  0.508  0.383  0.385  0.411  0.407  0.395  0.000  0.000
 1990 235    23   153      0      0     30     1    43   125  0.448  0.487  0.504  0.384  0.385  0.410  0.407  0.395  0.000  0.000
 1990 236    24   152      0      0     30     1    43   125  0.445  0.484  0.501  0.386  0.386  0.410  0.406  0.395  0.000  0.000
 1990 237    25   151      0      0     30     1    43   125  0.443  0.480  0.498  0.387  0.386  0.410  0.406  0.395  0.000  0.000
 1990 238    26   150      0      0     30     1    43   125  0.440  0.477  0.495  0.388  0.387  0.410  0.406  0.395  0.000  0.000
 1990 239    27   191      0      0     72     1    43   125  0.551  0.565  0.565  0.471  0.409  0.410  0.406  0.395  0.000  0.000
 1990 240    28   190      0      0     74     1    43   125  0.507  0.562  0.561  0.464  0.428  0.410  0.406  0.395  0.000  0.000
 1990 241    29   186      0      0     74     1    43   125  0.474  0.539  0.553  0.454  0.431  0.419  0.407  0.394  0.000  0.000
 1990 242    30   181      0      1     74     1    43   125  0.445  0.523  0.544  0.447  0.431  0.419  0.408  0.395  0.000  0.000
 1990 243    31   180      0      2     74     1    43   125  0.460  0.514  0.539  0.443  0.431  0.419  0.408  0.395  0.000  0.000
 1990 244    32   181      0      2     77     1    43   125  0.507  0.510  0.534  0.441  0.433  0.419  0.408  0.395  0.000  0.000
 1990 245    33   179      0      2     77     1    43   125  0.478  0.514  0.531  0.440  0.433  0.419  0.408  0.395  0.000  0.000
 1990 246    34   178      0      2     77     1    43   125  0.472  0.510  0.529  0.439  0.433  0.419  0.408  0.395  0.000  0.000
 1990 247    35   177      0      2     77     1    43   125  0.470  0.507  0.526  0.438  0.433  0.419  0.408  0.395  0.000  0.000
 1990 248    36   176      0      2     77     1    43   125  0.469  0.504  0.524  0.437  0.433  0.419  0.408  0.395  0.000  0.000
 1990 249    37   177      0      2     78     1    43   125  0.487  0.502  0.522  0.435  0.433  0.419  0.408  0.395  0.000  0.000
 1990 250    38   184      0      2     86     1    43   125  0.556  0.542  0.520  0.434  0.433  0.419  0.408  0.395  0.000  0.000
 1990 251    39   200      0      2    104     1    43   125  0.545  0.563  0.572  0.466  0.443  0.422  0.411  0.395  0.000  0.000
 1990 252    40   191      0      7    104     1    43   125  0.459  0.553  0.559  0.455  0.438  0.422  0.411  0.395  0.000  0.000
 1990 253    41   185      0     10    104     1    43   125  0.461  0.527  0.549  0.448  0.435  0.422  0.411  0.395  0.000  0.000
 1990 254    42   207      0     10    128     1    43   125  0.544  0.564  0.563  0.470  0.460  0.430  0.417  0.399  0.000  0.000
 1990 255    43   195      0     18    128     1    43   125  0.485  0.553  0.554  0.457  0.449  0.426  0.413  0.397  0.000  0.000
 1990 256    44   188      0     23    128     1    43   125  0.478  0.529  0.547  0.449  0.442  0.423  0.411  0.397  0.000  0.000
 1990 257    45   183      0     25    128     1    43   125  0.455  0.519  0.540  0.445  0.437  0.421  0.410  0.397  0.000  0.000
 1990 258    46   180      0     26    128     1    43   125  0.454  0.511  0.534  0.442  0.435  0.421  0.410  0.397  0.000  0.000
 1990 259    47   178      0     27    128     1    43   125  0.454  0.505  0.529  0.439  0.433  0.421  0.410  0.397  0.000  0.000
 1990 260    48   177      0     27    128     1    43   125  0.454  0.501  0.526  0.438  0.433  0.421  0.410  0.397  0.000  0.000
 1990 261    49   207      0     27    160     1    43   125  0.549  0.564  0.565  0.468  0.460  0.429  0.416  0.400  0.000  0.000
 1990 262    50   196      0     35    160     1    43   125  0.494  0.554  0.554  0.456  0.449  0.425  0.413  0.398  0.000  0.000
 1990 263    51   190      0     40    160     1    43   125  0.505  0.532  0.548  0.449  0.442  0.423  0.411  0.398  0.000  0.000
 1990 264    52   186      0     42    160     1    43   125  0.505  0.527  0.541  0.444  0.437  0.421  0.411  0.398  0.000  0.000
 1990 265    53   182      0     43    160     1    43   125  0.454  0.522  0.536  0.441  0.435  0.421  0.411  0.398  0.000  0.000
 1990 266    54   179      0     43    160     1    43   125  0.455  0.510  0.530  0.439  0.433  0.421  0.411  0.398  0.000  0.000
 1990 267    55   177      0     43    160     1    43   125  0.452  0.502  0.524  0.437  0.433  0.421  0.411  0.398  0.000  0.000
 1990 268    56   175      0     43    160     1    43   125  0.449  0.495  0.519  0.436  0.433  0.421  0.411  0.398  0.000  0.000
 1990 269    57   173      0     43    160     1    43   125  0.445  0.489  0.514  0.434  0.433  0.421  0.411  0.398  0.000  0.000
 1990 270    58   172      0     43    160     1    43   125  0.441  0.484  0.509  0.432  0.433  0.421  0.411  0.398  0.000  0.000
 1990 271    59   171      0     43    160     1    43   125  0.439  0.481  0.507  0.431  0.432  0.421  0.411  0.398  0.000  0.000
 1990 272    60   169      0     43    160     1    43   125  0.435  0.476  0.502  0.429  0.432  0.421  0.411  0.398  0.000  0.000
 1990 273    61   167      0     43    160     1    43   125  0.431  0.471  0.496  0.426  0.432  0.421  0.411  0.398  0.000  0.000
 1990 274    62   165      0     43    160     1    43   125  0.426  0.464  0.490  0.424  0.431  0.421  0.411  0.398  0.000  0.000
 1990 275    63   162      0     43    160     1    43   125  0.421  0.457  0.483  0.421  0.430  0.421  0.411  0.398  0.000  0.000
 1990 276    64   159      0     43    160     1    43   125  0.415  0.450  0.475  0.418  0.429  0.421  0.411  0.398  0.000  0.000
 1990 277    65   157      0     43    160     1    43   125  0.409  0.444  0.469  0.415  0.428  0.421  0.411  0.398  0.000  0.000
 1990 278    66   156      0     43    160     1    43   125  0.404  0.441  0.466  0.414  0.428  0.421  0.411  0.398  0.000  0.000
 1990 279    67   177      0     43    184     1    43   125  0.552  0.564  0.484  0.412  0.427  0.421  0.411  0.398  0.000  0.000
 1990 280    68   181      0     43    189     1    43   125  0.552  0.556  0.513  0.411  0.426  0.421  0.411  0.398  0.000  0.000
 1990 281    69   216      1     44    228     1    43   125  0.545  0.558  0.567  0.470  0.460  0.447  0.433  0.407  0.000  0.000
 1990 282    70   199      1     56    228     1    43   125  0.502  0.547  0.546  0.453  0.447  0.436  0.423  0.402  0.000  0.000
 1990 283    71   189      1     62    228     1    43   125  0.496  0.526  0.534  0.444  0.440  0.429  0.417  0.399  0.000  0.000
 1990 284    72   184      1     65    228     1    43   125  0.500  0.517  0.529  0.439  0.436  0.425  0.413  0.398  0.000  0.000
 1990 285    73   215      1     67    266     1    43   125  0.540  0.557  0.557  0.464  0.459  0.447  0.439  0.411  0.000  0.000
 1990 286    74   198      1     78    266     1    43   125  0.505  0.541  0.542  0.448  0.446  0.436  0.427  0.405  0.000  0.000
 1990 287    75   187      1     84    266     1    43   125  0.498  0.522  0.530  0.438  0.438  0.429  0.419  0.401  0.000  0.000
 1990 288    76   180      1     87    266     1    43   125  0.482  0.510  0.521  0.431  0.431  0.425  0.415  0.398  0.000  0.000
 1990 289    77   173      1     88    266     1    43   125  0.465  0.500  0.513  0.425  0.426  0.422  0.412  0.397  0.000  0.000
 1990 290    78   170      1     89    266     1    43   125  0.461  0.492  0.507  0.420  0.423  0.421  0.410  0.397  0.000  0.000
 1990 291    79   164      1     89    266     1    43   125  0.442  0.483  0.499  0.413  0.417  0.420  0.410  0.397  0.000  0.000
 1990 292    80   168      1     89    274     1    43   125  0.559  0.492  0.493  0.408  0.412  0.419  0.410  0.397  0.000  0.000
 1990 293    81   170      1     89    279     1    43   125  0.523  0.545  0.490  0.404  0.407  0.419  0.410  0.397  0.000  0.000
 1990 294    82   165      1     89    279     1    43   125  0.518  0.523  0.488  0.398  0.401  0.418  0.410  0.397  0.000  0.000
 1990 295    83   159      1     89    279     1    43   125  0.496  0.509  0.484  0.391  0.394  0.416  0.410  0.397  0.000  0.000
 1990 296    84   155      1     89    279     1    43   125  0.484  0.497  0.479  0.385  0.389  0.415  0.410  0.397  0.000  0.000
 1990 297    85   150      1     89    279     1    43   125  0.473  0.486  0.473  0.381  0.385  0.413  0.410  0.397  0.000  0.000
 1990 298    86   147      1     89    279     1    43   125  0.466  0.478  0.469  0.379  0.382  0.411  0.410  0.397  0.000  0.000
 1990 299    87   142      1     89    279     1    43   125  0.450  0.467  0.460  0.375  0.378  0.407  0.410  0.397  0.000  0.000
 1990 300    88   137      1     89    279     1    43   125  0.439  0.457  0.453  0.372  0.375  0.404  0.410  0.397  0.000  0.000
 1990 301    89   135      1     89    279     1    43   125  0.437  0.452  0.449  0.371  0.374  0.403  0.410  0.397  0.000  0.000
 1990 302    90   138      1     89    285     1    43   125  0.539  0.447  0.445  0.369  0.373  0.400  0.409  0.397  0.000  0.000
 1990 303    91   153      1     89    306     1    43   125  0.521  0.571  0.484  0.366  0.370  0.396  0.409  0.397  0.000  0.000
 1990 304    92   147      1     89    306     1    43   125  0.524  0.530  0.486  0.364  0.367  0.391  0.409  0.397  0.000  0.000
 1990 305    93   144      1     89    308     1    43   125  0.547  0.517  0.479  0.363  0.365  0.388  0.408  0.397  0.000  0.000
 1990 306    94   140      1     89    308     1    43   125  0.515  0.512  0.473  0.362  0.363  0.384  0.408  0.397  0.000  0.000
 1990 307    95   137      1     89    308     1    43   125  0.506  0.502  0.469  0.362  0.362  0.383  0.408  0.397  0.000  0.000
 1990 308    96   166      1     89    341     1    43   125  0.555  0.556  0.560  0.418  0.360  0.380  0.407  0.397  0.000  0.000
 1990 309    97   161      1     89    341     1    43   125  0.537  0.542  0.542  0.422  0.360  0.378  0.406  0.397  0.000  0.000
 1990 310    98   157      1     89    341     1    43   125  0.532  0.535  0.535  0.417  0.361  0.376  0.405  0.397  0.000  0.000
 1990 311    99   154      1     89    343     1    43   125  0.549  0.533  0.526  0.410  0.361  0.374  0.402  0.397  0.000  0.000
 1990 312   100   153      1     89    343     1    43   125  0.534  0.533  0.524  0.408  0.361  0.374  0.401  0.397  0.000  0.000
 1990 313   101   149      1     89    343     1    43   125  0.524  0.526  0.519  0.403  0.361  0.373  0.399  0.397  0.000  0.000
 1990 314   102   145      1     89    343     1    43   125  0.523  0.517  0.512  0.397  0.361  0.371  0.395  0.396  0.000  0.000
 1990 315   103   140      1     89    343     1    43   125  0.505  0.510  0.504  0.390  0.360  0.370  0.391  0.396  0.000  0.000
 1990 316   104   138      1     89    343     1    43   125  0.501  0.504  0.499  0.387  0.360  0.369  0.389  0.396  0.000  0.000
 1990 317   105   131      1     89    343     1    43   125  0.485  0.493  0.489  0.380  0.359  0.367  0.383  0.395  0.000  0.000
 1990 318   106   129      1     89    345     1    43   125  0.517  0.485  0.482  0.377  0.358  0.366  0.379  0.395  0.000  0.000
 1990 319   107   127      1     89    345     1    43   125  0.498  0.487  0.478  0.376  0.358  0.366  0.378  0.394  0.000  0.000
 1990 320   108   177      1     89    398     1    43   125  0.553  0.562  0.562  0.467  0.442  0.369  0.375  0.394  0.000  0.000
 1990 321   109   171      1     89    398     1    43   125  0.534  0.547  0.546  0.448  0.429  0.383  0.372  0.393  0.000  0.000
 1990 322   110   164      1     89    398     1    43   125  0.527  0.534  0.537  0.437  0.423  0.383  0.370  0.393  0.000  0.000
 1990 323   111   158      1     89    398     1    43   125  0.517  0.525  0.529  0.428  0.415  0.380  0.367  0.392  0.000  0.000
 1990 324   112   155      1     89    398     1    43   125  0.515  0.520  0.524  0.424  0.411  0.378  0.366  0.391  0.000  0.000
 1990 325   113   149      1     89    400     1    43   125  0.530  0.512  0.515  0.416  0.403  0.375  0.364  0.391  0.000  0.000
 1990 326   114   143      1     89    400     1    43   125  0.503  0.509  0.507  0.408  0.395  0.373  0.362  0.390  0.000  0.000
 1990 327   115   136      1     89    400     1    43   125  0.490  0.500  0.499  0.400  0.387  0.371  0.360  0.388  0.000  0.000
 1990 328   116   131      1     89    400     1    43   125  0.479  0.490  0.491  0.393  0.382  0.368  0.358  0.386  0.000  0.000
 1990 329   117   126      1     89    400     1    43   125  0.471  0.482  0.484  0.387  0.379  0.367  0.357  0.384  0.000  0.000
 1990 330   118   142      1     89    421     1    43   125  0.558  0.559  0.525  0.382  0.376  0.365  0.356  0.381  0.000  0.000
 1990 331   119   136      1     89    421     1    43   125  0.534  0.539  0.522  0.379  0.372  0.363  0.354  0.378  0.000  0.000
 1990 332   120   129      1     89    421     1    43   125  0.520  0.524  0.512  0.376  0.369  0.361  0.353  0.373  0.000  0.000
 1990 333   121   123      1     89    421     1    43   125  0.503  0.511  0.501  0.374  0.366  0.359  0.351  0.367  0.000  0.000
 1990 334   122   119      1     89    421     1    43   125  0.497  0.502  0.495  0.373  0.365  0.358  0.350  0.364  0.000  0.000
 1990 335   123   114      1     89    421     1    43   125  0.484  0.492  0.486  0.371  0.363  0.357  0.349  0.360  0.000  0.000
 1990 336   124   113      1     89    421     1    43   125  0.481  0.486  0.481  0.370  0.362  0.356  0.349  0.358  0.000  0.000
 1990 337   125   116      1     89    431     1    43   125  0.550  0.530  0.470  0.367  0.360  0.355  0.347  0.354  0.000  0.000
 1990 338   126   110      1     89    431     1    43   125  0.516  0.517  0.463  0.365  0.358  0.353  0.346  0.351  0.000  0.000
 1990 339   127   106      1     89    431     1    43   125  0.502  0.503  0.458  0.363  0.357  0.352  0.345  0.349  0.000  0.000
 1990 340   128   144      1     89    473     1    43   125  0.555  0.556  0.563  0.455  0.368  0.351  0.344  0.347  0.000  0.000
 1990 341   129   199      3     89    536     1    43   125  0.549  0.558  0.559  0.459  0.460  0.446  0.411  0.348  0.000  0.000
 1990 342   130   192      3     89    536     1    43   125  0.531  0.547  0.547  0.445  0.443  0.430  0.405  0.395  0.000  0.000
 1990 343   131   188      3     91    536     1    43   125  0.537  0.539  0.544  0.441  0.437  0.424  0.407  0.394  0.000  0.000
 1990 344   132   222      6    124    606     1    43   125  0.565  0.567  0.566  0.468  0.459  0.446  0.438  0.430  0.000  0.000
 1990 345   133   202      6    138    606     1    43   125  0.541  0.555  0.554  0.450  0.445  0.433  0.420  0.412  0.000  0.000
 1990 346   134   193      6    144    606     1    43   125  0.534  0.547  0.547  0.442  0.438  0.425  0.412  0.403  0.000  0.000
 1990 347   135   186      6    147    606     1    43   125  0.531  0.539  0.543  0.437  0.432  0.420  0.407  0.397  0.000  0.000
 1990 348   136   180      6    147    606     1    43   125  0.523  0.533  0.537  0.433  0.428  0.416  0.403  0.394  0.000  0.000
 1990 349   137   173      6    147    606     1    43   125  0.513  0.526  0.531  0.428  0.422  0.410  0.398  0.390  0.000  0.000
 1990 350   138   167      6    147    606     1    43   125  0.504  0.519  0.524  0.423  0.417  0.406  0.393  0.386  0.000  0.000
 1990 351   139   164      6    147    606     1    43   125  0.504  0.514  0.520  0.421  0.415  0.403  0.390  0.384  0.000  0.000
 1990 352   140   194      6    147    642     1    43   125  0.557  0.562  0.562  0.465  0.456  0.417  0.389  0.381  0.000  0.000
 1990 353   141   187      6    147    642     1    43   125  0.531  0.549  0.549  0.449  0.441  0.414  0.403  0.386  0.000  0.000
 1990 354   142   180      6    147    642     1    43   125  0.521  0.536  0.541  0.440  0.432  0.414  0.400  0.382  0.000  0.000
 1990 355   143   174      6    147    642     1    43   125  0.515  0.529  0.535  0.435  0.427  0.410  0.396  0.379  0.000  0.000
 1990 356   144   200      6    147    670     1    43   125  0.570  0.564  0.565  0.468  0.459  0.425  0.402  0.378  0.000  0.000
 1990 357   145   192      6    150    670     1    43   125  0.544  0.552  0.554  0.452  0.444  0.419  0.404  0.393  0.000  0.000
 1990 358   146   204      6    150    684     1    43   125  0.558  0.566  0.566  0.468  0.458  0.426  0.410  0.394  0.000  0.000
 1990 359   147   191      6    157    684     1    43   125  0.531  0.554  0.554  0.453  0.444  0.418  0.403  0.390  0.000  0.000
 1990 360   148   183      6    157    684     1    43   125  0.514  0.540  0.546  0.442  0.435  0.413  0.402  0.390  0.000  0.000
 1990 361   149   175      6    157    684     1    43   125  0.506  0.528  0.537  0.435  0.428  0.410  0.396  0.386  0.000  0.000
 1990 362   150   169      6    157    684     1    43   125  0.496  0.520  0.531  0.430  0.423  0.405  0.392  0.383  0.000  0.000
 1990 363   151   163      6    157    684     1    43   125  0.485  0.513  0.524  0.426  0.419  0.401  0.388  0.380  0.000  0.000
 1990 364   152   156      6    157    684     1    43   125  0.476  0.505  0.518  0.421  0.414  0.397  0.384  0.376  0.000  0.000
 1990 365   153   149      6    157    684     1    43   125  0.456  0.497  0.511  0.416  0.409  0.392  0.379  0.372  0.000  0.000
 1991 001   154   143      6    157    684     1    43   125  0.443  0.489  0.504  0.412  0.405  0.389  0.376  0.369  0.000  0.000
 1991 002   155   138      6    157    684     1    43   125  0.428  0.480  0.498  0.407  0.400  0.386  0.374  0.366  0.000  0.000
 1991 003   156   131      6    157    684     1    43   125  0.412  0.472  0.491  0.402  0.395  0.383  0.371  0.363  0.000  0.000
 1991 004   157   125      6    157    684     1    43   125  0.401  0.462  0.483  0.396  0.389  0.379  0.368  0.360  0.000  0.000
 1991 005   158   119      6    157    684     1    43   125  0.392  0.453  0.475  0.389  0.384  0.376  0.365  0.357  0.000  0.000
 1991 006   159   112      6    157    684     1    43   125  0.384  0.443  0.466  0.383  0.380  0.374  0.363  0.355  0.000  0.000
 1991 007   160   106      6    157    684     1    43   125  0.376  0.433  0.457  0.377  0.376  0.371  0.360  0.352  0.000  0.000
 1991 008   161   129      6    157    684     2    73   125  0.530  0.559  0.489  0.372  0.372  0.368  0.357  0.349  0.000  0.000
 1991 009   162   126      6    157    684     2    73   125  0.524  0.535  0.495  0.373  0.371  0.367  0.357  0.349  0.000  0.000
 1991 010   163   125      6    157    690     2    73   125  0.525  0.542  0.498  0.371  0.368  0.365  0.355  0.347  0.000  0.000
 1991 011   164   120      6    157    690     2    73   125  0.494  0.521  0.493  0.370  0.366  0.363  0.353  0.345  0.000  0.000
 1991 012   165   113      6    157    690     2    73   125  0.460  0.502  0.485  0.368  0.364  0.362  0.351  0.344  0.000  0.000
 1991 013   166   109      6    157    690     2    73   125  0.441  0.487  0.479  0.368  0.363  0.360  0.350  0.343  0.000  0.000
 1991 014   167   102      6    157    690     2    73   125  0.400  0.471  0.469  0.366  0.361  0.359  0.349  0.341  0.000  0.000

*DSSAT Cropping System Model Ver. 4.0.2.000               Aug 03, 2016; 15:30:22

*RUN   2        : UYMZ                    
 MODEL          : MZCER040 - Maize           
 EXPERIMENT     : UYMZ0129 MZ    late to create DSS                             
 TREATMENT  1   : UYMZ                    

@YEAR DOY   DAS  SWXD   ROFC   DRNC   PREC  IR#C  IRRC  DTWT   SW1D   SW2D   SW3D   SW4D   SW5D   SW6D   SW7D   SW8D   SW9D   SW10
 1991 212     0   142      0      0     26     0     0   125  0.523  0.557  0.401  0.335  0.375  0.419  0.408  0.395  0.000  0.000
 1991 213     1   139      0      0     26     0     0   125  0.489  0.533  0.411  0.335  0.376  0.418  0.408  0.395  0.000  0.000
 1991 214     2   137      0      0     26     0     0   125  0.480  0.512  0.415  0.336  0.376  0.418  0.408  0.395  0.000  0.000
 1991 215     3   160      0      0     51     0     0   125  0.534  0.555  0.519  0.337  0.377  0.417  0.408  0.395  0.000  0.000
 1991 216     4   186      0      0     78     0     0   125  0.559  0.559  0.568  0.448  0.381  0.417  0.408  0.395  0.000  0.000
 1991 217     5   183      0      0     78     0     0   125  0.495  0.552  0.558  0.442  0.404  0.416  0.408  0.395  0.000  0.000
 1991 218     6   182      0      0     78     0     0   125  0.514  0.533  0.550  0.439  0.416  0.416  0.408  0.395  0.000  0.000
 1991 219     7   181      0      0     78     0     0   125  0.499  0.530  0.544  0.439  0.421  0.416  0.408  0.395  0.000  0.000
 1991 220     8   179      0      0     78     0     0   125  0.491  0.525  0.540  0.438  0.421  0.416  0.408  0.395  0.000  0.000
 1991 221     9   178      0      0     78     0     0   125  0.490  0.521  0.537  0.437  0.422  0.416  0.408  0.395  0.000  0.000
 1991 222    10   177      0      0     78     0     0   125  0.489  0.518  0.534  0.436  0.422  0.416  0.408  0.395  0.000  0.000
 1991 223    11   176      0      0     78     0     0   125  0.475  0.515  0.531  0.435  0.423  0.416  0.408  0.395  0.000  0.000
 1991 224    12   175      0      0     78     0     0   125  0.471  0.511  0.528  0.434  0.423  0.416  0.408  0.395  0.000  0.000
 1991 225    13   174      0      0     78     0     0   125  0.470  0.507  0.526  0.433  0.423  0.416  0.408  0.395  0.000  0.000
 1991 226    14   173      0      0     78     0     0   125  0.469  0.504  0.523  0.432  0.423  0.416  0.407  0.395  0.000  0.000
 1991 227    15   172      0      0     78     0     0   125  0.468  0.501  0.521  0.431  0.424  0.416  0.407  0.395  0.000  0.000
 1991 228    16   172      0      0     78     0     0   125  0.467  0.499  0.519  0.431  0.424  0.416  0.407  0.395  0.000  0.000
 1991 229    17   171      0      0     78     0     0   125  0.467  0.497  0.517  0.430  0.424  0.416  0.407  0.395  0.000  0.000
 1991 230    18   170      0      0     78     0     0   125  0.466  0.496  0.515  0.429  0.424  0.416  0.407  0.395  0.000  0.000
 1991 231    19   170      0      0     78     0     0   125  0.465  0.494  0.514  0.428  0.424  0.416  0.407  0.395  0.000  0.000
 1991 232    20   169      0      0     78     0     0   125  0.464  0.493  0.512  0.427  0.424  0.416  0.407  0.395  0.000  0.000
 1991 233    21   169      0      0     78     0     0   125  0.463  0.491  0.511  0.426  0.424  0.416  0.407  0.395  0.000  0.000
 1991 234    22   168      0      0     78     0     0   125  0.462  0.490  0.509  0.426  0.424  0.416  0.407  0.395  0.000  0.000
 1991 235    23   168      0      0     78     0     0   125  0.461  0.488  0.508  0.425  0.423  0.416  0.407  0.395  0.000  0.000
 1991 236    24   167      0      0     78     0     0   125  0.459  0.486  0.507  0.424  0.423  0.416  0.407  0.395  0.000  0.000
 1991 237    25   166      0      0     78     0     0   125  0.458  0.485  0.505  0.424  0.423  0.416  0.407  0.395  0.000  0.000
 1991 238    26   166      0      0     78     0     0   125  0.457  0.484  0.504  0.423  0.423  0.416  0.407  0.395  0.000  0.000
 1991 239    27   167      0      0     80     0     0   125  0.483  0.482  0.503  0.422  0.423  0.416  0.407  0.395  0.000  0.000
 1991 240    28   166      0      0     80     0     0   125  0.473  0.484  0.502  0.422  0.423  0.416  0.407  0.395  0.000  0.000
 1991 241    29   166      0      0     80     0     0   125  0.467  0.484  0.501  0.421  0.422  0.416  0.407  0.395  0.000  0.000
 1991 242    30   165      0      0     80     0     0   125  0.463  0.483  0.500  0.421  0.422  0.415  0.407  0.395  0.000  0.000
 1991 243    31   166      0      0     82     0     0   125  0.487  0.482  0.499  0.420  0.422  0.415  0.407  0.395  0.000  0.000
 1991 244    32   179      0      0     97     0     0   125  0.534  0.570  0.514  0.420  0.422  0.415  0.407  0.395  0.000  0.000
 1991 245    33   179      0      0     97     0     0   125  0.534  0.548  0.525  0.420  0.422  0.415  0.407  0.395  0.000  0.000
 1991 246    34   176      0      0     97     0     0   125  0.497  0.537  0.528  0.421  0.421  0.415  0.407  0.395  0.000  0.000
 1991 247    35   174      0      0     97     0     0   125  0.488  0.521  0.526  0.422  0.421  0.415  0.407  0.395  0.000  0.000
 1991 248    36   172      0      0     97     0     0   125  0.479  0.512  0.522  0.422  0.421  0.415  0.407  0.395  0.000  0.000
 1991 249    37   171      0      0     97     0     0   125  0.473  0.506  0.519  0.423  0.421  0.415  0.407  0.395  0.000  0.000
 1991 250    38   177      0      0    105     0     0   125  0.562  0.530  0.516  0.423  0.421  0.415  0.407  0.395  0.000  0.000
 1991 251    39   176      0      0    105     0     0   125  0.522  0.534  0.518  0.423  0.421  0.415  0.407  0.395  0.000  0.000
 1991 252    40   172      0      0    105     0     0   125  0.477  0.524  0.518  0.423  0.421  0.415  0.407  0.394  0.000  0.000
 1991 253    41   170      0      0    105     0     0   125  0.470  0.509  0.515  0.423  0.421  0.415  0.407  0.394  0.000  0.000
 1991 254    42   168      0      0    105     0     0   125  0.460  0.499  0.510  0.422  0.421  0.415  0.407  0.394  0.000  0.000
 1991 255    43   166      0      0    105     0     0   125  0.451  0.490  0.505  0.422  0.421  0.415  0.407  0.394  0.000  0.000
 1991 256    44   163      0      0    105     0     0   125  0.442  0.483  0.500  0.421  0.421  0.415  0.407  0.394  0.000  0.000
 1991 257    45   162      0      0    105     0     0   125  0.436  0.478  0.498  0.420  0.421  0.415  0.407  0.394  0.000  0.000
 1991 258    46   178      0      0    122     0     0   125  0.562  0.563  0.507  0.419  0.420  0.415  0.407  0.394  0.000  0.000
 1991 259    47   178      0      0    125     0     0   125  0.532  0.558  0.522  0.419  0.420  0.415  0.407  0.394  0.000  0.000
 1991 260    48   190      0      0    138     0     0   125  0.558  0.556  0.569  0.441  0.420  0.415  0.406  0.394  0.000  0.000
 1991 261    49   220      2     22    196     0     0   125  0.514  0.564  0.562  0.468  0.461  0.447  0.439  0.432  0.000  0.000
 1991 262    50   201      2     36    196     0     0   125  0.482  0.541  0.547  0.455  0.449  0.436  0.427  0.417  0.000  0.000
 1991 263    51   191      2     43    196     0     0   125  0.490  0.522  0.538  0.447  0.442  0.429  0.419  0.408  0.000  0.000
 1991 264    52   185      2     47    196     0     0   125  0.478  0.515  0.531  0.442  0.437  0.425  0.415  0.403  0.000  0.000
 1991 265    53   178      2     50    196     0     0   125  0.449  0.505  0.522  0.438  0.435  0.423  0.412  0.400  0.000  0.000
 1991 266    54   173      2     51    196     0     0   125  0.436  0.493  0.514  0.435  0.433  0.421  0.410  0.398  0.000  0.000
 1991 267    55   170      2     51    196     0     0   125  0.426  0.483  0.506  0.431  0.433  0.421  0.410  0.398  0.000  0.000
 1991 268    56   167      2     51    196     0     0   125  0.419  0.473  0.499  0.428  0.432  0.421  0.410  0.398  0.000  0.000
 1991 269    57   164      2     51    196     0     0   125  0.411  0.464  0.491  0.424  0.431  0.421  0.410  0.398  0.000  0.000
 1991 270    58   161      2     51    196     0     0   125  0.404  0.456  0.484  0.420  0.429  0.421  0.410  0.398  0.000  0.000
 1991 271    59   158      2     51    196     0     0   125  0.397  0.448  0.477  0.415  0.428  0.421  0.410  0.398  0.000  0.000
 1991 272    60   154      2     51    196     0     0   125  0.391  0.440  0.470  0.411  0.426  0.421  0.410  0.398  0.000  0.000
 1991 273    61   151      2     51    196     0     0   125  0.384  0.432  0.463  0.406  0.424  0.421  0.410  0.398  0.000  0.000
 1991 274    62   148      2     51    196     0     0   125  0.377  0.427  0.456  0.401  0.422  0.421  0.410  0.398  0.000  0.000
 1991 275    63   174      2     51    196     1    30   125  0.542  0.563  0.492  0.395  0.419  0.421  0.410  0.398  0.000  0.000
 1991 276    64   170      2     51    196     1    30   125  0.506  0.540  0.497  0.391  0.416  0.421  0.410  0.398  0.000  0.000
 1991 277    65   166      2     51    196     1    30   125  0.500  0.517  0.494  0.389  0.414  0.420  0.410  0.398  0.000  0.000
 1991 278    66   165      2     51    196     1    30   125  0.499  0.508  0.494  0.389  0.412  0.420  0.410  0.398  0.000  0.000
 1991 279    67   188      2     51    221     1    30   125  0.554  0.561  0.565  0.420  0.410  0.420  0.410  0.398  0.000  0.000
 1991 280    68   206      2     52    243     1    30   125  0.547  0.565  0.563  0.468  0.459  0.430  0.417  0.400  0.000  0.000
 1991 281    69   194      2     60    243     1    30   125  0.511  0.550  0.549  0.451  0.445  0.425  0.413  0.398  0.000  0.000
 1991 282    70   186      2     63    243     1    30   125  0.503  0.532  0.541  0.440  0.436  0.423  0.411  0.397  0.000  0.000
 1991 283    71   180      2     64    243     1    30   125  0.484  0.520  0.533  0.433  0.431  0.421  0.410  0.397  0.000  0.000
 1991 284    72   176      2     64    243     1    30   125  0.473  0.509  0.523  0.427  0.426  0.421  0.410  0.397  0.000  0.000
 1991 285    73   170      2     64    243     1    30   125  0.449  0.498  0.514  0.420  0.420  0.421  0.410  0.397  0.000  0.000
 1991 286    74   165      2     64    243     1    30   125  0.429  0.487  0.505  0.413  0.414  0.421  0.410  0.397  0.000  0.000
 1991 287    75   169      2     64    250     1    30   125  0.557  0.484  0.499  0.409  0.410  0.421  0.410  0.397  0.000  0.000
 1991 288    76   203      2     65    286     1    30   125  0.530  0.580  0.566  0.468  0.448  0.423  0.412  0.398  0.000  0.000
 1991 289    77   228      6    108    360     1    30   125  0.571  0.565  0.583  0.489  0.459  0.447  0.439  0.432  0.000  0.000
 1991 290    78   209      6    124    360     1    30   125  0.545  0.552  0.563  0.465  0.444  0.436  0.427  0.417  0.000  0.000
 1991 291    79   195      6    133    360     1    30   125  0.515  0.541  0.549  0.448  0.431  0.429  0.419  0.408  0.000  0.000
 1991 292    80   185      6    137    360     1    30   125  0.509  0.527  0.538  0.437  0.423  0.424  0.415  0.403  0.000  0.000
 1991 293    81   178      6    139    360     1    30   125  0.495  0.519  0.529  0.429  0.416  0.420  0.412  0.400  0.000  0.000
 1991 294    82   172      6    139    360     1    30   125  0.485  0.510  0.520  0.421  0.409  0.418  0.410  0.398  0.000  0.000
 1991 295    83   167      6    139    360     1    30   125  0.477  0.501  0.512  0.415  0.404  0.415  0.410  0.398  0.000  0.000
 1991 296    84   168      6    139    363     1    30   125  0.541  0.497  0.508  0.413  0.403  0.414  0.410  0.398  0.000  0.000
 1991 297    85   167      6    139    363     1    30   125  0.510  0.508  0.507  0.411  0.402  0.413  0.410  0.398  0.000  0.000
 1991 298    86   165      6    139    363     1    30   125  0.503  0.506  0.505  0.409  0.400  0.412  0.410  0.398  0.000  0.000
 1991 299    87   160      6    139    363     1    30   125  0.488  0.500  0.499  0.403  0.395  0.409  0.410  0.398  0.000  0.000
 1991 300    88   158      6    139    363     1    30   125  0.485  0.495  0.495  0.400  0.392  0.408  0.410  0.398  0.000  0.000
 1991 301    89   156      6    139    363     1    30   125  0.484  0.491  0.492  0.398  0.391  0.407  0.410  0.398  0.000  0.000
 1991 302    90   154      6    139    363     1    30   125  0.482  0.488  0.490  0.396  0.390  0.406  0.409  0.398  0.000  0.000
 1991 303    91   169      6    139    379     1    30   125  0.565  0.565  0.513  0.395  0.389  0.404  0.409  0.398  0.000  0.000
 1991 304    92   168      6    139    380     1    30   125  0.563  0.553  0.522  0.394  0.388  0.403  0.409  0.398  0.000  0.000
 1991 305    93   165      6    139    380     1    30   125  0.544  0.539  0.523  0.391  0.385  0.401  0.409  0.398  0.000  0.000
 1991 306    94   159      6    139    380     1    30   125  0.527  0.530  0.517  0.386  0.381  0.397  0.409  0.398  0.000  0.000
 1991 307    95   155      6    139    380     1    30   125  0.516  0.520  0.510  0.384  0.378  0.394  0.408  0.398  0.000  0.000
 1991 308    96   149      6    139    380     1    30   125  0.500  0.508  0.501  0.379  0.375  0.390  0.408  0.398  0.000  0.000
 1991 309    97   145      6    139    380     1    30   125  0.489  0.498  0.492  0.377  0.372  0.387  0.407  0.398  0.000  0.000
 1991 310    98   151      6    139    389     1    30   125  0.563  0.540  0.489  0.376  0.371  0.386  0.406  0.398  0.000  0.000
 1991 311    99   147      6    139    389     1    30   125  0.538  0.527  0.488  0.374  0.369  0.384  0.405  0.398  0.000  0.000
 1991 312   100   143      6    139    389     1    30   125  0.516  0.518  0.484  0.372  0.367  0.381  0.403  0.398  0.000  0.000
 1991 313   101   137      6    139    389     1    30   125  0.499  0.504  0.477  0.370  0.365  0.379  0.399  0.398  0.000  0.000
 1991 314   102   134      6    139    389     1    30   125  0.489  0.494  0.472  0.368  0.364  0.377  0.396  0.397  0.000  0.000
 1991 315   103   130      6    139    389     1    30   125  0.480  0.485  0.467  0.367  0.363  0.376  0.393  0.397  0.000  0.000
 1991 316   104   125      6    139    389     1    30   125  0.465  0.474  0.459  0.365  0.361  0.374  0.387  0.397  0.000  0.000
 1991 317   105   121      6    139    389     1    30   125  0.457  0.467  0.454  0.364  0.360  0.373  0.382  0.396  0.000  0.000
 1991 318   106   120      6    139    389     1    30   125  0.454  0.462  0.452  0.364  0.360  0.372  0.381  0.396  0.000  0.000
 1991 319   107   117      6    139    389     1    30   125  0.448  0.457  0.448  0.363  0.360  0.371  0.378  0.395  0.000  0.000
 1991 320   108   113      6    139    389     1    30   125  0.436  0.448  0.441  0.362  0.359  0.370  0.374  0.395  0.000  0.000
 1991 321   109   109      6    139    389     1    30   125  0.424  0.439  0.433  0.360  0.357  0.368  0.370  0.394  0.000  0.000
 1991 322   110   134      6    139    389     2    60   125  0.556  0.556  0.491  0.358  0.356  0.366  0.366  0.393  0.000  0.000
 1991 323   111   128      6    139    389     2    60   125  0.529  0.530  0.489  0.357  0.354  0.364  0.362  0.393  0.000  0.000
 1991 324   112   122      6    139    389     2    60   125  0.511  0.513  0.481  0.357  0.353  0.362  0.359  0.392  0.000  0.000
 1991 325   113   116      6    139    389     2    60   125  0.488  0.495  0.469  0.356  0.351  0.359  0.356  0.391  0.000  0.000
 1991 326   114   109      6    139    389     2    60   125  0.465  0.477  0.456  0.354  0.349  0.357  0.354  0.391  0.000  0.000
 1991 327   115   103      6    139    389     2    60   125  0.444  0.461  0.443  0.353  0.348  0.355  0.352  0.390  0.000  0.000
 1991 328   116   101      6    139    389     2    60   125  0.441  0.454  0.440  0.352  0.348  0.354  0.351  0.389  0.000  0.000
 1991 329   117   176     12    139    471     2    60   125  0.578  0.563  0.564  0.470  0.460  0.369  0.351  0.388  0.000  0.000
 1991 330   118   203     12    139    502     2    60   125  0.559  0.564  0.564  0.466  0.456  0.447  0.384  0.388  0.000  0.000
 1991 331   119   202     12    139    505     2    60   125  0.555  0.564  0.562  0.461  0.453  0.437  0.405  0.387  0.000  0.000
 1991 332   120   192     12    145    505     2    60   125  0.537  0.553  0.552  0.448  0.441  0.424  0.402  0.395  0.000  0.000
 1991 333   121   196     12    145    512     2    60   125  0.562  0.563  0.562  0.450  0.440  0.421  0.405  0.394  0.000  0.000
 1991 334   122   186     12    148    512     2    60   125  0.537  0.551  0.550  0.439  0.431  0.415  0.401  0.394  0.000  0.000
 1991 335   123   180     12    148    512     2    60   125  0.526  0.542  0.544  0.435  0.426  0.413  0.396  0.392  0.000  0.000
 1991 336   124   174     12    148    512     2    60   125  0.521  0.532  0.538  0.429  0.421  0.407  0.391  0.391  0.000  0.000
 1991 337   125   170     12    148    512     2    60   125  0.520  0.528  0.533  0.427  0.418  0.405  0.389  0.389  0.000  0.000
 1991 338   126   163     12    148    512     2    60   125  0.505  0.521  0.526  0.422  0.413  0.399  0.384  0.387  0.000  0.000
 1991 339   127   176     12    148    528     2    60   125  0.568  0.562  0.561  0.435  0.410  0.397  0.382  0.386  0.000  0.000
 1991 340   128   169     12    148    528     2    60   125  0.537  0.548  0.547  0.432  0.418  0.391  0.377  0.383  0.000  0.000
 1991 341   129   165     12    148    528     2    60   125  0.530  0.540  0.541  0.433  0.415  0.388  0.375  0.381  0.000  0.000
 1991 342   130   158     12    148    528     2    60   125  0.518  0.531  0.534  0.426  0.409  0.384  0.372  0.379  0.000  0.000
 1991 343   131   172     12    148    544     2    60   125  0.572  0.563  0.564  0.448  0.415  0.384  0.372  0.377  0.000  0.000
 1991 344   132   185     12    148    562     2    60   125  0.550  0.562  0.562  0.464  0.455  0.404  0.369  0.375  0.000  0.000
 1991 345   133   180     12    148    562     2    60   125  0.533  0.551  0.551  0.450  0.442  0.415  0.373  0.373  0.000  0.000
 1991 346   134   178     12    148    562     2    60   125  0.535  0.541  0.546  0.443  0.435  0.417  0.378  0.372  0.000  0.000
 1991 347   135   181     12    148    572     2    60   125  0.552  0.561  0.560  0.445  0.433  0.413  0.375  0.370  0.000  0.000
 1991 348   136   193     12    148    586     2    60   125  0.561  0.567  0.567  0.468  0.458  0.421  0.379  0.369  0.000  0.000
 1991 349   137   192     12    148    587     2    60   125  0.561  0.563  0.562  0.463  0.457  0.423  0.385  0.368  0.000  0.000
 1991 350   138   196     12    148    595     2    60   125  0.554  0.566  0.566  0.467  0.458  0.426  0.394  0.366  0.000  0.000
 1991 351   139   196     12    148    601     2    60   125  0.546  0.565  0.565  0.466  0.457  0.425  0.400  0.364  0.000  0.000
 1991 352   140   189     12    148    601     2    60   125  0.522  0.553  0.553  0.451  0.443  0.417  0.401  0.392  0.000  0.000
 1991 353   141   210     12    148    627     2    60   125  0.566  0.556  0.565  0.466  0.457  0.442  0.418  0.397  0.000  0.000
 1991 354   142   206     12    149    631     2    60   125  0.540  0.563  0.564  0.461  0.454  0.434  0.419  0.400  0.000  0.000
 1991 355   143   192     12    157    631     2    60   125  0.518  0.551  0.552  0.448  0.441  0.424  0.408  0.395  0.000  0.000
 1991 356   144   187     12    160    631     2    60   125  0.528  0.536  0.546  0.442  0.435  0.420  0.406  0.394  0.000  0.000
 1991 357   145   216     13    163    670     2    60   125  0.552  0.563  0.563  0.465  0.456  0.443  0.435  0.420  0.000  0.000
 1991 358   146   198     13    175    670     2    60   125  0.518  0.551  0.551  0.450  0.443  0.430  0.416  0.407  0.000  0.000
 1991 359   147   188     13    180    670     2    60   125  0.518  0.535  0.544  0.442  0.435  0.423  0.409  0.400  0.000  0.000
 1991 360   148   188     13    180    675     2    60   125  0.559  0.546  0.540  0.438  0.431  0.419  0.407  0.397  0.000  0.000
 1991 361   149   181     13    180    675     2    60   125  0.523  0.539  0.538  0.434  0.427  0.415  0.403  0.395  0.000  0.000
 1991 362   150   175     13    180    675     2    60   125  0.507  0.529  0.533  0.429  0.422  0.410  0.399  0.393  0.000  0.000
 1991 363   151   168     13    180    675     2    60   125  0.489  0.519  0.526  0.424  0.418  0.405  0.394  0.391  0.000  0.000
 1991 364   152   162     13    180    675     2    60   125  0.478  0.510  0.520  0.421  0.414  0.401  0.390  0.389  0.000  0.000
 1991 365   153   158     13    180    675     2    60   125  0.477  0.503  0.515  0.417  0.410  0.398  0.387  0.387  0.000  0.000
 1992 001   154   155     13    180    675     2    60   125  0.474  0.498  0.511  0.416  0.409  0.396  0.386  0.386  0.000  0.000
 1992 002   155   171     13    180    695     2    60   125  0.553  0.563  0.554  0.424  0.406  0.394  0.383  0.384  0.000  0.000
 1992 003   156   165     13    180    695     2    60   125  0.514  0.550  0.544  0.433  0.402  0.390  0.380  0.382  0.000  0.000
 1992 004   157   158     13    180    695     2    60   125  0.495  0.531  0.538  0.429  0.398  0.386  0.376  0.380  0.000  0.000
 1992 005   158   151     13    180    695     2    60   125  0.478  0.519  0.529  0.424  0.394  0.383  0.373  0.377  0.000  0.000
 1992 006   159   146     13    180    695     2    60   125  0.469  0.509  0.523  0.419  0.391  0.381  0.372  0.375  0.000  0.000
 1992 007   160   140     13    180    695     2    60   125  0.446  0.499  0.515  0.414  0.388  0.379  0.370  0.373  0.000  0.000
 1992 008   161   134     13    180    695     2    60   125  0.428  0.489  0.507  0.408  0.384  0.377  0.367  0.370  0.000  0.000
 1992 009   162   129     13    180    695     2    60   125  0.418  0.479  0.499  0.403  0.382  0.375  0.365  0.368  0.000  0.000
 1992 010   163   125     13    180    695     2    60   125  0.411  0.470  0.492  0.398  0.380  0.373  0.364  0.366  0.000  0.000
 1992 011   164   119     13    180    695     2    60   125  0.404  0.460  0.483  0.391  0.377  0.371  0.362  0.364  0.000  0.000

*DSSAT Cropping System Model Ver. 4.0.2.000               Aug 03, 2016; 15:30:22

*RUN   3        : UYMZ                    
 MODEL          : MZCER040 - Maize           
 EXPERIMENT     : UYMZ0129 MZ    late to create DSS                             
 TREATMENT  1   : UYMZ                    

@YEAR DOY   DAS  SWXD   ROFC   DRNC   PREC  IR#C  IRRC  DTWT   SW1D   SW2D   SW3D   SW4D   SW5D   SW6D   SW7D   SW8D   SW9D   SW10
 1992 212     0   121      0      0      4     0     0   125  0.447  0.394  0.394  0.335  0.375  0.419  0.408  0.395  0.000  0.000
 1992 213     1   119      0      0      4     0     0   125  0.419  0.397  0.394  0.335  0.376  0.418  0.408  0.395  0.000  0.000
 1992 214     2   118      0      0      4     0     0   125  0.385  0.397  0.394  0.336  0.376  0.418  0.408  0.395  0.000  0.000
 1992 215     3   155      0      0      4     1    40   125  0.520  0.567  0.484  0.336  0.377  0.417  0.408  0.395  0.000  0.000
 1992 216     4   152      0      0      4     1    40   125  0.488  0.538  0.495  0.338  0.377  0.417  0.408  0.395  0.000  0.000
 1992 217     5   151      0      0      4     1    40   125  0.493  0.517  0.495  0.341  0.378  0.416  0.408  0.395  0.000  0.000
 1992 218     6   148      0      0      4     1    40   125  0.457  0.508  0.495  0.344  0.378  0.416  0.408  0.395  0.000  0.000
 1992 219     7   147      0      0      4     1    40   125  0.445  0.497  0.493  0.346  0.378  0.415  0.408  0.395  0.000  0.000
 1992 220     8   146      0      0      4     1    40   125  0.442  0.489  0.491  0.349  0.379  0.415  0.408  0.395  0.000  0.000
 1992 221     9   146      0      0      6     1    40   125  0.465  0.483  0.488  0.351  0.379  0.415  0.408  0.395  0.000  0.000
 1992 222    10   145      0      0      6     1    40   125  0.449  0.481  0.486  0.353  0.379  0.414  0.408  0.395  0.000  0.000
 1992 223    11   144      0      0      6     1    40   125  0.440  0.478  0.484  0.355  0.380  0.414  0.407  0.395  0.000  0.000
 1992 224    12   144      0      0      6     1    40   125  0.433  0.474  0.482  0.356  0.380  0.414  0.407  0.395  0.000  0.000
 1992 225    13   143      0      0      6     1    40   125  0.428  0.471  0.480  0.358  0.381  0.413  0.407  0.395  0.000  0.000
 1992 226    14   142      0      0      6     1    40   125  0.423  0.467  0.478  0.360  0.381  0.413  0.407  0.395  0.000  0.000
 1992 227    15   141      0      0      6     1    40   125  0.420  0.464  0.476  0.361  0.381  0.413  0.407  0.395  0.000  0.000
 1992 228    16   141      0      0      6     1    40   125  0.416  0.461  0.474  0.362  0.382  0.412  0.407  0.395  0.000  0.000
 1992 229    17   140      0      0      6     1    40   125  0.413  0.458  0.472  0.364  0.382  0.412  0.407  0.395  0.000  0.000
 1992 230    18   140      0      0      6     1    40   125  0.410  0.456  0.471  0.365  0.382  0.412  0.407  0.395  0.000  0.000
 1992 231    19   139      0      0      6     1    40   125  0.407  0.453  0.469  0.366  0.383  0.411  0.407  0.395  0.000  0.000
 1992 232    20   139      0      0      6     1    40   125  0.405  0.451  0.468  0.367  0.383  0.411  0.407  0.395  0.000  0.000
 1992 233    21   138      0      0      6     1    40   125  0.402  0.449  0.466  0.368  0.383  0.411  0.407  0.395  0.000  0.000
 1992 234    22   138      0      0      6     1    40   125  0.400  0.447  0.465  0.368  0.384  0.411  0.407  0.395  0.000  0.000
 1992 235    23   138      0      0      7     1    40   125  0.412  0.445  0.463  0.369  0.384  0.410  0.407  0.395  0.000  0.000
 1992 236    24   140      0      0     13     1    40   125  0.461  0.444  0.462  0.370  0.384  0.410  0.406  0.395  0.000  0.000
 1992 237    25   140      0      0     13     1    40   125  0.446  0.446  0.461  0.371  0.385  0.410  0.406  0.395  0.000  0.000
 1992 238    26   139      0      0     13     1    40   125  0.436  0.447  0.460  0.371  0.385  0.410  0.406  0.395  0.000  0.000
 1992 239    27   139      0      0     13     1    40   125  0.427  0.447  0.459  0.372  0.385  0.410  0.406  0.395  0.000  0.000
 1992 240    28   138      0      0     13     1    40   125  0.421  0.446  0.458  0.372  0.386  0.409  0.406  0.395  0.000  0.000
 1992 241    29   138      0      0     13     1    40   125  0.415  0.444  0.458  0.373  0.386  0.409  0.406  0.394  0.000  0.000
 1992 242    30   137      0      0     13     1    40   125  0.410  0.443  0.457  0.373  0.386  0.409  0.406  0.394  0.000  0.000
 1992 243    31   137      0      0     13     1    40   125  0.406  0.441  0.456  0.374  0.386  0.409  0.406  0.394  0.000  0.000
 1992 244    32   141      0      0     19     1    40   125  0.503  0.439  0.455  0.374  0.387  0.408  0.406  0.394  0.000  0.000
 1992 245    33   141      0      0     19     1    40   125  0.475  0.447  0.455  0.375  0.387  0.408  0.406  0.394  0.000  0.000
 1992 246    34   140      0      0     19     1    40   125  0.458  0.450  0.454  0.375  0.387  0.408  0.405  0.394  0.000  0.000
 1992 247    35   139      0      0     19     1    40   125  0.444  0.450  0.454  0.375  0.387  0.408  0.405  0.394  0.000  0.000
 1992 248    36   138      0      0     19     1    40   125  0.433  0.449  0.454  0.376  0.388  0.408  0.405  0.394  0.000  0.000
 1992 249    37   138      0      0     19     1    40   125  0.425  0.447  0.453  0.376  0.388  0.408  0.405  0.394  0.000  0.000
 1992 250    38   137      0      0     19     1    40   125  0.418  0.444  0.452  0.376  0.388  0.407  0.405  0.394  0.000  0.000
 1992 251    39   136      0      0     19     1    40   125  0.412  0.441  0.451  0.376  0.388  0.407  0.405  0.394  0.000  0.000
 1992 252    40   136      0      0     19     1    40   125  0.407  0.439  0.451  0.377  0.388  0.407  0.405  0.394  0.000  0.000
 1992 253    41   135      0      0     19     1    40   125  0.402  0.437  0.450  0.377  0.389  0.407  0.405  0.394  0.000  0.000
 1992 254    42   134      0      0     19     1    40   125  0.398  0.434  0.448  0.377  0.389  0.407  0.405  0.394  0.000  0.000
 1992 255    43   166      0      0     23     2    69   125  0.537  0.566  0.526  0.377  0.389  0.407  0.405  0.394  0.000  0.000
 1992 256    44   164      0      0     25     2    69   125  0.494  0.550  0.532  0.381  0.389  0.406  0.405  0.394  0.000  0.000
 1992 257    45   162      0      0     25     2    69   125  0.492  0.528  0.530  0.384  0.389  0.406  0.404  0.394  0.000  0.000
 1992 258    46   159      0      0     25     2    69   125  0.470  0.517  0.524  0.387  0.390  0.406  0.404  0.394  0.000  0.000
 1992 259    47   156      0      0     25     2    69   125  0.443  0.507  0.518  0.389  0.390  0.406  0.404  0.394  0.000  0.000
 1992 260    48   154      0      0     25     2    69   125  0.436  0.497  0.512  0.391  0.390  0.406  0.404  0.394  0.000  0.000
 1992 261    49   152      0      0     25     2    69   125  0.431  0.488  0.506  0.392  0.391  0.406  0.404  0.393  0.000  0.000
 1992 262    50   152      0      0     29     2    69   125  0.461  0.480  0.500  0.393  0.391  0.406  0.404  0.393  0.000  0.000
 1992 263    51   150      0      0     29     2    69   125  0.442  0.477  0.495  0.394  0.392  0.405  0.404  0.393  0.000  0.000
 1992 264    52   148      0      0     29     2    69   125  0.429  0.471  0.489  0.394  0.392  0.405  0.404  0.393  0.000  0.000
 1992 265    53   146      0      0     29     2    69   125  0.419  0.463  0.483  0.394  0.392  0.405  0.404  0.393  0.000  0.000
 1992 266    54   157      0      0     41     2    69   125  0.558  0.505  0.480  0.395  0.393  0.405  0.404  0.393  0.000  0.000
 1992 267    55   163      0      0     50     2    69   125  0.496  0.572  0.501  0.394  0.393  0.405  0.404  0.393  0.000  0.000
 1992 268    56   162      0      0     50     2    69   125  0.511  0.533  0.512  0.395  0.393  0.405  0.403  0.393  0.000  0.000
 1992 269    57   175      0      0     68     2    69   125  0.528  0.553  0.563  0.413  0.394  0.405  0.403  0.393  0.000  0.000
 1992 270    58   171      0      0     68     2    69   125  0.487  0.538  0.549  0.426  0.394  0.405  0.403  0.393  0.000  0.000
 1992 271    59   168      0      0     68     2    69   125  0.471  0.523  0.538  0.429  0.396  0.405  0.403  0.393  0.000  0.000
 1992 272    60   164      0      0     68     2    69   125  0.447  0.512  0.530  0.427  0.397  0.405  0.403  0.393  0.000  0.000
 1992 273    61   162      0      0     68     2    69   125  0.441  0.501  0.522  0.426  0.398  0.405  0.403  0.393  0.000  0.000
 1992 274    62   159      0      0     68     2    69   125  0.434  0.491  0.514  0.424  0.399  0.404  0.403  0.393  0.000  0.000
 1992 275    63   157      0      0     68     2    69   125  0.430  0.484  0.509  0.422  0.400  0.404  0.403  0.393  0.000  0.000
 1992 276    64   157      0      0     70     2    69   125  0.450  0.479  0.504  0.420  0.401  0.404  0.403  0.393  0.000  0.000
 1992 277    65   154      0      0     70     2    69   125  0.436  0.474  0.497  0.418  0.401  0.404  0.403  0.392  0.000  0.000
 1992 278    66   152      0      0     70     2    69   125  0.425  0.467  0.491  0.415  0.402  0.404  0.403  0.392  0.000  0.000
 1992 279    67   150      0      0     70     2    69   125  0.419  0.464  0.488  0.413  0.402  0.404  0.403  0.392  0.000  0.000
 1992 280    68   158      0      0     82     2    69   125  0.524  0.501  0.480  0.410  0.403  0.404  0.403  0.392  0.000  0.000
 1992 281    69   154      0      0     82     2    69   125  0.478  0.499  0.478  0.407  0.403  0.404  0.402  0.392  0.000  0.000
 1992 282    70   150      0      0     82     2    69   125  0.432  0.487  0.474  0.404  0.403  0.404  0.402  0.392  0.000  0.000
 1992 283    71   146      0      0     82     2    69   125  0.412  0.473  0.469  0.401  0.402  0.404  0.402  0.392  0.000  0.000
 1992 284    72   142      0      0     82     2    69   125  0.400  0.459  0.462  0.396  0.402  0.404  0.402  0.392  0.000  0.000
 1992 285    73   139      0      0     82     2    69   125  0.389  0.450  0.457  0.393  0.401  0.404  0.402  0.392  0.000  0.000
 1992 286    74   136      0      0     82     2    69   125  0.380  0.439  0.449  0.388  0.400  0.404  0.402  0.392  0.000  0.000
 1992 287    75   160      0      0     82     3    99   125  0.527  0.556  0.491  0.384  0.399  0.404  0.402  0.392  0.000  0.000
 1992 288    76   155      0      0     82     3    99   125  0.486  0.527  0.491  0.381  0.397  0.404  0.402  0.392  0.000  0.000
 1992 289    77   153      0      0     82     3    99   125  0.493  0.508  0.489  0.381  0.396  0.404  0.402  0.392  0.000  0.000
 1992 290    78   181      0      0    112     3    99   125  0.558  0.559  0.565  0.440  0.396  0.404  0.402  0.392  0.000  0.000
 1992 291    79   176      0      0    112     3    99   125  0.513  0.545  0.548  0.433  0.412  0.404  0.402  0.392  0.000  0.000
 1992 292    80   171      0      0    112     3    99   125  0.498  0.528  0.536  0.429  0.410  0.404  0.402  0.392  0.000  0.000
 1992 293    81   169      0      0    112     3    99   125  0.504  0.520  0.531  0.426  0.410  0.404  0.402  0.391  0.000  0.000
 1992 294    82   179      0      0    126     3    99   125  0.544  0.560  0.552  0.432  0.408  0.404  0.402  0.391  0.000  0.000
 1992 295    83   174      0      0    126     3    99   125  0.510  0.545  0.540  0.431  0.408  0.404  0.401  0.391  0.000  0.000
 1992 296    84   169      0      0    126     3    99   125  0.502  0.526  0.532  0.423  0.406  0.404  0.401  0.391  0.000  0.000
 1992 297    85   163      0      0    126     3    99   125  0.482  0.514  0.522  0.416  0.402  0.404  0.401  0.391  0.000  0.000
 1992 298    86   158      0      0    126     3    99   125  0.469  0.501  0.511  0.408  0.397  0.403  0.401  0.391  0.000  0.000
 1992 299    87   156      0      0    126     3    99   125  0.469  0.494  0.506  0.405  0.396  0.403  0.401  0.391  0.000  0.000
 1992 300    88   150      0      0    126     3    99   125  0.446  0.483  0.495  0.397  0.391  0.403  0.401  0.391  0.000  0.000
 1992 301    89   143      0      0    126     3    99   125  0.424  0.470  0.484  0.387  0.386  0.402  0.401  0.391  0.000  0.000
 1992 302    90   143      0      0    128     3    99   125  0.456  0.464  0.479  0.385  0.385  0.402  0.401  0.391  0.000  0.000
 1992 303    91   139      0      0    129     3    99   125  0.452  0.455  0.469  0.379  0.381  0.401  0.401  0.391  0.000  0.000
 1992 304    92   133      0      0    129     3    99   125  0.426  0.447  0.459  0.374  0.377  0.400  0.401  0.391  0.000  0.000
 1992 305    93   128      0      0    129     3    99   125  0.406  0.436  0.448  0.370  0.373  0.399  0.401  0.391  0.000  0.000
 1992 306    94   122      0      0    129     3    99   125  0.390  0.424  0.435  0.366  0.369  0.397  0.401  0.391  0.000  0.000
 1992 307    95   148      0      0    129     4   131   125  0.552  0.558  0.481  0.361  0.365  0.394  0.400  0.391  0.000  0.000
 1992 308    96   161      0      0    146     4   131   125  0.548  0.550  0.564  0.378  0.363  0.393  0.400  0.390  0.000  0.000
 1992 309    97   157      0      0    146     4   131   125  0.526  0.538  0.542  0.389  0.362  0.391  0.400  0.390  0.000  0.000
 1992 310    98   152      0      0    146     4   131   125  0.519  0.528  0.529  0.385  0.361  0.390  0.400  0.390  0.000  0.000
 1992 311    99   148      0      0    146     4   131   125  0.504  0.517  0.517  0.381  0.360  0.388  0.400  0.390  0.000  0.000
 1992 312   100   142      0      0    146     4   131   125  0.488  0.504  0.505  0.377  0.359  0.386  0.400  0.390  0.000  0.000
 1992 313   101   136      0      0    146     4   131   125  0.470  0.490  0.492  0.373  0.358  0.384  0.399  0.390  0.000  0.000
 1992 314   102   130      0      0    146     4   131   125  0.450  0.475  0.478  0.369  0.356  0.382  0.399  0.390  0.000  0.000
 1992 315   103   128      0      0    146     4   131   125  0.449  0.469  0.473  0.369  0.356  0.381  0.399  0.390  0.000  0.000
 1992 316   104   127      0      0    150     4   131   125  0.511  0.456  0.461  0.366  0.355  0.379  0.399  0.390  0.000  0.000
 1992 317   105   121      0      0    150     4   131   125  0.468  0.450  0.447  0.362  0.353  0.377  0.398  0.390  0.000  0.000
 1992 318   106   114      0      0    150     4   131   125  0.438  0.437  0.433  0.359  0.352  0.374  0.398  0.390  0.000  0.000
 1992 319   107   140      0      0    150     5   161   125  0.549  0.557  0.492  0.356  0.350  0.373  0.397  0.390  0.000  0.000
 1992 320   108   161      0      0    177     5   161   125  0.547  0.548  0.560  0.443  0.353  0.371  0.396  0.389  0.000  0.000
 1992 321   109   156      0      0    177     5   161   125  0.526  0.536  0.543  0.429  0.365  0.370  0.395  0.389  0.000  0.000
 1992 322   110   150      0      0    177     5   161   125  0.516  0.526  0.532  0.420  0.364  0.369  0.393  0.389  0.000  0.000
 1992 323   111   145      0      0    177     5   161   125  0.504  0.516  0.521  0.411  0.364  0.367  0.389  0.389  0.000  0.000
 1992 324   112   138      0      0    177     5   161   125  0.490  0.505  0.509  0.401  0.363  0.366  0.384  0.389  0.000  0.000
 1992 325   113   133      0      0    177     5   161   125  0.481  0.495  0.500  0.394  0.362  0.365  0.380  0.388  0.000  0.000
 1992 326   114   131      0      0    177     5   161   125  0.481  0.491  0.496  0.391  0.362  0.365  0.379  0.388  0.000  0.000
 1992 327   115   126      0      0    177     5   161   125  0.469  0.482  0.487  0.384  0.361  0.364  0.376  0.388  0.000  0.000
 1992 328   116   122      0      0    177     5   161   125  0.459  0.474  0.479  0.380  0.360  0.363  0.374  0.387  0.000  0.000
 1992 329   117   117      0      0    177     5   161   125  0.446  0.464  0.470  0.375  0.359  0.361  0.370  0.387  0.000  0.000
 1992 330   118   112      0      0    177     5   161   125  0.433  0.454  0.460  0.372  0.357  0.360  0.368  0.386  0.000  0.000
 1992 331   119   108      0      0    177     5   161   125  0.424  0.445  0.452  0.369  0.356  0.359  0.366  0.386  0.000  0.000
 1992 332   120   102      0      0    177     5   161   125  0.409  0.430  0.438  0.364  0.354  0.357  0.362  0.385  0.000  0.000
 1992 333   121   128      0      0    177     6   192   125  0.559  0.559  0.487  0.361  0.353  0.356  0.360  0.385  0.000  0.000
 1992 334   122   123      0      0    177     6   192   125  0.534  0.534  0.489  0.360  0.352  0.354  0.358  0.384  0.000  0.000
 1992 335   123   152      0      0    211     6   192   125  0.547  0.550  0.560  0.459  0.365  0.353  0.357  0.384  0.000  0.000
 1992 336   124   146      0      0    211     6   192   125  0.523  0.537  0.543  0.438  0.383  0.352  0.355  0.383  0.000  0.000
 1992 337   125   140      0      0    211     6   192   125  0.513  0.525  0.532  0.428  0.379  0.351  0.354  0.382  0.000  0.000
 1992 338   126   134      0      0    211     6   192   125  0.502  0.515  0.522  0.418  0.376  0.350  0.353  0.381  0.000  0.000
 1992 339   127   128      0      0    211     6   192   125  0.486  0.503  0.510  0.407  0.373  0.349  0.352  0.380  0.000  0.000
 1992 340   128   123      0      0    211     6   192   125  0.479  0.494  0.502  0.400  0.371  0.348  0.351  0.379  0.000  0.000
 1992 341   129   148      0      0    241     6   192   125  0.553  0.557  0.557  0.439  0.375  0.348  0.350  0.377  0.000  0.000
 1992 342   130   142      0      0    241     6   192   125  0.530  0.543  0.543  0.430  0.385  0.347  0.349  0.376  0.000  0.000
 1992 343   131   137      0      0    241     6   192   125  0.521  0.531  0.533  0.421  0.381  0.346  0.348  0.374  0.000  0.000
 1992 344   132   132      0      0    241     6   192   125  0.512  0.522  0.525  0.414  0.378  0.346  0.348  0.373  0.000  0.000
 1992 345   133   127      0      0    241     6   192   125  0.500  0.512  0.515  0.406  0.375  0.345  0.347  0.371  0.000  0.000
 1992 346   134   122      0      0    241     6   192   125  0.488  0.502  0.506  0.399  0.373  0.345  0.346  0.369  0.000  0.000
 1992 347   135   115      0      0    241     6   192   125  0.471  0.490  0.494  0.389  0.370  0.344  0.345  0.367  0.000  0.000
 1992 348   136   108      0      0    241     6   192   125  0.451  0.476  0.481  0.379  0.366  0.343  0.344  0.365  0.000  0.000
 1992 349   137   102      0      0    241     6   192   125  0.431  0.462  0.468  0.373  0.363  0.342  0.343  0.363  0.000  0.000
 1992 350   138    95      0      0    241     6   192   125  0.415  0.446  0.454  0.368  0.360  0.341  0.342  0.361  0.000  0.000
 1992 351   139    90      0      0    241     6   192   125  0.403  0.432  0.442  0.365  0.358  0.340  0.341  0.360  0.000  0.000
 1992 352   140   116      0      0    241     7   222   125  0.559  0.558  0.488  0.362  0.356  0.340  0.340  0.358  0.000  0.000
 1992 353   141   109      0      0    241     7   222   125  0.522  0.528  0.484  0.360  0.354  0.339  0.338  0.356  0.000  0.000
 1992 354   142   105      0      0    241     7   222   125  0.508  0.511  0.478  0.359  0.352  0.338  0.338  0.355  0.000  0.000
 1992 355   143    97      0      0    241     7   222   125  0.474  0.489  0.462  0.357  0.350  0.337  0.336  0.353  0.000  0.000
 1992 356   144    91      0      0    241     7   222   125  0.452  0.471  0.449  0.355  0.349  0.336  0.335  0.352  0.000  0.000
 1992 357   145    94      0      0    247     7   222   125  0.552  0.468  0.444  0.354  0.348  0.336  0.335  0.351  0.000  0.000
 1992 358   146    92      0      0    247     7   222   125  0.505  0.476  0.439  0.354  0.347  0.336  0.335  0.351  0.000  0.000
 1992 359   147   116      0      0    278     7   222   125  0.526  0.556  0.542  0.360  0.346  0.335  0.334  0.349  0.000  0.000
 1992 360   148   111      0      0    278     7   222   125  0.515  0.532  0.526  0.366  0.345  0.334  0.333  0.348  0.000  0.000
 1992 361   149   104      0      0    278     7   222   125  0.493  0.511  0.508  0.364  0.344  0.334  0.332  0.347  0.000  0.000
 1992 362   150    97      0      0    278     7   222   125  0.467  0.492  0.491  0.362  0.343  0.333  0.331  0.346  0.000  0.000
 1992 363   151    90      0      0    278     7   222   125  0.440  0.473  0.474  0.360  0.341  0.332  0.330  0.345  0.000  0.000
 1992 364   152    88      0      0    278     7   222   125  0.436  0.465  0.468  0.360  0.341  0.332  0.330  0.344  0.000  0.000
 1992 365   153    91      0      0    283     7   222   125  0.532  0.458  0.463  0.359  0.341  0.332  0.330  0.344  0.000  0.000
 1992 366   154   146      0      0    340     7   222   125  0.532  0.576  0.563  0.469  0.419  0.332  0.330  0.343  0.000  0.000
 1993 001   155   217     17      0    429     7   222   125  0.575  0.580  0.582  0.488  0.458  0.447  0.433  0.361  0.000  0.000
 1993 002   156   218     17      2    435     7   222   125  0.559  0.566  0.566  0.468  0.459  0.446  0.437  0.412  0.000  0.000
 1993 003   157   221     17      6    443     7   222   125  0.558  0.567  0.567  0.469  0.459  0.445  0.437  0.427  0.000  0.000
 1993 004   158   220     17     20    460     7   222   125  0.551  0.566  0.566  0.467  0.458  0.445  0.437  0.430  0.000  0.000
 1993 005   159   201     17     33    460     7   222   125  0.517  0.553  0.553  0.451  0.443  0.431  0.421  0.415  0.000  0.000
 1993 006   160   187     17     40    460     7   222   125  0.499  0.533  0.544  0.440  0.433  0.421  0.410  0.405  0.000  0.000
 1993 007   161   183     17     40    460     7   222   125  0.507  0.525  0.539  0.438  0.431  0.419  0.408  0.401  0.000  0.000
 1993 008   162   204     17     41    486     7   222   125  0.554  0.564  0.562  0.466  0.457  0.426  0.412  0.400  0.000  0.000
 1993 009   163   190     17     48    486     7   222   125  0.509  0.549  0.551  0.449  0.444  0.419  0.405  0.397  0.000  0.000
 1993 010   164   181     17     50    486     7   222   125  0.492  0.529  0.543  0.439  0.435  0.414  0.403  0.395  0.000  0.000
 1993 011   165   174     17     50    486     7   222   125  0.475  0.518  0.535  0.434  0.429  0.410  0.398  0.394  0.000  0.000
 1993 012   166   166     17     50    486     7   222   125  0.448  0.508  0.526  0.429  0.423  0.405  0.393  0.392  0.000  0.000
 1993 013   167   160     17     50    486     7   222   125  0.433  0.499  0.519  0.425  0.420  0.401  0.390  0.391  0.000  0.000
 1993 014   168   156     17     50    486     7   222   125  0.427  0.491  0.514  0.422  0.417  0.399  0.388  0.390  0.000  0.000
 1993 015   169   201     17     50    538     7   222   125  0.539  0.560  0.561  0.465  0.456  0.434  0.404  0.388  0.000  0.000
 1993 016   170   192     17     55    538     7   222   125  0.512  0.548  0.551  0.452  0.443  0.425  0.405  0.394  0.000  0.000
 1993 017   171   184     17     57    538     7   222   125  0.497  0.532  0.543  0.443  0.435  0.419  0.405  0.394  0.000  0.000
 1993 018   172   179     17     57    538     7   222   125  0.491  0.522  0.536  0.437  0.430  0.416  0.404  0.393  0.000  0.000
