*SOIL NITROGEN DAILY OUTPUT FILE

*DSSAT Cropping System Model Ver. 4.0.2.000               Aug 03, 2016; 15:30:22

*RUN   1        : UYMZ                    
 MODEL          : MZCER040 - Maize           
 EXPERIMENT     : UYMZ0129 MZ    late to create DSS                             
 TREATMENT  1   : UYMZ                    

@YEAR DOY   DAS  NAPC  NI#M    NLCC   NIAD    NOAD   NITD   NHTD  NI1D  NI2D  NI3D  NI4D  NI5D  NI6D  NI7D  NI8D  NI9D  NI10  NH1D  NH2D  NH3D  NH4D  NH5D  NH6D  NH7D  NH8D  NH9D  NH10    NMNC    NITC    NDNC    NIMC    AMLC
 1990 212     0     0     0     0.0   99.1   16646   76.0   23.1  15.6  15.2  15.1   8.6   4.6   0.0   0.1   0.1   0.0   0.0   0.9   1.4   1.5   1.5   1.5  1.50  1.47  1.46  0.00  0.00    0.37    1.23    0.00    0.00    0.00
 1990 213     1     0     0     0.0   99.5   16645   77.1   22.4  16.0  15.3  15.2   8.6   4.6   0.0   0.1   0.1   0.0   0.0   0.6   1.3   1.4   1.4   1.4  1.51  1.43  1.41  0.00  0.00    0.76    2.31    0.00    0.00    0.00
 1990 214     2     0     0     0.0   99.9   16645   78.1   21.8  16.3  15.5  15.3   8.7   4.7   0.1   0.1   0.2   0.0   0.0   0.3   1.2   1.4   1.4   1.4  1.51  1.40  1.37  0.00  0.00    1.16    3.31    0.00    0.00    0.00
 1990 215     3     0     0     0.0  100.4   16644   79.1   21.3   5.6  16.0  18.8   8.8   4.7   0.1   0.2   0.2   0.0   0.0   0.2   1.1   1.4   1.3   1.3  1.51  1.37  1.33  0.00  0.00    1.60    4.27    0.00    0.00    0.00
 1990 216     4     0     0     0.0  100.8   16644   79.9   21.0   5.8  15.5  19.2   8.9   4.8   0.1   0.2   0.2   0.0   0.0   0.2   1.1   1.4   1.3   1.3  1.51  1.34  1.29  0.00  0.00    2.08    5.08    0.00    0.00    0.00
 1990 217     5     0     0     0.0  101.4   16643   80.9   20.5   5.9  15.6  19.3   9.1   4.8   0.1   0.3   0.3   0.0   0.0   0.1   1.0   1.4   1.2   1.3  1.52  1.31  1.25  0.00  0.00    2.60    6.08    0.00    0.00    0.00
 1990 218     6     0     0     0.0  101.9   16643   81.9   20.0   6.0  15.7  19.4   9.2   4.9   0.1   0.3   0.3   0.0   0.0   0.1   0.9   1.3   1.2   1.2  1.52  1.28  1.21  0.00  0.00    3.18    7.13    0.00    0.00    0.00
 1990 219     7     0     0     0.0  102.6   16642   83.0   19.6   6.1  15.9  19.5   9.3   5.0   0.1   0.3   0.4   0.0   0.0   0.1   0.8   1.3   1.1   1.2  1.52  1.25  1.18  0.00  0.00    3.80    8.18    0.00    0.00    0.00
 1990 220     8     0     0     0.0  103.2   16642   84.1   19.2   6.3  16.1  19.5   9.5   5.0   0.2   0.4   0.4   0.0   0.0   0.1   0.8   1.3   1.1   1.1  1.52  1.22  1.14  0.00  0.00    4.46    9.26    0.00    0.00    0.00
 1990 221     9     0     0     0.0  103.9   16641   85.1   18.8   6.4  16.3  19.6   9.6   5.1   0.2   0.4   0.4   0.0   0.0   0.1   0.7   1.3   1.1   1.1  1.53  1.19  1.10  0.00  0.00    5.13   10.33    0.00    0.00    0.00
 1990 222    10     0     0     0.0  104.6   16640   86.2   18.4   6.6  16.4  19.7   9.8   5.1   0.2   0.5   0.5   0.0   0.0   0.1   0.6   1.3   1.0   1.1  1.53  1.17  1.07  0.00  0.00    5.81   11.36    0.00    0.00    0.00
 1990 223    11     0     0     0.0  105.2   16640   87.2   18.1   6.8  16.5  19.8   9.9   5.2   0.2   0.5   0.5   0.0   0.0   0.1   0.6   1.3   1.0   1.0  1.53  1.14  1.04  0.00  0.00    6.47   12.34    0.00    0.00    0.00
 1990 224    12     0     0     0.0  105.7   16639   87.9   17.8   6.9  16.5  19.9  10.0   5.3   0.2   0.5   0.6   0.0   0.0   0.1   0.6   1.2   1.0   1.0  1.54  1.11  1.00  0.00  0.00    7.14   13.32    0.00    0.00    0.00
 1990 225    13     0     0     0.0  106.4   16638   88.9   17.5   7.1  16.6  20.0  10.1   5.3   0.3   0.6   0.6   0.0   0.0   0.1   0.6   1.2   0.9   1.0  1.54  1.09  0.97  0.00  0.00    7.83   14.28    0.00    0.00    0.00
 1990 226    14     0     0     0.0  107.1   16638   89.9   17.2   7.3  16.7  20.1  10.2   5.4   0.3   0.6   0.6   0.0   0.0   0.1   0.5   1.2   0.9   0.9  1.54  1.06  0.94  0.00  0.00    8.50   15.24    0.00    0.00    0.00
 1990 227    15     0     0     0.0  107.7   16637   90.8   16.9   3.9  15.3  22.4  10.3   5.4   0.3   0.6   0.7   0.0   0.0   0.1   0.5   1.2   0.9   0.9  1.54  1.04  0.92  0.00  0.00    9.18   16.19    0.00    0.00    0.00
 1990 228    16     0     0     0.0  108.4   16636   91.5   16.9   3.9  15.1  22.5  10.6   5.5   0.3   0.7   0.7   0.0   0.0   0.2   0.6   1.2   0.8   0.9  1.55  1.02  0.89  0.00  0.00    9.87   16.92    0.00    0.00    0.00
 1990 229    17     0     0     0.0  109.0   16636   92.3   16.8   4.2  14.9  22.5  10.8   5.5   0.3   0.7   0.7   0.0   0.0   0.1   0.7   1.2   0.8   0.9  1.55  1.00  0.86  0.00  0.00   10.52   17.71    0.00    0.00    0.00
 1990 230    18     0     0     0.0  109.6   16635   93.1   16.5   4.6  14.9  22.5  11.0   5.5   0.4   0.7   0.8   0.0   0.0   0.1   0.7   1.2   0.8   0.9  1.55  0.98  0.84  0.00  0.00   11.13   18.54    0.00    0.00    0.00
 1990 231    19     0     0     0.0  110.2   16634   93.8   16.3   5.0  14.8  22.5  11.2   5.6   0.4   0.8   0.8   0.0   0.0   0.1   0.6   1.2   0.8   0.8  1.55  0.96  0.81  0.00  0.00   11.71   19.32    0.00    0.00    0.00
 1990 232    20     0     0     0.0  110.7   16634   94.5   16.2   5.3  14.8  22.5  11.3   5.6   0.4   0.8   0.8   0.0   0.0   0.1   0.6   1.2   0.8   0.8  1.56  0.94  0.79  0.00  0.00   12.27   20.05    0.00    0.00    0.00
 1990 233    21     0     0     0.0  111.2   16633   95.2   16.0   5.7  14.8  22.4  11.5   5.7   0.4   0.8   0.8   0.0   0.0   0.1   0.6   1.2   0.8   0.8  1.56  0.92  0.77  0.00  0.00   12.84   20.80    0.00    0.00    0.00
 1990 234    22     0     0     0.0  111.6   16633   95.7   15.8   5.9  14.7  22.4  11.6   5.7   0.4   0.9   0.9   0.0   0.0   0.1   0.6   1.2   0.8   0.8  1.56  0.90  0.74  0.00  0.00   13.43   21.54    0.00    0.00    0.00
 1990 235    23     0     0     0.0  111.9   16632   96.3   15.7   6.2  14.7  22.4  11.7   5.7   0.4   0.9   0.9   0.0   0.0   0.1   0.6   1.2   0.7   0.8  1.56  0.89  0.72  0.00  0.00   14.00   22.26    0.00    0.00    0.00
 1990 236    24    21     1     0.0  133.2   16631  107.2   26.0  25.4  14.6  22.3  11.8   5.8   0.5   0.9   0.9   0.0   0.0  19.0   0.5   1.2   0.7   0.8  1.57  0.87  0.70  0.00  0.00   14.55   22.95    0.00    0.00    0.04
 1990 237    25    21     1     0.0  133.6   16631  115.1   18.5  38.8  14.6  22.4  11.9   5.8   0.5   0.9   0.9   0.0   0.0   5.7   0.5   1.2   0.7   0.8  1.57  0.85  0.68  0.00  0.00   15.07   30.92    0.00    0.00    0.07
 1990 238    26    21     1     0.0  134.0   16630  117.9   16.1  43.0  14.6  22.4  12.0   5.8   0.5   1.0   1.0   0.0   0.0   1.6   0.5   1.2   0.7   0.7  1.57  0.84  0.67  0.00  0.00   15.61   33.78    0.00    0.00    0.10
 1990 239    27    21     1     0.0  134.1   16630  118.8   15.3  17.5  17.9  23.9  15.6   6.7   0.5   1.0   1.0   0.0   0.0   0.4   0.5   1.1   0.7   0.7  1.57  0.82  0.65  0.00  0.00   16.16   35.09    0.00    0.00    0.13
 1990 240    28    21     1     0.0  134.2   16629  118.7   15.5  16.7  17.7  23.6  15.5   7.4   0.5   1.0   1.0   0.0   0.0   0.4   0.6   1.2   0.7   0.7  1.58  0.81  0.63  0.00  0.00   16.71   35.43    0.00    0.00    0.18
 1990 241    29    21     1     0.0  134.1   16629  118.7   15.4  16.8  17.3  23.1  15.2   7.8   0.7   1.1   1.0   0.0   0.0   0.0   0.7   1.3   0.8   0.7  1.58  0.80  0.61  0.00  0.00   17.23   35.88    0.00    0.00    0.28
 1990 242    30    21     1     0.1  134.6   16628  119.0   15.6  17.1  17.3  22.9  15.0   8.0   0.8   1.1   1.1   0.0   0.0   0.1   0.6   1.4   0.8   0.7  1.59  0.78  0.60  0.00  0.00   17.74   36.26    0.00    0.00    0.28
 1990 243    31    21     1     0.1  135.0   16628  119.3   15.7  17.7  17.1  22.9  14.9   8.0   0.9   1.1   1.1   0.0   0.0   0.1   0.6   1.4   0.8   0.7  1.61  0.79  0.58  0.00  0.00   18.24   36.57    0.00    0.00    0.30
 1990 244    32    21     1     0.1  135.4   16627  119.6   15.8  18.3  17.0  23.0  14.8   8.1   0.9   1.1   1.1   0.0   0.0   0.1   0.6   1.4   0.8   0.7  1.62  0.79  0.58  0.00  0.00   18.67   36.93    0.02    0.00    0.32
 1990 245    33    21     1     0.1  135.7   16627  119.8   15.8  18.6  16.9  23.0  14.8   8.1   0.9   1.1   1.1   0.0   0.0   0.1   0.6   1.4   0.8   0.8  1.63  0.79  0.58  0.00  0.00   19.07   37.26    0.03    0.00    0.33
 1990 246    34    21     1     0.1  136.0   16627  120.1   15.9  19.0  16.9  23.1  14.8   8.1   0.9   1.1   1.1   0.0   0.0   0.1   0.6   1.4   0.8   0.8  1.64  0.79  0.57  0.00  0.00   19.47   37.60    0.04    0.00    0.33
 1990 247    35    21     1     0.1  136.4   16626  120.5   16.0  19.4  16.8  23.1  14.9   8.1   0.9   1.1   1.1   0.0   0.0   0.1   0.5   1.3   0.9   0.8  1.66  0.80  0.57  0.00  0.00   19.88   37.94    0.04    0.00    0.33
 1990 248    36    21     1     0.1  136.8   16626  120.8   16.0  19.8  16.8  23.1  14.9   8.1   0.9   1.1   1.1   0.0   0.0   0.1   0.5   1.3   0.8   0.8  1.67  0.80  0.57  0.00  0.00   20.27   38.32    0.05    0.00    0.34
 1990 249    37    21     1     0.1  137.1   16625  121.1   16.0  20.1  16.8  23.1  14.9   8.2   0.9   1.1   1.1   0.0   0.0   0.1   0.5   1.3   0.8   0.8  1.68  0.80  0.57  0.00  0.00   20.68   38.72    0.05    0.00    0.34
 1990 250    38    21     1     0.1  137.1   16625  121.1   16.0  17.5  18.1  23.0  15.0   8.2   0.9   1.1   1.1   0.0   0.0   0.1   0.5   1.3   0.8   0.8  1.69  0.80  0.56  0.00  0.00   21.14   39.14    0.06    0.00    0.34
 1990 251    39    21     1     0.1  137.5   16624  121.4   16.1  10.7  16.8  23.9  16.4   8.7   1.0   1.1   1.1   0.0   0.0   0.2   0.5   1.3   0.8   0.8  1.71  0.81  0.56  0.00  0.00   21.61   39.55    0.06    0.00    0.34
 1990 252    40    21     1     0.3  137.6   16624  121.2   16.4  10.7  16.5  23.3  16.0   9.0   1.3   1.2   1.1   0.0   0.0   0.2   0.6   1.3   0.8   0.9  1.72  0.81  0.56  0.00  0.00   22.07   39.68    0.09    0.00    0.35
 1990 253    41    21     1     0.4  137.8   16623  121.1   16.7  11.0  16.3  22.9  15.8   9.1   1.4   1.2   1.1   0.0   0.0   0.1   0.6   1.4   0.8   0.9  1.73  0.81  0.55  0.00  0.00   22.58   39.91    0.11    0.00    0.35
 1990 254    42    21     1     0.4  137.6   16623  120.7   16.8   6.4  14.4  22.2  16.5  10.4   1.8   1.2   1.2   0.0   0.0   0.1   0.6   1.5   0.9   0.9  1.75  0.82  0.55  0.00  0.00   23.13   40.25    0.12    0.00    0.36
 1990 255    43    21     1     0.7  137.0   16622  119.7   17.3   6.3  14.0  21.6  16.1  10.4   2.1   1.3   1.2   0.0   0.0   0.2   0.7   1.5   0.9   0.9  1.76  0.82  0.55  0.00  0.00   23.70   40.39    0.22    0.00    0.36
 1990 256    44    21     1     0.9  136.2   16622  118.7   17.5   6.4  13.6  21.0  15.8  10.4   2.3   1.3   1.2   0.0   0.0   0.1   0.8   1.6   0.9   0.9  1.78  0.82  0.55  0.00  0.00   24.27   40.65    0.52    0.00    0.36
 1990 257    45    21     1     1.0  135.5   16621  117.9   17.7   6.7  13.3  20.6  15.6  10.4   2.3   1.4   1.2   0.0   0.0   0.1   0.7   1.6   0.9   0.9  1.79  0.83  0.54  0.00  0.00   24.82   41.02    0.66    0.00    0.37
 1990 258    46    21     1     1.0  135.8   16621  118.2   17.7   7.2  13.2  20.6  15.5  10.3   2.4   1.4   1.2   0.0   0.0   0.1   0.7   1.6   1.0   1.0  1.80  0.83  0.54  0.00  0.00   25.33   41.51    0.71    0.00    0.37
 1990 259    47    21     1     1.1  136.2   16620  118.5   17.7   7.6  13.2  20.7  15.5  10.3   2.4   1.4   1.2   0.0   0.0   0.1   0.6   1.6   1.0   1.0  1.82  0.83  0.54  0.00  0.00   25.80   41.96    0.74    0.00    0.37
 1990 260    48    21     1     1.1  136.3   16620  118.6   17.7   7.9  13.1  20.6  15.5  10.3   2.4   1.4   1.2   0.0   0.0   0.1   0.6   1.5   1.0   1.0  1.83  0.83  0.54  0.00  0.00   26.26   42.39    0.75    0.00    0.38
 1990 261    49    21     1     1.1  136.1   16619  118.4   17.7   4.0  10.8  19.9  16.4  11.6   2.8   1.5   1.2   0.0   0.0   0.1   0.6   1.5   1.0   1.0  1.84  0.84  0.54  0.00  0.00   26.73   42.83    0.76    0.00    0.38
 1990 262    50    21     1     1.4  135.4   16619  117.4   18.1   3.9  10.5  19.3  15.8  11.5   3.1   1.6   1.2   0.0   0.0   0.2   0.7   1.5   1.0   1.0  1.86  0.84  0.53  0.00  0.00   27.23   42.96    1.00    0.00    0.38
 1990 263    51    21     1     1.6  134.8   16618  116.4   18.3   4.0  10.3  18.8  15.5  11.4   3.3   1.7   1.3   0.0   0.0   0.1   0.7   1.6   1.0   1.0  1.87  0.84  0.53  0.00  0.00   27.76   43.20    1.14    0.00    0.38
 1990 264    52    21     1     1.7  134.6   16618  116.1   18.5   4.2  10.2  18.6  15.3  11.4   3.3   1.7   1.3   0.0   0.0   0.1   0.7   1.6   1.1   1.1  1.88  0.85  0.53  0.00  0.00   28.28   43.55    1.22    0.00    0.39
 1990 265    53    21     1     1.8  134.4   16617  116.0   18.5   4.5  10.1  18.5  15.2  11.3   3.4   1.7   1.3   0.0   0.0   0.1   0.7   1.6   1.1   1.1  1.90  0.85  0.53  0.00  0.00   28.80   44.06    1.27    0.00    0.39
 1990 266    54    21     1     1.8  133.6   16617  115.2   18.4   4.7   9.8  18.1  15.1  11.3   3.4   1.7   1.3   0.0   0.0   0.1   0.6   1.5   1.1   1.1  1.91  0.85  0.53  0.00  0.00   29.33   44.56    1.31    0.00    0.39
 1990 267    55    21     1     1.8  131.8   16616  113.5   18.4   4.8   9.5  17.4  15.0  11.3   3.4   1.8   1.3   0.0   0.0   0.1   0.6   1.4   1.1   1.1  1.92  0.85  0.52  0.00  0.00   29.84   45.04    1.32    0.00    0.40
 1990 268    56    21     1     1.8  131.6   16616  113.3   18.3   5.0   9.4  17.2  15.0  11.4   3.4   1.8   1.3   0.0   0.0   0.1   0.6   1.4   1.1   1.1  1.94  0.86  0.52  0.00  0.00   30.33   45.57    1.33    0.00    0.40
 1990 269    57    21     1     1.8  131.5   16615  113.3   18.2   5.2   9.4  17.1  15.0  11.4   3.4   1.8   1.3   0.0   0.0   0.1   0.6   1.4   1.0   1.1  1.95  0.86  0.52  0.00  0.00   30.82   46.09    1.35    0.00    0.40
 1990 270    58    21     1     1.8  131.1   16615  112.9   18.2   5.3   9.3  16.8  15.0  11.4   3.4   1.8   1.3   0.0   0.0   0.1   0.6   1.3   1.0   1.1  1.96  0.86  0.52  0.00  0.00   31.31   46.59    1.36    0.00    0.40
 1990 271    59    21     1     1.8  131.5   16614  113.3   18.2   5.6   9.4  16.9  15.0  11.4   3.4   1.8   1.3   0.0   0.0   0.1   0.5   1.3   1.0   1.1  1.97  0.86  0.52  0.00  0.00   31.81   47.11    1.37    0.00    0.41
 1990 272    60    21     1     1.8  131.1   16614  113.0   18.1   5.7   9.3  16.7  14.9  11.4   3.5   1.8   1.3   0.0   0.0   0.1   0.5   1.3   0.9   1.1  1.99  0.87  0.51  0.00  0.00   32.35   47.65    1.38    0.00    0.41
 1990 273    61    21     1     1.8  128.2   16613  110.2   18.0   5.6   8.8  15.7  14.6  11.4   3.5   1.8   1.4   0.0   0.0   0.1   0.5   1.2   0.9   1.2  2.00  0.87  0.51  0.00  0.00   32.91   48.22    1.39    0.00    0.41
 1990 274    62    21     1     1.8  126.9   16613  108.9   18.0   5.6   8.6  15.2  14.5  11.4   3.5   1.8   1.4   0.0   0.0   0.1   0.5   1.2   0.9   1.2  2.01  0.87  0.51  0.00  0.00   33.51   48.81    1.39    0.00    0.42
 1990 275    63    21     1     1.8  125.0   16612  107.2   17.8   5.5   8.3  14.5  14.2  11.5   3.5   1.8   1.4   0.0   0.0   0.1   0.5   1.2   0.9   1.1  2.03  0.87  0.51  0.00  0.00   34.14   49.53    1.40    0.00    0.42
 1990 276    64    21     1     1.8  122.7   16611  105.0   17.6   5.4   8.0  13.8  14.0  11.5   3.5   1.8   1.4   0.0   0.0   0.1   0.5   1.1   0.8   1.1  2.04  0.88  0.51  0.00  0.00   34.77   50.23    1.41    0.00    0.42
 1990 277    65    21     1     1.8  120.4   16611  102.9   17.5   5.3   7.7  13.1  13.7  11.5   3.5   1.8   1.4   0.0   0.0   0.1   0.5   1.1   0.8   1.1  2.05  0.88  0.50  0.00  0.00   35.41   50.95    1.41    0.00    0.42
 1990 278    66    21     1     1.8  117.2   16610   99.9   17.3   5.0   7.2  12.2  13.3  11.3   3.5   1.8   1.4   0.0   0.0   0.1   0.4   1.0   0.8   1.0  2.07  0.88  0.50  0.00  0.00   36.07   51.69    1.42    0.00    0.43
 1990 279    67    21     1     1.8  115.9   16609   98.7   17.2   2.8   7.6  12.1  13.2  11.2   3.5   1.9   1.4   0.0   0.0   0.1   0.4   1.0   0.8   1.0  2.08  0.88  0.50  0.00  0.00   36.72   52.38    1.42    0.00    0.43
 1990 280    68    21     1     1.8  113.3   16609   96.0   17.3   2.3   7.0  11.7  12.8  11.1   3.5   1.9   1.4   0.0   0.0   0.2   0.5   1.0   0.7   0.9  2.10  0.89  0.50  0.00  0.00   37.40   52.87    1.43    0.00    0.43
 1990 281    69    21     1     1.8  111.4   16608   94.0   17.3   0.9   4.3   9.5  11.9  12.0   4.6   2.2   1.5   0.0   0.0   0.2   0.6   1.0   0.7   0.9  2.11  0.89  0.50  0.00  0.00   38.07   53.37    1.44    0.00    0.46
 1990 282    70    21     1     2.5  108.3   16607   90.6   17.7   0.8   3.8   8.7  11.1  11.3   4.7   2.4   1.6   0.0   0.0   0.3   0.7   1.0   0.7   0.9  2.13  0.89  0.50  0.00  0.00   38.70   53.51    1.52    0.00    0.46
 1990 283    71    21     1     2.8  104.0   16607   86.2   17.8   1.0   3.4   7.6  10.3  10.7   4.8   2.5   1.6   0.0   0.0   0.1   0.8   1.0   0.7   0.9  2.14  0.90  0.49  0.00  0.00   39.30   53.83    1.57    0.00    0.47
 1990 284    72    21     1     3.0  101.0   16606   83.2   17.7   1.1   3.2   6.9   9.8  10.3   4.7   2.5   1.6   0.0   0.0   0.1   0.7   1.0   0.8   0.9  2.16  0.90  0.49  0.00  0.00   39.92   54.36    1.60    0.00    0.48
 1990 285    73    21     1     3.1   99.4   16606   81.6   17.7   0.5   2.2   5.6   8.6  10.1   5.5   3.0   1.8   0.0   0.0   0.1   0.6   1.0   0.8   0.9  2.17  0.90  0.49  0.00  0.00   40.53   54.85    1.62    0.00    0.48
 1990 286    74    21     1     3.8   93.6   16605   75.7   17.9   0.5   1.7   4.4   7.6   9.1   5.5   3.1   1.9   0.0   0.0   0.1   0.7   1.0   0.8   0.9  2.18  0.91  0.49  0.00  0.00   41.13   55.03    1.86    0.00    0.48
 1990 287    75    21     1     4.2   89.8   16604   72.1   17.7   0.5   1.6   3.8   7.0   8.5   5.4   3.2   1.9   0.0   0.0   0.1   0.6   0.9   0.8   0.9  2.19  0.91  0.49  0.00  0.00   41.74   55.50    1.98    0.00    0.49
 1990 288    76    21     1     4.4   86.1   16604   68.6   17.5   0.6   1.5   3.2   6.5   7.9   5.3   3.2   2.0   0.0   0.0   0.1   0.6   0.9   0.8   0.9  2.17  0.92  0.49  0.00  0.00   42.35   55.97    2.04    0.00    0.49
 1990 289    77    21     1     4.4   82.5   16603   65.3   17.2   0.6   1.3   2.7   6.1   7.5   5.1   3.2   2.0   0.0   0.0   0.1   0.5   0.8   0.8   0.9  2.14  0.92  0.49  0.00  0.00   42.95   56.49    2.06    0.00    0.49
 1990 290    78    21     1     4.5   79.3   16603   62.5   16.8   0.6   1.2   2.3   5.8   7.1   4.9   3.2   2.0   0.0   0.0   0.1   0.5   0.8   0.7   0.9  2.09  0.92  0.48  0.00  0.00   43.56   57.05    2.07    0.00    0.49
 1990 291    79    21     1     4.5   77.9   16602   61.2   16.7   0.7   1.2   2.2   5.6   6.9   4.8   3.2   2.0   0.0   0.0   0.1   0.5   0.8   0.7   0.8  2.07  0.92  0.48  0.00  0.00   44.16   57.60    2.08    0.00    0.50
 1990 292    80    21     1     4.5   72.7   16601   56.7   16.0   0.6   1.0   1.7   5.1   6.3   4.5   3.2   2.0   0.0   0.0   0.1   0.5   0.7   0.7   0.8  1.98  0.93  0.48  0.00  0.00   44.77   58.16    2.08    0.00    0.50
 1990 293    81    21     1     4.5   69.3   16601   53.6   15.7   0.4   1.0   1.4   4.7   5.9   4.3   3.2   2.0   0.0   0.0   0.2   0.5   0.7   0.7   0.8  1.91  0.93  0.48  0.00  0.00   45.39   58.65    2.09    0.00    0.50
 1990 294    82    21     1     4.5   65.2   16600   50.0   15.2   0.5   0.8   1.1   4.3   5.4   4.0   3.2   2.0   0.0   0.0   0.1   0.6   0.7   0.6   0.7  1.81  0.93  0.48  0.00  0.00   46.03   59.21    2.09    0.00    0.51
 1990 295    83    21     1     4.5   60.0   16600   45.6   14.4   0.4   0.6   0.8   3.7   4.7   3.6   3.2   2.0   0.0   0.0   0.1   0.5   0.7   0.6   0.7  1.68  0.93  0.48  0.00  0.00   46.69   59.84    2.09    0.00    0.51
 1990 296    84    21     1     4.5   54.3   16599   40.7   13.6   0.4   0.5   0.5   3.1   4.0   3.2   3.2   2.0   0.0   0.0   0.1   0.5   0.6   0.6   0.6  1.54  0.93  0.48  0.00  0.00   47.36   60.47    2.09    0.00    0.51
 1990 297    85    21     1     4.5   50.1   16598   37.1   13.0   0.4   0.4   0.3   2.6   3.5   2.8   3.2   2.0   0.0   0.0   0.1   0.5   0.6   0.6   0.6  1.42  0.94  0.47  0.00  0.00   48.02   61.07    2.10    0.00    0.52
 1990 298    86    21     1     4.5   45.8   16598   33.4   12.4   0.4   0.4   0.3   2.1   2.9   2.5   3.3   2.1   0.0   0.0   0.1   0.5   0.6   0.5   0.6  1.29  0.94  0.47  0.00  0.00   48.67   61.65    2.10    0.00    0.52
 1990 299    87    21     1     4.5   42.4   16597   30.5   11.9   0.4   0.4   0.3   1.8   2.4   2.1   3.3   2.1   0.0   0.0   0.1   0.5   0.6   0.5   0.6  1.19  0.94  0.47  0.00  0.00   49.30   62.21    2.10    0.00    0.52
 1990 300    88    21     1     4.5   38.7   16596   27.3   11.3   0.4   0.4   0.3   1.4   1.9   1.8   3.3   2.1   0.0   0.0   0.1   0.5   0.6   0.5   0.5  1.07  0.94  0.47  0.00  0.00   49.93   62.77    2.10    0.00    0.52
 1990 301    89    21     1     4.5   35.7   16596   24.8   10.9   0.4   0.4   0.3   1.1   1.5   1.5   3.3   2.1   0.0   0.0   0.1   0.5   0.6   0.5   0.5  0.98  0.94  0.47  0.00  0.00   50.55   63.32    2.10    0.00    0.53
 1990 302    90    21     1     4.5   33.3   16595   22.8   10.5   0.4   0.4   0.3   0.8   1.2   1.2   3.3   2.1   0.0   0.0   0.1   0.4   0.6   0.5   0.5  0.90  0.94  0.47  0.00  0.00   51.15   63.85    2.11    0.00    0.53
 1990 303    91    21     1     4.5   31.4   16595   21.3   10.2   0.2   0.4   0.4   0.7   1.0   1.0   3.3   2.1   0.0   0.0   0.1   0.4   0.6   0.5   0.5  0.84  0.95  0.46  0.00  0.00   51.77   64.39    2.11    0.00    0.53
 1990 304    92    21     1     4.5   30.1   16594   20.0   10.1   0.4   0.3   0.3   0.5   0.8   0.8   3.3   2.1   0.0   0.0   0.1   0.6   0.6   0.5   0.5  0.79  0.95  0.46  0.00  0.00   52.48   64.83    2.11    0.00    0.53
 1990 305    93    21     1     4.5   29.0   16593   19.1    9.9   0.4   0.4   0.3   0.4   0.6   0.7   3.3   2.1   0.0   0.0   0.1   0.5   0.6   0.5   0.5  0.75  0.95  0.46  0.00  0.00   53.18   65.42    2.11    0.00    0.54
 1990 306    94    21     1     4.5   28.0   16593   18.2    9.8   0.3   0.4   0.3   0.4   0.5   0.6   3.3   2.1   0.0   0.0   0.2   0.5   0.6   0.5   0.5  0.72  0.95  0.46  0.00  0.00   53.86   65.91    2.11    0.00    0.54
 1990 307    95    21     1     4.5   27.4   16592   17.8    9.6   0.5   0.4   0.3   0.3   0.4   0.5   3.4   2.1   0.0   0.0   0.1   0.5   0.6   0.5   0.5  0.69  0.93  0.46  0.00  0.00   54.54   66.60    2.11    0.00    0.54
 1990 308    96    21     1     4.5   26.7   16591   17.3    9.4   0.1   0.4   0.4   0.3   0.4   0.4   3.4   2.1   0.0   0.0   0.1   0.5   0.6   0.5   0.5  0.67  0.91  0.46  0.00  0.00   55.22   67.18    2.11    0.00    0.54
 1990 309    97    21     1     4.5   26.3   16591   16.6    9.6   0.1   0.3   0.3   0.3   0.3   0.3   3.4   2.1   0.0   0.0   0.2   0.6   0.7   0.5   0.5  0.65  0.90  0.46  0.00  0.00   55.90   67.48    2.11    0.00    0.54
 1990 310    98    21     1     4.5   25.1   16590   15.8    9.3   0.4   0.4   0.3   0.3   0.3   0.3   3.1   2.1   0.0   0.0   0.1   0.5   0.7   0.5   0.5  0.64  0.84  0.46  0.00  0.00   56.57   68.07    2.11    0.00    0.55
 1990 311    99    21     1     4.5   23.9   16589   14.9    9.0   0.4   0.4   0.3   0.3   0.3   0.3   2.7   2.1   0.0   0.0   0.1   0.5   0.6   0.5   0.5  0.62  0.78  0.45  0.00  0.00   57.22   68.61    2.11    0.00    0.55
 1990 312   100    21     1     4.5   22.9   16589   14.0    8.9   0.3   0.4   0.3   0.3   0.3   0.3   2.4   2.1   0.0   0.0   0.2   0.5   0.6   0.5   0.5  0.61  0.73  0.45  0.00  0.00   57.85   69.07    2.12    0.00    0.55
 1990 313   101    21     1     4.5   22.1   16588   13.4    8.7   0.4   0.4   0.3   0.3   0.3   0.3   2.1   2.1   0.0   0.0   0.1   0.5   0.6   0.5   0.5  0.60  0.69  0.45  0.00  0.00   58.43   69.59    2.12    0.00    0.55
 1990 314   102    21     1     4.5   21.3   16588   12.8    8.5   0.4   0.4   0.3   0.3   0.3   0.3   1.9   2.1   0.0   0.0   0.1   0.5   0.6   0.5   0.5  0.60  0.66  0.45  0.00  0.00   59.00   70.06    2.12    0.00    0.55
 1990 315   103    21     1     4.5   20.7   16587   12.3    8.4   0.4   0.4   0.3   0.3   0.3   0.3   1.6   2.1   0.0   0.0   0.1   0.5   0.6   0.5   0.5  0.59  0.63  0.45  0.00  0.00   59.60   70.54    2.12    0.00    0.55
 1990 316   104    21     1     4.5   20.2   16587   11.8    8.3   0.4   0.4   0.3   0.3   0.3   0.3   1.4   2.2   0.0   0.0   0.1   0.5   0.6   0.5   0.5  0.58  0.60  0.45  0.00  0.00   60.22   71.04    2.12    0.00    0.56
 1990 317   105    21     1     4.5   19.7   16586   11.4    8.3   0.4   0.4   0.3   0.3   0.3   0.3   1.3   2.2   0.0   0.0   0.1   0.5   0.6   0.5   0.5  0.58  0.58  0.45  0.00  0.00   60.84   71.55    2.12    0.00    0.56
 1990 318   106    21     1     4.5   19.4   16585   11.2    8.2   0.4   0.4   0.3   0.3   0.3   0.3   1.1   2.2   0.0   0.0   0.1   0.5   0.6   0.5   0.5  0.58  0.56  0.44  0.00  0.00   61.54   72.13    2.12    0.00    0.56
 1990 319   107    21     1     4.5   19.0   16585   10.9    8.1   0.4   0.4   0.3   0.3   0.3   0.3   1.0   2.2   0.0   0.0   0.1   0.5   0.6   0.5   0.5  0.57  0.55  0.43  0.00  0.00   62.27   72.78    2.12    0.00    0.56
 1990 320   108    21     1     4.5   18.7   16584   10.7    8.0   0.1   0.3   0.4   0.3   0.4   0.3   0.9   2.2   0.0   0.0   0.1   0.5   0.6   0.5   0.5  0.57  0.54  0.42  0.00  0.00   62.99   73.42    2.12    0.00    0.56
 1990 321   109    21     1     4.5   18.5   16583   10.1    8.4   0.2   0.3   0.3   0.3   0.3   0.3   0.8   2.2   0.0   0.0   0.2   0.6   0.7   0.5   0.5  0.57  0.53  0.41  0.00  0.00   63.74   73.61    2.12    0.00    0.56
 1990 322   110    21     1     4.5   18.5   16583   10.1    8.5   0.5   0.3   0.3   0.3   0.3   0.3   0.7   2.2   0.0   0.0   0.1   0.7   0.7   0.6   0.5  0.57  0.52  0.40  0.00  0.00   64.52   74.06    2.12    0.00    0.57
 1990 323   111    21     1     4.5   18.3   16582   10.2    8.1   0.3   0.5   0.3   0.3   0.3   0.3   0.6   2.2   0.0   0.0   0.1   0.5   0.6   0.6   0.5  0.57  0.51  0.39  0.00  0.00   65.28   74.71    2.12    0.00    0.57
 1990 324   112    21     1     4.5   18.1   16581   10.0    8.0   0.4   0.4   0.3   0.3   0.3   0.3   0.6   2.2   0.0   0.0   0.1   0.5   0.6   0.5   0.5  0.57  0.50  0.39  0.00  0.00   66.04   75.36    2.12    0.00    0.57
 1990 325   113    21     1     4.5   17.9   16580    9.9    8.0   0.4   0.4   0.3   0.3   0.3   0.3   0.5   2.3   0.0   0.0   0.1   0.5   0.6   0.5   0.5  0.57  0.49  0.38  0.00  0.00   66.82   76.00    2.12    0.00    0.57
 1990 326   114    21     1     4.5   17.8   16580    9.9    7.9   0.4   0.4   0.3   0.3   0.3   0.3   0.5   2.3   0.0   0.0   0.1   0.5   0.6   0.5   0.5  0.57  0.49  0.37  0.00  0.00   67.64   76.69    2.12    0.00    0.58
 1990 327   115    21     1     4.5   17.4   16579    9.5    7.9   0.4   0.4   0.3   0.3   0.3   0.3   0.4   2.2   0.0   0.0   0.1   0.5   0.6   0.5   0.5  0.57  0.48  0.36  0.00  0.00   68.46   77.37    2.12    0.00    0.58
 1990 328   116    21     1     4.5   17.0   16578    9.1    7.8   0.4   0.4   0.3   0.3   0.3   0.3   0.4   2.0   0.0   0.0   0.1   0.5   0.6   0.5   0.5  0.57  0.48  0.35  0.00  0.00   69.27   78.05    2.12    0.00    0.58
 1990 329   117    21     1     4.5   16.5   16577    8.7    7.8   0.4   0.4   0.3   0.3   0.3   0.3   0.3   1.9   0.0   0.0   0.1   0.5   0.6   0.5   0.5  0.57  0.47  0.34  0.00  0.00   70.05   78.70    2.12    0.00    0.58
 1990 330   118    21     1     4.5   16.1   16577    8.4    7.7   0.3   0.4   0.4   0.3   0.3   0.3   0.3   1.8   0.0   0.0   0.1   0.5   0.6   0.5   0.5  0.57  0.46  0.34  0.00  0.00   70.81   79.35    2.12    0.00    0.58
 1990 331   119    21     1     4.5   15.8   16576    7.9    7.9   0.3   0.3   0.3   0.3   0.3   0.3   0.3   1.7   0.0   0.0   0.2   0.6   0.6   0.5   0.5  0.57  0.46  0.33  0.00  0.00   71.56   79.76    2.12    0.00    0.59
 1990 332   120    21     1     4.5   15.5   16575    7.9    7.6   0.6   0.4   0.3   0.3   0.3   0.3   0.3   1.6   0.0   0.0   0.1   0.5   0.6   0.5   0.5  0.57  0.45  0.32  0.00  0.00   72.28   80.50    2.12    0.00    0.59
 1990 333   121    21     1     4.5   15.1   16575    7.5    7.6   0.3   0.4   0.3   0.3   0.3   0.3   0.3   1.5   0.0   0.0   0.1   0.5   0.6   0.5   0.5  0.56  0.44  0.32  0.00  0.00   72.97   81.05    2.12    0.00    0.59
 1990 334   122    21     1     4.5   14.9   16574    7.3    7.6   0.4   0.4   0.3   0.3   0.3   0.3   0.3   1.4   0.0   0.0   0.1   0.5   0.6   0.5   0.5  0.56  0.44  0.31  0.00  0.00   73.64   81.63    2.12    0.00    0.59
 1990 335   123    21     1     4.5   14.6   16573    7.1    7.5   0.4   0.4   0.3   0.3   0.3   0.3   0.3   1.3   0.0   0.0   0.1   0.5   0.6   0.5   0.5  0.56  0.43  0.30  0.00  0.00   74.30   82.18    2.12    0.00    0.60
 1990 336   124    21     1     4.5   14.4   16573    6.9    7.5   0.4   0.4   0.3   0.3   0.3   0.3   0.3   1.3   0.0   0.0   0.1   0.5   0.6   0.5   0.5  0.56  0.43  0.30  0.00  0.00   74.95   82.74    2.12    0.00    0.60
 1990 337   125    21     1     4.5   14.1   16572    6.7    7.4   0.3   0.4   0.3   0.3   0.3   0.3   0.3   1.2   0.0   0.0   0.1   0.5   0.6   0.5   0.5  0.56  0.42  0.29  0.00  0.00   75.60   83.30    2.12    0.00    0.60
 1990 338   126    33     2     4.5   25.9   16572   12.5   13.4  11.1   0.4   0.3   0.3   0.3   0.3   0.3   1.1   0.0   0.0  11.0   0.5   0.6   0.5   0.5  0.55  0.42  0.28  0.00  0.00   76.22   83.79    2.12    0.00    0.62
 1990 339   127    33     2     4.5   17.6   16571   10.4    7.2   7.6   0.4   0.3   0.3   0.3   0.3   0.3   1.1   0.0   0.0   0.0   0.5   0.6   0.5   0.5  0.55  0.41  0.28  0.00  0.00   76.83   86.47    2.12    0.00    0.65
 1990 340   128    33     2     4.5   14.7   16570    7.4    7.2   0.0   1.2   0.4   0.4   0.3   0.3   0.3   1.0   0.0   0.0   0.2   0.5   0.6   0.5   0.5  0.55  0.40  0.27  0.00  0.00   77.46   86.96    2.12    0.00    0.65
 1990 341   129    33     2     4.5   14.0   16570    6.4    7.6   0.0   0.1   0.4   0.3   0.3   0.3   0.3   0.9   0.0   0.0   0.2   0.6   0.7   0.5   0.5  0.55  0.40  0.27  0.00  0.00   78.15   87.17    2.12    0.00    0.67
 1990 342   130    33     2     4.5   13.8   16569    5.8    8.0   0.1   0.2   0.3   0.3   0.3   0.3   0.3   0.9   0.0   0.0   0.3   0.7   0.7   0.6   0.5  0.56  0.40  0.26  0.00  0.00   78.90   87.33    2.12    0.00    0.69
 1990 343   131    33     2     4.6   13.6   16568    5.6    8.0   0.5   0.2   0.3   0.3   0.3   0.2   0.3   0.9   0.0   0.0   0.0   0.7   0.7   0.6   0.5  0.57  0.40  0.25  0.00  0.00   79.67   87.73    2.12    0.00    0.71
 1990 344   132    33     2     5.3   12.7   16568    4.8    7.9   0.0   0.3   0.2   0.2   0.2   0.3   0.3   0.6   0.0   0.0   0.1   0.5   0.7   0.6   0.6  0.58  0.40  0.25  0.00  0.00   80.40   88.09    2.12    0.00    0.71
 1990 345   133    33     2     5.6   12.7   16567    4.4    8.3   0.0   0.3   0.2   0.2   0.2   0.2   0.2   0.5   0.0   0.0   0.2   0.6   0.8   0.6   0.6  0.59  0.40  0.25  0.00  0.00   81.04   88.17    2.12    0.00    0.73
 1990 346   134    33     2     5.7   12.8   16566    4.5    8.3   0.3   0.3   0.2   0.2   0.2   0.2   0.2   0.5   0.0   0.0   0.1   0.7   0.7   0.6   0.6  0.59  0.41  0.25  0.00  0.00   81.71   88.42    2.13    0.00    0.75
 1990 347   135    33     2     5.8   12.8   16566    4.5    8.3   0.3   0.3   0.3   0.2   0.3   0.2   0.2   0.4   0.0   0.0   0.1   0.7   0.7   0.6   0.6  0.59  0.42  0.25  0.00  0.00   82.36   88.59    2.13    0.00    0.77
 1990 348   136    33     2     5.8   12.8   16565    4.7    8.1   0.3   0.4   0.3   0.3   0.3   0.2   0.3   0.4   0.0   0.0   0.1   0.5   0.7   0.6   0.6  0.59  0.41  0.25  0.00  0.00   83.00   88.98    2.13    0.00    0.77
 1990 349   137    33     2     5.8   12.6   16565    4.8    7.8   0.4   0.4   0.3   0.3   0.3   0.3   0.3   0.4   0.0   0.0   0.1   0.5   0.6   0.6   0.6  0.59  0.41  0.25  0.00  0.00   83.66   89.52    2.13    0.00    0.77
 1990 350   138    33     2     5.8   12.5   16564    4.8    7.7   0.4   0.4   0.3   0.3   0.3   0.3   0.3   0.4   0.0   0.0   0.1   0.5   0.6   0.6   0.6  0.59  0.41  0.24  0.00  0.00   84.36   90.07    2.13    0.00    0.77
 1990 351   139    33     2     5.8   12.4   16563    4.8    7.6   0.4   0.4   0.3   0.3   0.3   0.3   0.3   0.4   0.0   0.0   0.1   0.5   0.6   0.5   0.5  0.59  0.41  0.24  0.00  0.00   85.09   90.64    2.13    0.00    0.78
 1990 352   140    33     2     5.8   12.4   16563    4.8    7.6   0.2   0.3   0.3   0.3   0.3   0.3   0.3   0.3   0.0   0.0   0.1   0.5   0.6   0.5   0.5  0.59  0.41  0.23  0.00  0.00   85.86   91.25    2.13    0.00    0.78
 1990 353   141    33     2     5.8   12.4   16562    4.3    8.0   0.2   0.3   0.3   0.3   0.3   0.3   0.3   0.3   0.0   0.0   0.2   0.6   0.7   0.6   0.6  0.59  0.41  0.23  0.00  0.00   86.65   91.42    2.13    0.00    0.78
 1990 354   142    33     2     5.8   12.6   16561    4.5    8.1   0.6   0.3   0.3   0.3   0.3   0.3   0.3   0.3   0.0   0.0   0.0   0.7   0.7   0.6   0.6  0.59  0.40  0.23  0.00  0.00   87.47   91.81    2.13    0.00    0.78
 1990 355   143    33     2     5.8   12.6   16561    4.7    7.9   0.3   0.5   0.3   0.3   0.3   0.3   0.3   0.3   0.0   0.0   0.1   0.5   0.6   0.6   0.6  0.59  0.40  0.22  0.00  0.00   88.29   92.39    2.13    0.00    0.79
 1990 356   144    33     2     5.8   12.5   16560    4.8    7.7   0.3   0.3   0.4   0.3   0.3   0.3   0.3   0.3   0.0   0.0   0.1   0.5   0.6   0.6   0.6  0.59  0.40  0.22  0.00  0.00   89.12   93.08    2.13    0.00    0.79
 1990 357   145    33     2     5.8   12.4   16559    4.2    8.2   0.3   0.3   0.3   0.3   0.3   0.3   0.3   0.3   0.0   0.0   0.2   0.6   0.7   0.6   0.6  0.59  0.40  0.21  0.00  0.00   89.90   93.22    2.13    0.00    0.79
 1990 358   146    33     2     5.8   12.7   16558    4.3    8.4   0.2   0.3   0.3   0.3   0.3   0.3   0.3   0.3   0.0   0.0   0.3   0.7   0.7   0.6   0.6  0.59  0.40  0.21  0.00  0.00   90.71   93.45    2.13    0.00    0.79
 1990 359   147    33     2     5.8   12.8   16558    4.1    8.7   0.3   0.3   0.3   0.3   0.2   0.2   0.3   0.3   0.0   0.0   0.4   0.7   0.8   0.6   0.6  0.60  0.41  0.21  0.00  0.00   91.49   93.60    2.13    0.00    0.80
 1990 360   148    33     2     5.9   13.0   16557    4.5    8.5   0.8   0.3   0.3   0.3   0.3   0.3   0.3   0.3   0.0   0.0   0.0   0.7   0.8   0.6   0.6  0.60  0.41  0.21  0.00  0.00   92.29   94.10    2.13    0.00    0.80
 1990 361   149    33     2     5.9   12.7   16556    4.4    8.2   0.3   0.5   0.3   0.3   0.3   0.3   0.3   0.3   0.0   0.0   0.1   0.5   0.8   0.6   0.6  0.60  0.41  0.20  0.00  0.00   93.10   94.54    2.13    0.00    0.81
 1990 362   150    33     2     5.9   12.6   16556    4.8    7.9   0.5   0.4   0.3   0.3   0.3   0.3   0.3   0.3   0.0   0.0   0.1   0.5   0.6   0.6   0.6  0.60  0.41  0.20  0.00  0.00   93.96   95.30    2.13    0.00    0.81
 1990 363   151    33     2     5.9   12.3   16555    4.6    7.7   0.4   0.4   0.3   0.3   0.3   0.3   0.3   0.3   0.0   0.0   0.1   0.5   0.6   0.6   0.6  0.60  0.41  0.20  0.00  0.00   94.78   95.94    2.13    0.00    0.81
 1990 364   152    33     2     5.9   12.3   16554    4.6    7.6   0.4   0.4   0.3   0.3   0.3   0.3   0.3   0.3   0.0   0.0   0.1   0.5   0.6   0.6   0.6  0.60  0.41  0.20  0.00  0.00   95.60   96.58    2.13    0.00    0.81
 1990 365   153    33     2     5.9   12.2   16553    4.6    7.6   0.4   0.4   0.3   0.3   0.3   0.3   0.3   0.3   0.0   0.0   0.1   0.5   0.6   0.6   0.6  0.60  0.41  0.20  0.00  0.00   96.43   97.21    2.13    0.00    0.82
 1991 001   154    33     2     5.9   12.2   16553    4.6    7.5   0.4   0.4   0.3   0.3   0.3   0.3   0.3   0.3   0.0   0.0   0.1   0.5   0.6   0.5   0.5  0.60  0.41  0.19  0.00  0.00   97.25   97.83    2.13    0.00    0.82
 1991 002   155    33     2     5.9   12.1   16552    4.6    7.5   0.4   0.4   0.3   0.3   0.3   0.3   0.3   0.3   0.0   0.0   0.1   0.5   0.6   0.5   0.5  0.60  0.41  0.19  0.00  0.00   98.05   98.45    2.13    0.00    0.82
 1991 003   156    33     2     5.9   12.1   16551    4.6    7.5   0.4   0.4   0.3   0.3   0.3   0.3   0.3   0.3   0.0   0.0   0.1   0.5   0.6   0.5   0.5  0.60  0.41  0.19  0.00  0.00   98.88   99.09    2.13    0.00    0.82
 1991 004   157    33     2     5.9   12.1   16551    4.7    7.4   0.4   0.4   0.3   0.3   0.3   0.3   0.3   0.3   0.0   0.0   0.1   0.5   0.6   0.5   0.5  0.60  0.41  0.19  0.00  0.00   99.73   99.76    2.13    0.00    0.83
 1991 005   158    33     2     5.9   12.0   16550    4.7    7.4   0.4   0.4   0.3   0.3   0.3   0.3   0.3   0.3   0.0   0.0   0.1   0.4   0.6   0.5   0.5  0.60  0.41  0.19  0.00  0.00  100.55  100.42    2.13    0.00    0.83
 1991 006   159    33     2     5.9   11.9   16549    4.6    7.3   0.4   0.4   0.3   0.3   0.3   0.3   0.3   0.3   0.0   0.0   0.1   0.4   0.6   0.5   0.5  0.59  0.41  0.19  0.00  0.00  101.33  101.06    2.13    0.00    0.83
 1991 007   160    33     2     5.9   11.9   16549    4.6    7.2   0.4   0.4   0.3   0.3   0.3   0.3   0.3   0.3   0.0   0.0   0.1   0.4   0.6   0.5   0.5  0.59  0.41  0.18  0.00  0.00  102.08  101.69    2.13    0.00    0.83
 1991 008   161    33     2     5.9   11.8   16548    4.6    7.2   0.2   0.4   0.4   0.3   0.3   0.3   0.3   0.3   0.0   0.0   0.1   0.4   0.6   0.5   0.5  0.59  0.40  0.18  0.00  0.00  102.81  102.32    2.13    0.00    0.83
 1991 009   162    33     2     5.9   11.9   16547    4.5    7.4   0.3   0.3   0.3   0.3   0.3   0.3   0.3   0.3   0.0   0.0   0.1   0.5   0.6   0.5   0.5  0.59  0.40  0.18  0.00  0.00  103.68  102.82    2.13    0.00    0.84
 1991 010   163    33     2     5.9   12.0   16546    4.7    7.3   0.4   0.5   0.3   0.3   0.3   0.3   0.3   0.3   0.0   0.0   0.1   0.5   0.6   0.5   0.5  0.59  0.40  0.18  0.00  0.00  104.54  103.56    2.13    0.00    0.84
 1991 011   164    33     2     5.9   11.9   16546    4.5    7.4   0.4   0.3   0.3   0.3   0.3   0.3   0.3   0.3   0.0   0.0   0.1   0.6   0.6   0.5   0.5  0.59  0.40  0.18  0.00  0.00  105.40  104.09    2.13    0.00    0.84
 1991 012   165    33     2     5.9   12.8   16545    5.3    7.5   0.6   0.5   0.4   0.3   0.3   0.3   0.3   0.3   0.0   0.0   0.1   0.6   0.7   0.5   0.5  0.60  0.40  0.18  0.00  0.00  106.24  104.86    2.13    0.00    0.84
 1991 013   166    33     2     5.9   13.6   16544    6.0    7.6   0.8   0.7   0.5   0.4   0.4   0.3   0.3   0.3   0.0   0.0   0.1   0.5   0.7   0.5   0.5  0.61  0.39  0.18  0.00  0.00  107.04  105.56    2.13    0.00    0.85
 1991 014   167    33     2     5.9   14.3   16544    6.7    7.7   0.9   0.9   0.6   0.4   0.4   0.3   0.3   0.3   0.0   0.0   0.1   0.5   0.8   0.5   0.5  0.62  0.39  0.17  0.00  0.00  107.79  106.22    2.13    0.00    0.85

*DSSAT Cropping System Model Ver. 4.0.2.000               Aug 03, 2016; 15:30:22

*RUN   2        : UYMZ                    
 MODEL          : MZCER040 - Maize           
 EXPERIMENT     : UYMZ0129 MZ    late to create DSS                             
 TREATMENT  1   : UYMZ                    

@YEAR DOY   DAS  NAPC  NI#M    NLCC   NIAD    NOAD   NITD   NHTD  NI1D  NI2D  NI3D  NI4D  NI5D  NI6D  NI7D  NI8D  NI9D  NI10  NH1D  NH2D  NH3D  NH4D  NH5D  NH6D  NH7D  NH8D  NH9D  NH10    NMNC    NITC    NDNC    NIMC    AMLC
 1991 212     0     0     0     0.0   99.3   16646   76.5   22.8   9.0  18.3  15.4   8.6   4.6   0.0   0.1   0.1   0.0   0.0   0.6   1.3   1.5   1.4   1.4  1.50  1.46  1.45  0.00  0.00    0.53    1.68    0.00    0.00    0.00
 1991 213     1     0     0     0.0   99.8   16645   77.5   22.3   9.4  17.8  15.9   8.7   4.6   0.0   0.1   0.1   0.0   0.0   0.3   1.4   1.4   1.4   1.4  1.51  1.43  1.41  0.00  0.00    1.05    2.73    0.00    0.00    0.00
 1991 214     2     0     0     0.0  100.3   16645   78.6   21.7   9.5  17.8  16.1   8.8   4.7   0.1   0.1   0.2   0.0   0.0   0.2   1.2   1.4   1.3   1.4  1.51  1.40  1.37  0.00  0.00    1.52    3.76    0.00    0.00    0.00
 1991 215     3     0     0     0.0  100.7   16644   79.5   21.2   5.2  15.5  19.4   8.8   4.8   0.1   0.2   0.2   0.0   0.0   0.2   1.1   1.4   1.3   1.3  1.51  1.37  1.33  0.00  0.00    1.94    4.67    0.00    0.00    0.00
 1991 216     4     0     0     0.0  101.1   16644   80.2   20.9   2.7  11.6  18.8  12.4   4.9   0.1   0.2   0.2   0.0   0.0   0.1   1.2   1.4   1.3   1.3  1.51  1.34  1.29  0.00  0.00    2.33    5.37    0.00    0.00    0.00
 1991 217     5     0     0     0.0  101.4   16643   80.6   20.8   2.7  11.4  18.4  12.3   5.6   0.1   0.3   0.3   0.0   0.0   0.2   1.2   1.4   1.3   1.2  1.52  1.31  1.25  0.00  0.00    2.67    5.80    0.00    0.00    0.00
 1991 218     6     0     0     0.0  101.8   16643   81.1   20.7   2.9  11.3  18.2  12.3   6.0   0.1   0.3   0.3   0.0   0.0   0.1   1.2   1.5   1.3   1.2  1.52  1.28  1.22  0.00  0.00    3.01    6.26    0.00    0.00    0.00
 1991 219     7     0     0     0.0  102.1   16643   81.6   20.5   3.1  11.3  18.1  12.3   6.1   0.1   0.3   0.4   0.0   0.0   0.1   1.1   1.5   1.3   1.2  1.52  1.26  1.18  0.00  0.00    3.36    6.83    0.00    0.00    0.00
 1991 220     8     0     0     0.0  102.5   16642   82.2   20.3   3.4  11.3  18.1  12.3   6.2   0.2   0.4   0.4   0.0   0.0   0.1   1.0   1.5   1.3   1.2  1.52  1.23  1.15  0.00  0.00    3.73    7.41    0.00    0.00    0.00
 1991 221     9     0     0     0.0  102.9   16642   82.9   20.0   3.7  11.4  18.2  12.3   6.2   0.2   0.4   0.4   0.0   0.0   0.1   1.0   1.5   1.3   1.1  1.52  1.21  1.12  0.00  0.00    4.12    8.10    0.00    0.00    0.00
 1991 222    10     0     0     0.0  103.3   16642   83.7   19.6   4.0  11.4  18.3  12.3   6.3   0.2   0.4   0.5   0.0   0.0   0.1   0.9   1.5   1.3   1.1  1.53  1.18  1.08  0.00  0.00    4.54    8.89    0.00    0.00    0.00
 1991 223    11     0     0     0.0  103.7   16641   84.5   19.3   4.2  11.4  18.3  12.4   6.4   0.2   0.5   0.5   0.0   0.0   0.1   0.8   1.5   1.2   1.1  1.53  1.16  1.05  0.00  0.00    4.95    9.64    0.00    0.00    0.00
 1991 224    12     0     0     0.0  104.1   16641   85.2   18.9   4.5  11.5  18.4  12.5   6.4   0.2   0.5   0.5   0.0   0.0   0.1   0.8   1.4   1.2   1.0  1.53  1.13  1.02  0.00  0.00    5.37   10.40    0.00    0.00    0.00
 1991 225    13     0     0     0.0  104.6   16640   85.9   18.6   4.8  11.5  18.5  12.5   6.5   0.2   0.5   0.6   0.0   0.0   0.1   0.7   1.4   1.2   1.0  1.53  1.11  0.99  0.00  0.00    5.81   11.14    0.00    0.00    0.00
 1991 226    14     0     0     0.0  105.0   16640   86.7   18.3   5.1  11.5  18.5  12.6   6.5   0.2   0.6   0.6   0.0   0.0   0.1   0.7   1.4   1.1   1.0  1.54  1.09  0.97  0.00  0.00    6.25   11.87    0.00    0.00    0.00
 1991 227    15     0     0     0.0  105.5   16639   87.4   18.0   5.4  11.6  18.6  12.6   6.6   0.3   0.6   0.6   0.0   0.0   0.1   0.7   1.4   1.1   1.0  1.54  1.07  0.94  0.00  0.00    6.73   12.63    0.00    0.00    0.00
 1991 228    16     0     0     0.0  106.0   16639   88.3   17.8   5.6  11.7  18.7  12.7   6.6   0.3   0.6   0.7   0.0   0.0   0.1   0.6   1.3   1.1   1.0  1.54  1.04  0.91  0.00  0.00    7.27   13.45    0.00    0.00    0.00
 1991 229    17     0     0     0.0  106.6   16638   89.2   17.5   5.9  11.7  18.8  12.8   6.7   0.3   0.7   0.7   0.0   0.0   0.1   0.6   1.3   1.0   0.9  1.54  1.02  0.88  0.00  0.00    7.88   14.35    0.00    0.00    0.00
 1991 230    18     0     0     0.0  107.1   16637   89.9   17.2   6.1  11.7  18.9  12.9   6.7   0.3   0.7   0.7   0.0   0.0   0.1   0.6   1.3   1.0   0.9  1.55  1.00  0.86  0.00  0.00    8.55   15.29    0.00    0.00    0.00
 1991 231    19     0     0     0.0  107.8   16637   90.9   16.9   6.5  11.8  19.0  12.9   6.8   0.3   0.7   0.8   0.0   0.0   0.1   0.6   1.3   1.0   0.9  1.55  0.98  0.83  0.00  0.00    9.24   16.26    0.00    0.00    0.00
 1991 232    20     0     0     0.0  108.5   16636   91.8   16.7   6.8  11.9  19.1  13.0   6.8   0.4   0.8   0.8   0.0   0.0   0.1   0.5   1.3   0.9   0.9  1.55  0.96  0.81  0.00  0.00    9.93   17.20    0.00    0.00    0.00
 1991 233    21     0     0     0.0  109.2   16635   92.7   16.5   7.1  12.0  19.2  13.1   6.9   0.4   0.8   0.8   0.0   0.0   0.1   0.5   1.3   0.9   0.8  1.55  0.94  0.78  0.00  0.00   10.62   18.12    0.00    0.00    0.00
 1991 234    22     0     0     0.0  109.8   16635   93.6   16.3   7.3  12.1  19.3  13.1   7.0   0.4   0.8   0.8   0.0   0.0   0.1   0.5   1.2   0.9   0.8  1.56  0.92  0.76  0.00  0.00   11.31   19.01    0.00    0.00    0.00
 1991 235    23     0     0     0.0  110.5   16634   94.5   16.1   7.6  12.2  19.4  13.2   7.0   0.4   0.9   0.9   0.0   0.0   0.1   0.5   1.2   0.9   0.8  1.56  0.90  0.74  0.00  0.00   12.00   19.89    0.00    0.00    0.00
 1991 236    24    21     1     0.0  132.1   16633  105.8   26.3  26.9  12.3  19.5  13.3   7.1   0.4   0.9   0.9   0.0   0.0  19.0   0.5   1.2   0.8   0.8  1.56  0.88  0.72  0.00  0.00   12.68   20.76    0.00    0.00    0.03
 1991 237    25    21     1     0.0  132.7   16633  117.1   15.6  46.0  12.4  19.6  13.3   7.1   0.5   0.9   0.9   0.0   0.0   0.0   0.5   1.2   0.8   0.8  1.56  0.87  0.70  0.00  0.00   13.34   32.06    0.00    0.00    0.05
 1991 238    26    21     1     0.0  133.2   16632  117.6   15.5  46.0  12.4  19.7  13.4   7.1   0.5   1.0   1.0   0.0   0.0   0.1   0.5   1.2   0.8   0.8  1.57  0.85  0.68  0.00  0.00   14.00   32.81    0.00    0.00    0.05
 1991 239    27    21     1     0.0  133.5   16631  118.1   15.4  46.0  12.5  19.7  13.4   7.2   0.5   1.0   1.0   0.0   0.0   0.1   0.5   1.2   0.8   0.7  1.57  0.83  0.66  0.00  0.00   14.62   33.57    0.00    0.00    0.08
 1991 240    28    21     1     0.0  133.9   16631  118.6   15.3  46.0  12.5  19.7  13.5   7.2   0.5   1.0   1.0   0.0   0.0   0.1   0.5   1.2   0.8   0.7  1.57  0.82  0.64  0.00  0.00   15.20   34.24    0.00    0.00    0.10
 1991 241    29    21     1     0.0  134.2   16630  119.0   15.1  46.0  12.5  19.8  13.5   7.3   0.5   1.0   1.0   0.0   0.0   0.1   0.5   1.2   0.8   0.7  1.57  0.81  0.62  0.00  0.00   15.76   34.90    0.00    0.00    0.11
 1991 242    30    21     1     0.0  134.4   16630  119.4   15.0  45.9  12.6  19.8  13.5   7.3   0.5   1.1   1.0   0.0   0.0   0.1   0.5   1.2   0.7   0.7  1.58  0.79  0.61  0.00  0.00   16.33   35.56    0.00    0.00    0.13
 1991 243    31    21     1     0.0  134.6   16629  119.6   14.9  45.8  12.6  19.8  13.6   7.3   0.6   1.1   1.1   0.0   0.0   0.1   0.5   1.2   0.7   0.7  1.58  0.78  0.59  0.00  0.00   16.89   36.22    0.00    0.00    0.15
 1991 244    32    21     1     0.0  134.6   16629  119.7   14.8  31.2  18.8  20.4  13.6   7.4   0.6   1.1   1.1   0.0   0.0   0.1   0.5   1.2   0.7   0.7  1.58  0.77  0.57  0.00  0.00   17.46   36.86    0.00    0.00    0.17
 1991 245    33    21     1     0.0  134.7   16628  119.9   14.8  31.0  18.2  20.7  13.7   7.4   0.6   1.1   1.1   0.0   0.0   0.1   0.6   1.2   0.7   0.7  1.58  0.75  0.56  0.00  0.00   18.01   37.41    0.00    0.00    0.19
 1991 246    34    21     1     0.0  135.1   16627  120.3   14.8  30.9  18.0  20.9  13.7   7.5   0.6   1.2   1.1   0.0   0.0   0.1   0.6   1.2   0.7   0.7  1.58  0.74  0.55  0.00  0.00   18.56   37.95    0.00    0.00    0.21
 1991 247    35    21     1     0.0  135.1   16627  120.5   14.7  30.9  17.9  20.9  13.8   7.5   0.6   1.2   1.1   0.0   0.0   0.1   0.6   1.1   0.7   0.7  1.59  0.73  0.53  0.00  0.00   19.11   38.59    0.00    0.00    0.23
 1991 248    36    21     1     0.0  134.7   16626  120.2   14.5  30.7  17.7  20.7  13.8   7.5   0.7   1.2   1.2   0.0   0.0   0.1   0.6   1.1   0.7   0.7  1.59  0.72  0.52  0.00  0.00   19.67   39.23    0.00    0.00    0.24
 1991 249    37    21     1     0.0  134.3   16626  119.8   14.4  30.5  17.5  20.5  13.9   7.6   0.7   1.2   1.2   0.0   0.0   0.1   0.6   1.1   0.7   0.7  1.59  0.71  0.51  0.00  0.00   20.27   39.92    0.00    0.00    0.26
 1991 250    38    21     1     0.0  134.2   16625  119.8   14.3  27.2  19.0  20.4  13.9   7.6   0.7   1.2   1.2   0.0   0.0   0.1   0.6   1.1   0.7   0.7  1.59  0.70  0.49  0.00  0.00   20.91   40.63    0.00    0.00    0.28
 1991 251    39    21     1     0.0  133.8   16624  119.5   14.3  26.2  19.1  20.3  14.0   7.6   0.7   1.3   1.2   0.0   0.0   0.2   0.5   1.1   0.7   0.7  1.59  0.68  0.48  0.00  0.00   21.55   41.30    0.00    0.00    0.30
 1991 252    40    21     1     0.0  133.7   16624  119.6   14.1  26.1  19.0  20.3  14.0   7.7   0.7   1.3   1.2   0.0   0.0   0.1   0.5   1.1   0.7   0.6  1.60  0.67  0.47  0.00  0.00   22.17   42.01    0.00    0.00    0.33
 1991 253    41    21     1     0.0  133.1   16623  119.1   14.1  25.8  18.7  20.1  14.0   7.7   0.7   1.3   1.2   0.0   0.0   0.1   0.5   1.1   0.7   0.6  1.60  0.66  0.46  0.00  0.00   22.75   42.63    0.00    0.00    0.35
 1991 254    42    21     1     0.0  132.6   16623  118.6   14.0  25.7  18.5  19.8  14.1   7.7   0.8   1.3   1.3   0.0   0.0   0.1   0.5   1.1   0.6   0.6  1.60  0.66  0.45  0.00  0.00   23.31   43.23    0.00    0.00    0.37
 1991 255    43    21     1     0.0  131.7   16622  117.8   13.9  25.4  18.1  19.5  14.1   7.8   0.8   1.3   1.3   0.0   0.0   0.1   0.5   1.1   0.6   0.6  1.60  0.65  0.44  0.00  0.00   23.88   43.83    0.00    0.00    0.39
 1991 256    44    21     1     0.0  130.6   16622  116.8   13.8  25.1  17.8  19.2  14.0   7.8   0.8   1.4   1.3   0.0   0.0   0.1   0.5   1.1   0.6   0.6  1.60  0.64  0.42  0.00  0.00   24.49   44.48    0.00    0.00    0.41
 1991 257    45    21     1     0.0  129.6   16621  115.9   13.7  24.9  17.5  18.8  14.0   7.8   0.8   1.4   1.3   0.0   0.0   0.1   0.5   1.1   0.6   0.6  1.61  0.63  0.41  0.00  0.00   25.16   45.20    0.00    0.00    0.43
 1991 258    46    21     1     0.0  127.9   16620  114.3   13.6  16.3  20.3  18.8  13.9   7.9   0.8   1.4   1.3   0.0   0.0   0.1   0.5   1.1   0.6   0.6  1.61  0.62  0.40  0.00  0.00   25.83   45.91    0.00    0.00    0.44
 1991 259    47    21     1     0.0  128.5   16620  114.8   13.8  15.0  20.0  19.5  13.9   7.9   0.9   1.4   1.3   0.0   0.0   0.2   0.6   1.1   0.6   0.6  1.61  0.61  0.40  0.00  0.00   26.47   46.41    0.00    0.00    0.46
 1991 260    48    21     1     0.0  128.7   16619  115.0   13.8  10.6  18.6  21.0  14.7   7.9   0.9   1.4   1.3   0.0   0.0   0.1   0.7   1.1   0.6   0.6  1.61  0.60  0.39  0.00  0.00   27.09   46.99    0.00    0.00    0.50
 1991 261    49    21     1     1.3  125.0   16618  111.0   14.0   3.1  10.4  16.7  13.5  10.8   3.6   2.0   1.7   0.0   0.0   0.1   0.8   1.1   0.6   0.6  1.61  0.60  0.38  0.00  0.00   27.68   47.28    0.00    0.00    0.51
 1991 262    50    21     1     2.1  122.3   16618  108.0   14.3   2.9   9.8  15.7  12.9  10.6   3.8   2.2   1.7   0.0   0.0   0.1   0.8   1.2   0.7   0.6  1.63  0.60  0.38  0.00  0.00   28.22   47.43    0.00    0.00    0.54
 1991 263    51    21     1     2.5  120.6   16617  106.1   14.5   3.0   9.5  15.1  12.5  10.5   3.9   2.2   1.7   0.0   0.0   0.1   0.7   1.2   0.7   0.7  1.64  0.61  0.38  0.00  0.00   28.76   47.72    0.00    0.00    0.56
 1991 264    52    21     1     2.7  119.8   16617  105.3   14.5   3.2   9.3  14.9  12.3  10.4   3.9   2.2   1.7   0.0   0.0   0.1   0.7   1.2   0.7   0.7  1.66  0.62  0.38  0.00  0.00   29.34   48.18    0.00    0.00    0.58
 1991 265    53    21     1     2.8  118.1   16616  103.5   14.6   3.4   9.0  14.3  12.0  10.3   3.9   2.3   1.7   0.0   0.0   0.1   0.6   1.2   0.7   0.7  1.68  0.62  0.38  0.00  0.00   29.93   48.65    0.01    0.00    0.60
 1991 266    54    21     1     2.9  115.4   16616  100.8   14.5   3.4   8.5  13.4  11.8  10.2   3.9   2.3   1.7   0.0   0.0   0.1   0.6   1.1   0.7   0.7  1.69  0.63  0.38  0.00  0.00   30.53   49.17    0.04    0.00    0.62
 1991 267    55    21     1     2.9  113.6   16615   99.0   14.5   3.4   8.2  12.8  11.6  10.1   3.9   2.3   1.7   0.0   0.0   0.1   0.6   1.1   0.7   0.7  1.70  0.63  0.38  0.00  0.00   31.10   49.66    0.05    0.00    0.63
 1991 268    56    21     1     2.9  112.6   16614   98.0   14.6   3.5   8.0  12.4  11.5  10.0   3.9   2.3   1.7   0.0   0.0   0.1   0.6   1.1   0.7   0.7  1.72  0.64  0.38  0.00  0.00   31.67   50.14    0.06    0.00    0.65
 1991 269    57    21     1     2.9  111.0   16614   96.4   14.6   3.5   7.8  11.9  11.3   9.9   3.9   2.3   1.7   0.0   0.0   0.1   0.5   1.1   0.7   0.8  1.73  0.64  0.38  0.00  0.00   32.24   50.62    0.07    0.00    0.67
 1991 270    58    21     1     2.9  108.5   16613   94.0   14.5   3.5   7.4  11.2  11.1   9.8   3.9   2.3   1.7   0.0   0.0   0.1   0.5   1.0   0.7   0.7  1.75  0.64  0.38  0.00  0.00   32.79   51.13    0.07    0.00    0.69
 1991 271    59    21     1     2.9  105.6   16613   91.2   14.5   3.3   6.9  10.4  10.8   9.6   3.9   2.3   1.7   0.0   0.0   0.1   0.5   1.0   0.7   0.7  1.76  0.65  0.38  0.00  0.00   33.36   51.65    0.08    0.00    0.70
 1991 272    60    21     1     2.9  102.7   16612   88.3   14.4   3.2   6.4   9.6  10.4   9.3   3.9   2.3   1.7   0.0   0.0   0.1   0.5   1.0   0.6   0.7  1.77  0.65  0.38  0.00  0.00   33.91   52.16    0.09    0.00    0.72
 1991 273    61    21     1     2.9  101.0   16612   86.7   14.4   3.2   6.2   9.2  10.3   9.2   3.9   2.3   1.7   0.0   0.0   0.1   0.5   0.9   0.6   0.7  1.79  0.66  0.38  0.00  0.00   34.46   52.66    0.09    0.00    0.73
 1991 274    62    21     1     2.9   98.9   16611   84.5   14.3   3.0   5.9   8.6  10.0   9.0   3.9   2.3   1.7   0.0   0.0   0.1   0.4   0.9   0.6   0.7  1.80  0.66  0.38  0.00  0.00   34.98   53.15    0.10    0.00    0.75
 1991 275    63    21     1     2.9   96.7   16611   82.4   14.3   1.4   5.4   8.7   9.8   8.8   3.9   2.3   1.7   0.0   0.0   0.1   0.4   0.9   0.6   0.7  1.82  0.67  0.38  0.00  0.00   35.48   53.60    0.10    0.00    0.75
 1991 276    64    21     1     2.9   94.5   16610   80.0   14.4   1.3   5.1   8.1   9.5   8.6   3.9   2.3   1.8   0.0   0.0   0.2   0.5   0.9   0.6   0.7  1.83  0.67  0.38  0.00  0.00   36.01   53.92    0.11    0.00    0.75
 1991 277    65    21     1     2.9   92.3   16610   77.9   14.4   1.3   4.7   7.5   9.2   8.4   3.9   2.3   1.8   0.0   0.0   0.1   0.5   0.9   0.6   0.7  1.84  0.68  0.38  0.00  0.00   36.55   54.39    0.11    0.00    0.75
 1991 278    66    21     1     2.9   90.6   16609   76.1   14.5   1.3   4.5   7.1   9.0   8.2   4.0   2.3   1.8   0.0   0.0   0.1   0.5   0.9   0.6   0.6  1.86  0.68  0.38  0.00  0.00   37.10   54.86    0.12    0.00    0.76
 1991 279    67    21     1     2.9   90.1   16609   75.6   14.5   0.7   3.6   7.2   9.3   8.1   4.0   2.3   1.8   0.0   0.0   0.1   0.5   0.9   0.6   0.6  1.87  0.68  0.38  0.00  0.00   37.63   55.30    0.12    0.00    0.76
 1991 280    68    21     1     3.0   88.7   16608   73.9   14.7   0.4   2.6   6.1   8.6   8.9   4.3   2.4   1.8   0.0   0.0   0.2   0.6   0.9   0.6   0.6  1.88  0.69  0.38  0.00  0.00   38.12   55.51    0.13    0.00    0.76
 1991 281    69    21     1     3.5   87.5   16608   72.4   15.1   0.4   2.4   5.7   8.1   8.5   4.4   2.6   1.8   0.0   0.0   0.2   0.6   1.0   0.6   0.6  1.89  0.69  0.38  0.00  0.00   38.59   55.62    0.16    0.00    0.77
 1991 282    70    21     1     3.7   85.2   16607   70.0   15.2   0.5   2.2   5.2   7.6   8.1   4.4   2.6   1.9   0.0   0.0   0.2   0.7   1.0   0.6   0.7  1.91  0.70  0.38  0.00  0.00   39.05   55.81    0.17    0.00    0.77
 1991 283    71    21     1     3.8   83.8   16607   68.6   15.2   0.6   2.1   4.9   7.4   7.8   4.4   2.6   1.9   0.0   0.0   0.1   0.6   1.0   0.6   0.7  1.92  0.70  0.38  0.00  0.00   39.51   56.17    0.18    0.00    0.78
 1991 284    72    21     1     3.8   80.4   16606   65.3   15.1   0.6   1.9   4.1   7.0   7.4   4.4   2.6   1.9   0.0   0.0   0.1   0.6   0.9   0.6   0.7  1.93  0.70  0.38  0.00  0.00   40.01   56.64    0.19    0.00    0.78
 1991 285    73    21     1     3.8   76.9   16606   62.0   14.9   0.6   1.6   3.4   6.5   7.0   4.4   2.7   1.9   0.0   0.0   0.1   0.6   0.8   0.6   0.6  1.93  0.71  0.38  0.00  0.00   40.57   57.13    0.20    0.00    0.78
 1991 286    74    21     1     3.8   72.6   16605   57.9   14.6   0.6   1.3   2.6   5.9   6.4   4.3   2.7   1.9   0.0   0.0   0.1   0.5   0.8   0.6   0.6  1.91  0.71  0.38  0.00  0.00   41.21   57.69    0.20    0.00    0.79
 1991 287    75    21     1     3.8   67.2   16604   52.9   14.3   0.5   1.0   1.8   5.2   5.7   4.1   2.7   1.9   0.0   0.0   0.1   0.5   0.7   0.6   0.6  1.87  0.72  0.38  0.00  0.00   41.93   58.30    0.21    0.00    0.79
 1991 288    76    21     1     3.8   64.2   16604   50.0   14.1   0.2   0.7   1.4   4.5   5.7   4.0   2.7   1.9   0.0   0.0   0.2   0.5   0.7   0.6   0.6  1.83  0.72  0.37  0.00  0.00   42.71   58.88    0.21    0.00    0.79
 1991 289    77    21     1     7.6   58.5   16603   44.2   14.3   0.4   0.3   0.8   2.5   3.8   4.0   3.4   2.6   0.0   0.0   0.1   0.6   0.8   0.6   0.6  1.79  0.72  0.37  0.00  0.00   43.46   59.20    0.23    0.00    0.79
 1991 290    78    21     1     9.0   55.0   16602   40.5   14.4   0.3   0.3   0.7   2.2   3.1   3.6   3.3   2.6   0.0   0.0   0.2   0.7   0.9   0.6   0.6  1.73  0.73  0.38  0.00  0.00   44.13   59.29    0.32    0.00    0.80
 1991 291    79    21     1     9.8   51.6   16602   37.2   14.4   0.3   0.3   0.6   1.9   2.6   3.2   3.3   2.6   0.0   0.0   0.3   0.7   0.9   0.7   0.6  1.66  0.74  0.38  0.00  0.00   44.82   59.44    0.38    0.00    0.80
 1991 292    80    21     1    10.1   47.5   16601   34.0   13.5   0.5   0.4   0.4   1.5   2.2   2.8   3.2   2.6   0.0   0.0   0.1   0.6   0.9   0.7   0.6  1.54  0.74  0.38  0.00  0.00   45.45   59.93    0.41    0.00    0.80
 1991 293    81    21     1    10.3   42.9   16600   30.4   12.4   0.4   0.4   0.3   1.2   1.8   2.4   3.2   2.6   0.0   0.0   0.1   0.5   0.7   0.6   0.6  1.39  0.75  0.38  0.00  0.00   46.05   60.44    0.42    0.00    0.81
 1991 294    82    21     1    10.3   39.0   16600   27.4   11.6   0.4   0.4   0.3   1.0   1.4   2.0   3.2   2.6   0.0   0.0   0.1   0.5   0.6   0.6   0.6  1.25  0.75  0.38  0.00  0.00   46.66   60.91    0.43    0.00    0.81
 1991 295    83    21     1    10.3   36.2   16599   25.2   11.0   0.4   0.4   0.3   0.8   1.1   1.6   3.2   2.6   0.0   0.0   0.1   0.5   0.6   0.6   0.6  1.12  0.75  0.38  0.00  0.00   47.33   61.45    0.43    0.00    0.81
 1991 296    84    21     1    10.3   34.0   16598   23.5   10.5   0.4   0.4   0.3   0.6   0.9   1.4   3.2   2.6   0.0   0.0   0.1   0.5   0.6   0.6   0.5  1.02  0.76  0.38  0.00  0.00   48.07   62.05    0.43    0.00    0.82
 1991 297    85    21     1    10.3   32.2   16598   22.0   10.2   0.4   0.4   0.3   0.5   0.7   1.1   3.2   2.6   0.0   0.0   0.1   0.5   0.6   0.5   0.5  0.93  0.76  0.38  0.00  0.00   48.81   62.62    0.44    0.00    0.82
 1991 298    86    21     1    10.3   30.8   16597   20.9    9.9   0.4   0.4   0.3   0.4   0.6   0.9   3.2   2.6   0.0   0.0   0.1   0.5   0.6   0.5   0.5  0.87  0.77  0.38  0.00  0.00   49.50   63.15    0.44    0.00    0.82
 1991 299    87    21     1    10.3   29.6   16597   19.9    9.7   0.4   0.4   0.3   0.3   0.5   0.8   3.2   2.6   0.0   0.0   0.1   0.5   0.6   0.5   0.5  0.81  0.77  0.38  0.00  0.00   50.17   63.65    0.44    0.00    0.82
 1991 300    88    21     1    10.3   28.6   16596   19.2    9.5   0.4   0.4   0.3   0.3   0.4   0.6   3.3   2.6   0.0   0.0   0.1   0.5   0.6   0.5   0.5  0.77  0.77  0.38  0.00  0.00   50.82   64.13    0.45    0.00    0.82
 1991 301    89    21     1    10.3   27.9   16595   18.6    9.3   0.4   0.4   0.3   0.3   0.3   0.5   3.3   2.6   0.0   0.0   0.1   0.5   0.6   0.5   0.5  0.73  0.78  0.38  0.00  0.00   51.42   64.57    0.45    0.00    0.83
 1991 302    90    21     1    10.3   27.4   16595   18.2    9.2   0.4   0.4   0.3   0.3   0.3   0.5   3.3   2.6   0.0   0.0   0.1   0.5   0.6   0.5   0.5  0.70  0.78  0.38  0.00  0.00   52.03   65.02    0.45    0.00    0.83
 1991 303    91    21     1    10.3   27.0   16594   17.9    9.1   0.2   0.4   0.3   0.3   0.3   0.4   3.3   2.6   0.0   0.0   0.1   0.5   0.6   0.5   0.5  0.68  0.78  0.38  0.00  0.00   52.64   65.47    0.45    0.00    0.83
 1991 304    92    21     1    10.3   26.7   16594   17.5    9.2   0.3   0.3   0.3   0.3   0.3   0.3   3.3   2.6   0.0   0.0   0.2   0.6   0.6   0.5   0.5  0.66  0.78  0.38  0.00  0.00   53.24   65.75    0.45    0.00    0.83
 1991 305    93    21     1    10.3   26.5   16593   17.3    9.2   0.3   0.3   0.3   0.3   0.3   0.3   3.3   2.6   0.0   0.0   0.3   0.6   0.6   0.5   0.5  0.64  0.79  0.38  0.00  0.00   53.81   66.04    0.46    0.00    0.83
 1991 306    94    21     1    10.3   26.5   16593   17.4    9.1   0.3   0.4   0.3   0.3   0.3   0.3   3.3   2.6   0.0   0.0   0.3   0.5   0.6   0.5   0.5  0.63  0.79  0.38  0.00  0.00   54.38   66.46    0.46    0.00    0.83
 1991 307    95    21     1    10.3   26.5   16592   17.6    8.9   0.5   0.4   0.3   0.3   0.3   0.3   3.3   2.6   0.0   0.0   0.2   0.5   0.6   0.5   0.5  0.62  0.79  0.37  0.00  0.00   54.96   66.99    0.46    0.00    0.84
 1991 308    96    21     1    10.3   26.4   16592   17.5    8.8   0.4   0.4   0.3   0.3   0.3   0.3   3.3   2.6   0.0   0.0   0.1   0.5   0.6   0.5   0.5  0.61  0.80  0.37  0.00  0.00   55.56   67.45    0.46    0.00    0.84
 1991 309    97    21     1    10.3   26.4   16591   17.6    8.8   0.4   0.4   0.3   0.3   0.3   0.3   3.3   2.6   0.0   0.0   0.1   0.5   0.6   0.5   0.5  0.60  0.78  0.37  0.00  0.00   56.20   67.97    0.46    0.00    0.84
 1991 310    98    21     1    10.3   25.4   16590   16.8    8.6   0.3   0.4   0.3   0.3   0.3   0.3   3.0   2.7   0.0   0.0   0.1   0.5   0.6   0.5   0.5  0.60  0.74  0.37  0.00  0.00   56.86   68.50    0.46    0.00    0.84
 1991 311    99    21     1    10.3   24.4   16590   15.9    8.6   0.3   0.4   0.3   0.3   0.3   0.3   2.6   2.7   0.0   0.0   0.2   0.5   0.6   0.5   0.5  0.60  0.70  0.37  0.00  0.00   57.53   68.98    0.46    0.00    0.85
 1991 312   100    21     1    10.3   23.7   16589   15.3    8.4   0.5   0.4   0.3   0.3   0.3   0.3   2.3   2.7   0.0   0.0   0.1   0.5   0.6   0.5   0.5  0.59  0.66  0.37  0.00  0.00   58.20   69.59    0.47    0.00    0.85
 1991 313   101    21     1    10.3   22.8   16588   14.5    8.3   0.4   0.4   0.3   0.3   0.3   0.3   2.0   2.7   0.0   0.0   0.1   0.5   0.6   0.5   0.5  0.59  0.63  0.37  0.00  0.00   58.86   70.11    0.47    0.00    0.85
 1991 314   102    21     1    10.3   22.1   16588   13.9    8.2   0.4   0.4   0.3   0.3   0.3   0.3   1.8   2.7   0.0   0.0   0.1   0.5   0.6   0.5   0.5  0.58  0.61  0.37  0.00  0.00   59.50   70.64    0.47    0.00    0.85
 1991 315   103    21     1    10.3   21.6   16587   13.4    8.1   0.4   0.4   0.3   0.3   0.3   0.3   1.6   2.7   0.0   0.0   0.1   0.5   0.6   0.5   0.5  0.58  0.59  0.37  0.00  0.00   60.12   71.15    0.47    0.00    0.85
 1991 316   104    21     1    10.3   21.0   16587   13.0    8.1   0.4   0.4   0.3   0.3   0.3   0.3   1.4   2.7   0.0   0.0   0.1   0.5   0.6   0.5   0.5  0.58  0.57  0.37  0.00  0.00   60.71   71.64    0.47    0.00    0.86
 1991 317   105    21     1    10.3   20.5   16586   12.6    8.0   0.4   0.4   0.3   0.3   0.3   0.3   1.2   2.7   0.0   0.0   0.1   0.5   0.6   0.5   0.5  0.58  0.55  0.37  0.00  0.00   61.27   72.11    0.47    0.00    0.86
 1991 318   106    21     1    10.3   20.1   16586   12.2    7.9   0.4   0.4   0.3   0.3   0.3   0.3   1.1   2.7   0.0   0.0   0.1   0.5   0.6   0.5   0.5  0.57  0.54  0.37  0.00  0.00   61.81   72.57    0.47    0.00    0.86
 1991 319   107    21     1    10.3   19.7   16585   11.9    7.9   0.4   0.4   0.3   0.3   0.3   0.3   1.0   2.7   0.0   0.0   0.1   0.5   0.6   0.5   0.5  0.57  0.53  0.37  0.00  0.00   62.32   73.01    0.47    0.00    0.86
 1991 320   108    21     1    10.3   19.4   16585   11.6    7.8   0.4   0.3   0.3   0.3   0.3   0.3   0.9   2.7   0.0   0.0   0.1   0.5   0.6   0.5   0.5  0.57  0.52  0.37  0.00  0.00   62.81   73.43    0.47    0.00    0.86
 1991 321   109    21     1    10.3   19.1   16584   11.4    7.7   0.4   0.3   0.3   0.3   0.3   0.3   0.8   2.7   0.0   0.0   0.1   0.5   0.5   0.5   0.5  0.57  0.51  0.36  0.00  0.00   63.29   73.88    0.47    0.00    0.87
 1991 322   110    21     1    10.3   18.9   16584   11.2    7.6   0.2   0.4   0.4   0.3   0.3   0.3   0.7   2.7   0.0   0.0   0.1   0.5   0.5   0.5   0.5  0.57  0.50  0.36  0.00  0.00   63.77   74.33    0.47    0.00    0.87
 1991 323   111    21     1    10.3   18.7   16583   10.9    7.8   0.2   0.3   0.3   0.3   0.3   0.3   0.6   2.7   0.0   0.0   0.2   0.6   0.6   0.5   0.5  0.56  0.50  0.35  0.00  0.00   64.37   74.66    0.47    0.00    0.87
 1991 324   112    21     1    10.3   18.7   16583   11.1    7.7   0.4   0.4   0.3   0.3   0.3   0.3   0.5   2.7   0.0   0.0   0.1   0.5   0.6   0.5   0.5  0.56  0.49  0.34  0.00  0.00   64.98   75.23    0.47    0.00    0.87
 1991 325   113    21     1    10.3   18.5   16582   10.9    7.6   0.4   0.4   0.3   0.3   0.3   0.3   0.5   2.8   0.0   0.0   0.1   0.5   0.6   0.5   0.5  0.56  0.48  0.33  0.00  0.00   65.59   75.76    0.47    0.00    0.87
 1991 326   114    21     1    10.3   18.4   16582   10.9    7.5   0.4   0.4   0.3   0.3   0.3   0.3   0.4   2.8   0.0   0.0   0.1   0.5   0.6   0.5   0.5  0.56  0.48  0.33  0.00  0.00   66.22   76.31    0.47    0.00    0.88
 1991 327   115    21     1    10.3   18.3   16581   10.8    7.5   0.4   0.4   0.3   0.3   0.3   0.3   0.4   2.8   0.0   0.0   0.1   0.5   0.6   0.5   0.5  0.56  0.47  0.32  0.00  0.00   66.86   76.91    0.47    0.00    0.88
 1991 328   116    21     1    10.3   18.1   16581   10.8    7.3   0.4   0.4   0.3   0.3   0.3   0.3   0.4   2.8   0.0   0.0   0.1   0.5   0.6   0.5   0.4  0.56  0.46  0.31  0.00  0.00   67.51   77.54    0.47    0.00    0.88
 1991 329   117    21     1    10.3   17.8   16580   10.6    7.3   0.1   0.2   0.3   0.3   0.4   0.3   0.3   2.7   0.0   0.0   0.1   0.4   0.6   0.5   0.4  0.56  0.46  0.31  0.00  0.00   68.13   78.13    0.47    0.00    0.88
 1991 330   118    21     1    10.3   17.8   16579   10.0    7.8   0.0   0.2   0.2   0.3   0.3   0.3   0.3   2.7   0.0   0.0   0.2   0.6   0.7   0.5   0.5  0.56  0.45  0.30  0.00  0.00   68.86   78.28    0.47    0.00    0.89
 1991 331   119    21     1    10.3   17.9   16579    9.7    8.2   0.1   0.2   0.2   0.3   0.3   0.3   0.3   2.6   0.0   0.0   0.3   0.7   0.7   0.5   0.5  0.57  0.45  0.30  0.00  0.00   69.58   78.43    0.47    0.00    0.89
 1991 332   120    21     1    10.8   17.3   16578    8.8    8.5   0.2   0.2   0.2   0.3   0.2   0.2   0.3   2.3   0.0   0.0   0.4   0.7   0.8   0.6   0.5  0.58  0.44  0.29  0.00  0.00   70.25   78.60    0.47    0.00    0.89
 1991 333   121    21     1    10.8   17.1   16577    8.8    8.3   0.5   0.3   0.3   0.3   0.3   0.2   0.3   2.2   0.0   0.0   0.1   0.7   0.7   0.6   0.6  0.58  0.44  0.29  0.00  0.00   70.90   78.97    0.47    0.00    0.89
 1991 334   122    21     1    11.0   16.7   16577    8.2    8.5   0.4   0.3   0.3   0.3   0.3   0.2   0.3   2.0   0.0   0.0   0.2   0.7   0.8   0.6   0.6  0.58  0.43  0.28  0.00  0.00   71.57   79.12    0.48    0.00    0.90
 1991 335   123    21     1    11.0   16.5   16576    8.2    8.4   0.5   0.3   0.3   0.3   0.3   0.3   0.3   1.9   0.0   0.0   0.1   0.7   0.7   0.6   0.6  0.58  0.43  0.28  0.00  0.00   72.30   79.54    0.48    0.00    0.90
 1991 336   124    21     1    11.0   16.1   16575    7.9    8.2   0.4   0.3   0.3   0.3   0.3   0.3   0.3   1.8   0.0   0.0   0.1   0.7   0.7   0.6   0.5  0.58  0.42  0.27  0.00  0.00   73.08   79.94    0.48    0.00    0.90
 1991 337   125    21     1    11.0   15.8   16575    8.0    7.8   0.4   0.5   0.3   0.3   0.3   0.3   0.3   1.6   0.0   0.0   0.1   0.5   0.6   0.6   0.5  0.58  0.42  0.27  0.00  0.00   73.90   80.71    0.48    0.00    0.90
 1991 338   126    33     2    11.0   27.3   16574   13.7   13.6  11.3   0.4   0.3   0.3   0.3   0.3   0.3   1.5   0.0   0.0  10.9   0.5   0.6   0.6   0.5  0.58  0.42  0.26  0.00  0.00   74.71   81.36    0.48    0.00    0.93
 1991 339   127    33     2    11.0   19.0   16573   11.5    7.6   3.8   2.0   0.5   0.3   0.3   0.3   0.3   1.5   0.0   0.0   0.0   0.5   0.6   0.5   0.5  0.58  0.41  0.26  0.00  0.00   75.55   84.14    0.48    0.00    0.96
 1991 340   128    33     2    11.0   17.6   16573    9.7    7.9   2.8   1.4   0.4   0.3   0.3   0.3   0.3   1.4   0.0   0.0   0.2   0.6   0.7   0.5   0.5  0.58  0.41  0.25  0.00  0.00   76.38   84.43    0.48    0.00    0.96
 1991 341   129    33     2    11.0   15.8   16572    7.8    7.9   1.3   0.7   0.3   0.3   0.3   0.3   0.3   1.3   0.0   0.0   0.0   0.7   0.7   0.5   0.5  0.58  0.41  0.25  0.00  0.00   77.24   84.92    0.48    0.00    0.99
 1991 342   130    33     2    11.0   14.7   16571    7.1    7.7   0.5   0.5   0.3   0.3   0.3   0.3   0.3   1.2   0.0   0.0   0.2   0.5   0.6   0.5   0.5  0.58  0.41  0.24  0.00  0.00   78.09   85.62    0.48    0.00    1.00
 1991 343   131    33     2    11.0   14.3   16570    6.8    7.5   0.4   0.4   0.4   0.3   0.3   0.3   0.3   1.1   0.0   0.0   0.0   0.5   0.6   0.5   0.5  0.58  0.40  0.24  0.00  0.00   78.96   86.36    0.48    0.00    1.03
 1991 344   132    33     2    11.0   14.2   16570    6.2    7.9   0.2   0.3   0.3   0.3   0.3   0.3   0.3   1.1   0.0   0.0   0.2   0.6   0.7   0.6   0.5  0.58  0.40  0.23  0.00  0.00   79.76   86.58    0.48    0.00    1.03
 1991 345   133    33     2    11.0   14.2   16569    5.9    8.3   0.2   0.3   0.3   0.3   0.3   0.3   0.3   1.0   0.0   0.0   0.2   0.7   0.8   0.6   0.6  0.58  0.40  0.23  0.00  0.00   80.58   86.77    0.48    0.00    1.06
 1991 346   134    33     2    11.0   14.2   16568    6.0    8.2   0.5   0.3   0.3   0.3   0.3   0.3   0.3   1.0   0.0   0.0   0.0   0.7   0.8   0.6   0.6  0.58  0.40  0.23  0.00  0.00   81.38   87.16    0.48    0.00    1.09
 1991 347   135    33     2    11.0   14.0   16567    5.9    8.0   0.2   0.5   0.3   0.3   0.3   0.3   0.3   0.9   0.0   0.0   0.1   0.5   0.7   0.6   0.6  0.58  0.39  0.22  0.00  0.00   82.17   87.57    0.48    0.00    1.09
 1991 348   136    33     2    11.0   13.9   16567    5.6    8.3   0.1   0.3   0.3   0.3   0.3   0.3   0.3   0.9   0.0   0.0   0.3   0.6   0.8   0.6   0.6  0.59  0.39  0.22  0.00  0.00   82.94   87.77    0.49    0.00    1.09
 1991 349   137    33     2    11.0   14.0   16566    5.4    8.6   0.2   0.3   0.3   0.3   0.3   0.3   0.3   0.8   0.0   0.0   0.4   0.7   0.8   0.6   0.6  0.59  0.39  0.22  0.00  0.00   83.69   87.92    0.49    0.00    1.10
 1991 350   138    33     2    11.0   14.1   16565    5.3    8.8   0.2   0.3   0.3   0.3   0.3   0.3   0.3   0.8   0.0   0.0   0.4   0.8   0.8   0.7   0.6  0.59  0.39  0.21  0.00  0.00   84.43   88.10    0.50    0.00    1.10
 1991 351   139    33     2    11.0   14.2   16565    5.2    8.9   0.3   0.3   0.3   0.3   0.3   0.3   0.3   0.7   0.0   0.0   0.5   0.8   0.8   0.7   0.6  0.60  0.39  0.21  0.00  0.00   85.15   88.28    0.51    0.00    1.10
 1991 352   140    33     2    11.0   14.2   16564    5.2    9.0   0.4   0.3   0.3   0.3   0.2   0.2   0.3   0.7   0.0   0.0   0.5   0.8   0.9   0.7   0.7  0.60  0.39  0.21  0.00  0.00   85.91   88.49    0.52    0.00    1.10
 1991 353   141    33     2    11.0   14.1   16563    5.5    8.6   0.7   0.3   0.3   0.3   0.3   0.3   0.3   0.7   0.0   0.0   0.0   0.8   0.8   0.7   0.7  0.60  0.39  0.20  0.00  0.00   86.71   89.06    0.53    0.00    1.11
 1991 354   142    33     2    11.0   14.0   16563    5.1    8.9   0.4   0.3   0.3   0.3   0.3   0.2   0.3   0.6   0.0   0.0   0.2   0.8   0.9   0.7   0.7  0.61  0.40  0.20  0.00  0.00   87.53   89.19    0.54    0.00    1.11
 1991 355   143    33     2    11.2   13.9   16562    4.9    9.0   0.5   0.3   0.3   0.3   0.3   0.2   0.2   0.5   0.0   0.0   0.1   0.8   0.9   0.7   0.7  0.62  0.41  0.21  0.00  0.00   88.41   89.47    0.55    0.00    1.11
 1991 356   144    33     2    11.2   13.7   16561    4.8    8.9   0.4   0.3   0.3   0.3   0.3   0.2   0.3   0.5   0.0   0.0   0.1   0.8   0.8   0.7   0.7  0.62  0.41  0.21  0.00  0.00   89.34   89.77    0.56    0.00    1.11
 1991 357   145    33     2    11.3   13.5   16560    5.1    8.5   0.2   0.5   0.3   0.3   0.3   0.3   0.3   0.5   0.0   0.0   0.1   0.5   0.8   0.7   0.7  0.62  0.41  0.20  0.00  0.00   90.28   90.40    0.56    0.00    1.11
 1991 358   146    33     2    11.5   13.4   16560    4.5    8.9   0.3   0.4   0.3   0.3   0.3   0.2   0.2   0.4   0.0   0.0   0.2   0.6   0.8   0.7   0.7  0.63  0.42  0.21  0.00  0.00   91.19   90.53    0.57    0.00    1.12
 1991 359   147    33     2    11.5   13.5   16559    4.6    8.8   0.7   0.3   0.3   0.3   0.3   0.2   0.2   0.4   0.0   0.0   0.0   0.7   0.8   0.7   0.7  0.63  0.43  0.21  0.00  0.00   92.11   90.95    0.58    0.00    1.12
 1991 360   148    33     2    11.6   13.2   16558    4.6    8.6   0.2   0.5   0.3   0.3   0.3   0.2   0.3   0.4   0.0   0.0   0.2   0.5   0.8   0.7   0.7  0.63  0.44  0.21  0.00  0.00   93.02   91.36    0.58    0.00    1.12
 1991 361   149    33     2    11.6   13.1   16557    4.5    8.6   0.2   0.3   0.4   0.3   0.3   0.3   0.3   0.3   0.0   0.0   0.3   0.6   0.7   0.7   0.7  0.63  0.44  0.21  0.00  0.00   93.88   91.72    0.58    0.00    1.12
 1991 362   150    33     2    11.6   13.1   16557    5.0    8.1   0.7   0.4   0.3   0.3   0.3   0.3   0.3   0.3   0.0   0.0   0.0   0.5   0.6   0.6   0.6  0.62  0.44  0.22  0.00  0.00   94.74   92.58    0.58    0.00    1.13
 1991 363   151    33     2    11.6   12.7   16556    4.7    8.0   0.3   0.4   0.3   0.3   0.3   0.3   0.3   0.3   0.0   0.0   0.1   0.5   0.6   0.6   0.6  0.62  0.44  0.21  0.00  0.00   95.57   93.17    0.58    0.00    1.13
 1991 364   152    33     2    11.6   12.6   16555    4.7    7.9   0.4   0.4   0.3   0.3   0.3   0.3   0.3   0.3   0.0   0.0   0.1   0.5   0.6   0.6   0.6  0.62  0.44  0.21  0.00  0.00   96.40   93.81    0.58    0.00    1.13
 1991 365   153    33     2    11.6   12.5   16555    4.7    7.8   0.4   0.4   0.3   0.3   0.3   0.3   0.3   0.3   0.0   0.0   0.1   0.5   0.6   0.6   0.6  0.61  0.44  0.21  0.00  0.00   97.25   94.45    0.58    0.00    1.14
 1992 001   154    33     2    11.6   12.5   16554    4.7    7.8   0.4   0.4   0.3   0.3   0.3   0.3   0.3   0.3   0.0   0.0   0.1   0.5   0.6   0.6   0.6  0.61  0.44  0.21  0.00  0.00   98.15   95.15    0.58    0.00    1.14
 1992 002   155    33     2    11.6   12.4   16553    4.7    7.7   0.3   0.4   0.4   0.3   0.3   0.3   0.3   0.3   0.0   0.0   0.1   0.5   0.6   0.6   0.6  0.61  0.44  0.20  0.00  0.00   99.06   95.84    0.58    0.00    1.14
 1992 003   156    33     2    11.6   12.5   16552    4.4    8.1   0.3   0.3   0.3   0.3   0.3   0.3   0.3   0.3   0.0   0.0   0.3   0.6   0.7   0.5   0.5  0.61  0.44  0.20  0.00  0.00   99.98   96.17    0.58    0.00    1.14
 1992 004   157    33     2    11.6   12.6   16552    4.5    8.1   0.7   0.3   0.3   0.3   0.3   0.3   0.3   0.3   0.0   0.0   0.0   0.7   0.7   0.5   0.5  0.61  0.44  0.20  0.00  0.00  100.88   96.72    0.58    0.00    1.15
 1992 005   158    33     2    11.6   12.4   16551    4.7    7.8   0.3   0.5   0.3   0.3   0.3   0.3   0.3   0.3   0.0   0.0   0.1   0.5   0.6   0.5   0.5  0.61  0.44  0.20  0.00  0.00  101.76   97.41    0.58    0.00    1.15
 1992 006   159    33     2    11.6   12.3   16550    4.7    7.7   0.5   0.4   0.3   0.3   0.3   0.3   0.3   0.3   0.0   0.0   0.1   0.5   0.6   0.5   0.5  0.61  0.44  0.20  0.00  0.00  102.61   98.08    0.58    0.00    1.15
 1992 007   160    33     2    11.6   12.3   16550    4.6    7.6   0.4   0.4   0.3   0.3   0.3   0.3   0.3   0.3   0.0   0.0   0.1   0.5   0.6   0.5   0.5  0.60  0.44  0.20  0.00  0.00  103.46   98.70    0.58    0.00    1.16
 1992 008   161    33     2    11.6   12.3   16549    4.6    7.6   0.4   0.4   0.3   0.3   0.3   0.3   0.3   0.3   0.0   0.0   0.1   0.5   0.6   0.5   0.5  0.60  0.44  0.20  0.00  0.00  104.30   99.34    0.58    0.00    1.16
 1992 009   162    33     2    11.6   12.3   16548    4.7    7.6   0.4   0.4   0.3   0.3   0.3   0.3   0.3   0.3   0.0   0.0   0.1   0.5   0.6   0.5   0.5  0.60  0.44  0.19  0.00  0.00  105.17  100.01    0.58    0.00    1.16
 1992 010   163    33     2    11.6   13.1   16547    5.3    7.8   0.6   0.6   0.4   0.3   0.3   0.3   0.3   0.3   0.0   0.0   0.1   0.5   0.7   0.6   0.5  0.62  0.44  0.19  0.00  0.00  106.04  100.69    0.58    0.00    1.17
 1992 011   164    33     2    11.6   14.0   16547    6.0    7.9   0.7   0.8   0.5   0.4   0.4   0.3   0.3   0.3   0.0   0.0   0.1   0.5   0.7   0.6   0.5  0.63  0.44  0.19  0.00  0.00  106.90  101.39    0.58    0.00    1.17

*DSSAT Cropping System Model Ver. 4.0.2.000               Aug 03, 2016; 15:30:22

*RUN   3        : UYMZ                    
 MODEL          : MZCER040 - Maize           
 EXPERIMENT     : UYMZ0129 MZ    late to create DSS                             
 TREATMENT  1   : UYMZ                    

@YEAR DOY   DAS  NAPC  NI#M    NLCC   NIAD    NOAD   NITD   NHTD  NI1D  NI2D  NI3D  NI4D  NI5D  NI6D  NI7D  NI8D  NI9D  NI10  NH1D  NH2D  NH3D  NH4D  NH5D  NH6D  NH7D  NH8D  NH9D  NH10    NMNC    NITC    NDNC    NIMC    AMLC
 1992 212     0     0     0     0.0   99.3   16646   76.4   22.9  15.9  15.2  15.1   8.6   4.6   0.0   0.1   0.1   0.0   0.0   0.7   1.3   1.5   1.4   1.4  1.50  1.47  1.45  0.00  0.00    0.50    1.57    0.00    0.00    0.00
 1992 213     1     0     0     0.0   99.7   16645   77.6   22.2  16.1  15.5  15.2   8.7   4.6   0.0   0.1   0.1   0.0   0.0   0.3   1.2   1.4   1.4   1.4  1.51  1.43  1.41  0.00  0.00    0.98    2.78    0.00    0.00    0.00
 1992 214     2     0     0     0.0  100.2   16645   78.6   21.6  16.2  15.7  15.4   8.7   4.7   0.1   0.1   0.2   0.0   0.0   0.2   1.1   1.4   1.3   1.4  1.51  1.40  1.37  0.00  0.00    1.43    3.78    0.00    0.00    0.00
 1992 215     3     0     0     0.0  100.6   16644   79.5   21.1   6.4  15.6  18.9   8.8   4.7   0.1   0.2   0.2   0.0   0.0   0.2   1.0   1.4   1.3   1.3  1.51  1.37  1.33  0.00  0.00    1.84    4.66    0.00    0.00    0.00
 1992 216     4     0     0     0.0  101.0   16644   80.2   20.8   6.5  15.1  19.3   8.9   4.8   0.1   0.2   0.2   0.0   0.0   0.1   1.1   1.4   1.3   1.3  1.51  1.34  1.29  0.00  0.00    2.22    5.35    0.00    0.00    0.00
 1992 217     5     0     0     0.0  101.3   16643   80.9   20.4   6.5  15.1  19.4   9.1   4.8   0.1   0.3   0.3   0.0   0.0   0.1   1.0   1.4   1.2   1.3  1.52  1.31  1.25  0.00  0.00    2.58    6.11    0.00    0.00    0.00
 1992 218     6     0     0     0.0  101.7   16643   81.6   20.0   6.6  15.2  19.4   9.2   4.9   0.1   0.3   0.3   0.0   0.0   0.1   0.9   1.3   1.2   1.2  1.52  1.28  1.22  0.00  0.00    2.93    6.83    0.00    0.00    0.00
 1992 219     7     0     0     0.0  102.1   16643   82.4   19.7   6.6  15.2  19.5   9.3   4.9   0.1   0.3   0.4   0.0   0.0   0.1   0.9   1.3   1.2   1.2  1.52  1.26  1.18  0.00  0.00    3.31    7.56    0.00    0.00    0.00
 1992 220     8     0     0     0.0  102.5   16642   83.2   19.4   6.7  15.3  19.5   9.5   5.0   0.2   0.4   0.4   0.0   0.0   0.1   0.8   1.3   1.1   1.2  1.52  1.23  1.15  0.00  0.00    3.75    8.35    0.00    0.00    0.00
 1992 221     9     0     0     0.0  103.0   16642   84.0   19.0   6.8  15.4  19.5   9.6   5.0   0.2   0.4   0.4   0.0   0.0   0.1   0.8   1.3   1.1   1.1  1.53  1.20  1.11  0.00  0.00    4.24    9.17    0.00    0.00    0.00
 1992 222    10     0     0     0.0  103.5   16641   84.8   18.7   6.9  15.5  19.6   9.7   5.1   0.2   0.4   0.5   0.0   0.0   0.1   0.7   1.3   1.1   1.1  1.53  1.18  1.08  0.00  0.00    4.72    9.96    0.00    0.00    0.00
 1992 223    11     0     0     0.0  104.0   16641   85.5   18.4   7.1  15.6  19.6   9.8   5.1   0.2   0.5   0.5   0.0   0.0   0.1   0.7   1.3   1.0   1.1  1.53  1.15  1.05  0.00  0.00    5.20   10.73    0.00    0.00    0.00
 1992 224    12     0     0     0.0  104.4   16640   86.3   18.1   7.2  15.7  19.7   9.9   5.2   0.2   0.5   0.5   0.0   0.0   0.1   0.7   1.3   1.0   1.0  1.53  1.13  1.02  0.00  0.00    5.68   11.48    0.00    0.00    0.00
 1992 225    13     0     0     0.0  104.9   16640   87.0   17.9   7.3  15.7  19.7  10.0   5.2   0.2   0.6   0.6   0.0   0.0   0.1   0.6   1.2   1.0   1.0  1.54  1.11  0.99  0.00  0.00    6.11   12.17    0.00    0.00    0.00
 1992 226    14     0     0     0.0  105.3   16640   87.6   17.7   7.5  15.8  19.7  10.1   5.2   0.3   0.6   0.6   0.0   0.0   0.1   0.6   1.2   1.0   1.0  1.54  1.09  0.96  0.00  0.00    6.53   12.83    0.00    0.00    0.00
[...]
 1992 297    85    21     1     0.0   76.9   16600   64.3   12.6   1.2   4.1   8.4  10.3   5.7   1.5   2.0   1.7   0.0   0.0   0.1   0.7   1.0   0.6   0.5  1.62  0.44  0.21  0.00  0.00   45.84   65.48    0.00    0.00    0.55
 1992 298    86    21     1     0.0   72.3   16600   60.0   12.3   1.2   3.6   7.1   9.7   5.4   1.5   2.0   1.7   0.0   0.0   0.1   0.6   0.9   0.6   0.5  1.60  0.44  0.20  0.00  0.00   46.47   66.11    0.00    0.00    0.55
 1992 299    87    21     1     0.0   66.8   16599   54.8   12.0   1.1   3.0   5.7   9.0   5.1   1.4   2.0   1.7   0.0   0.0   0.1   0.6   0.8   0.6   0.5  1.56  0.43  0.20  0.00  0.00   47.16   66.79    0.00    0.00    0.56
 1992 300    88    21     1     0.0   65.2   16599   53.3   11.9   1.2   2.8   5.3   8.7   4.9   1.4   2.0   1.7   0.0   0.0   0.1   0.5   0.8   0.6   0.5  1.55  0.43  0.20  0.00  0.00   47.89   67.48    0.00    0.00    0.56
 1992 301    89    21     1     0.0   57.6   16598   46.2   11.4   1.0   2.0   3.6   7.7   4.4   1.4   2.0   1.7   0.0   0.0   0.1   0.5   0.8   0.5   0.5  1.49  0.43  0.20  0.00  0.00   48.63   68.19    0.00    0.00    0.56
 1992 302    90    21     1     0.0   50.9   16597   40.0   11.0   0.8   1.4   2.3   6.6   3.9   1.3   2.1   1.7   0.0   0.0   0.1   0.5   0.7   0.5   0.5  1.41  0.43  0.19  0.00  0.00   49.38   68.91    0.00    0.00    0.56
 1992 303    91    21     1     0.0   49.9   16596   39.0   10.9   0.8   1.4   2.1   6.4   3.8   1.3   2.1   1.7   0.0   0.0   0.1   0.5   0.7   0.5   0.5  1.39  0.42  0.19  0.00  0.00   50.07   69.52    0.00    0.00    0.57
 1992 304    92    21     1     0.0   45.3   16596   34.8   10.5   0.7   1.0   1.5   5.6   3.4   1.2   2.1   1.7   0.0   0.0   0.1   0.5   0.7   0.5   0.5  1.32  0.42  0.19  0.00  0.00   50.69   70.10    0.00    0.00    0.57
 1992 305    93    21     1     0.0   41.4   16595   31.3   10.1   0.6   0.8   1.0   4.8   3.0   1.1   2.1   1.7   0.0   0.0   0.1   0.4   0.6   0.5   0.5  1.25  0.42  0.19  0.00  0.00   51.27   70.64    0.00    0.00    0.57
 1992 306    94    21     1     0.0   36.9   16595   27.3    9.6   0.4   0.5   0.6   4.0   2.5   1.0   2.1   1.7   0.0   0.0   0.1   0.4   0.6   0.5   0.5  1.17  0.42  0.19  0.00  0.00   51.81   71.15    0.00    0.00    0.57
 1992 307    95    21     1     0.0   32.2   16594   23.1    9.1   0.1   0.3   0.4   3.0   2.0   0.8   2.1   1.7   0.0   0.0   0.1   0.4   0.6   0.5   0.5  1.05  0.42  0.18  0.00  0.00   52.31   71.62    0.00    0.00    0.58
 1992 308    96    21     1     0.0   29.2   16594   20.3    8.9   0.1   0.2   0.4   2.3   1.6   0.7   2.1   1.8   0.0   0.0   0.2   0.5   0.6   0.5   0.5  0.96  0.41  0.18  0.00  0.00   52.97   71.98    0.00    0.00    0.58
 1992 309    97    21     1     0.0   27.0   16593   18.1    8.9   0.2   0.2   0.3   1.8   1.2   0.6   2.1   1.8   0.0   0.0   0.3   0.6   0.7   0.5   0.5  0.89  0.41  0.18  0.00  0.00   53.65   72.28    0.00    0.00    0.58
 1992 310    98    21     1     0.0   25.3   16592   16.9    8.4   0.5   0.4   0.3   1.3   1.0   0.5   2.2   1.8   0.0   0.0   0.1   0.5   0.7   0.5   0.5  0.83  0.41  0.18  0.00  0.00   54.30   72.86    0.00    0.00    0.58
 1992 311    99    21     1     0.0   23.8   16592   15.7    8.1   0.4   0.4   0.3   1.0   0.8   0.4   2.2   1.8   0.0   0.0   0.1   0.5   0.6   0.5   0.5  0.78  0.41  0.18  0.00  0.00   54.92   73.35    0.00    0.00    0.59
 1992 312   100    21     1     0.0   22.6   16591   14.7    7.9   0.4   0.4   0.3   0.8   0.6   0.3   2.2   1.8   0.0   0.0   0.1   0.5   0.6   0.5   0.5  0.74  0.41  0.18  0.00  0.00   55.49   73.80    0.00    0.00    0.59
 1992 313   101    21     1     0.0   21.7   16591   13.9    7.7   0.3   0.3   0.3   0.6   0.5   0.3   2.2   1.8   0.0   0.0   0.1   0.5   0.6   0.5   0.5  0.71  0.41  0.17  0.00  0.00   56.01   74.21    0.00    0.00    0.59
 1992 314   102    21     1     0.0   21.1   16590   13.5    7.6   0.4   0.3   0.3   0.5   0.4   0.3   2.2   1.8   0.0   0.0   0.1   0.5   0.6   0.5   0.5  0.68  0.40  0.17  0.00  0.00   56.55   74.63    0.00    0.00    0.60
 1992 315   103    21     1     0.0   20.7   16590   13.3    7.5   0.4   0.4   0.3   0.4   0.4   0.3   2.2   1.8   0.0   0.0   0.1   0.5   0.6   0.5   0.5  0.66  0.40  0.17  0.00  0.00   57.14   75.11    0.00    0.00    0.60
 1992 316   104    21     1     0.0   20.5   16589   13.1    7.4   0.4   0.4   0.3   0.3   0.3   0.3   2.2   1.8   0.0   0.0   0.1   0.5   0.6   0.5   0.5  0.64  0.40  0.17  0.00  0.00   57.74   75.61    0.00    0.00    0.60
 1992 317   105    21     1     0.0   20.3   16589   13.0    7.3   0.4   0.4   0.3   0.3   0.3   0.3   2.2   1.8   0.0   0.0   0.1   0.5   0.6   0.5   0.5  0.63  0.40  0.17  0.00  0.00   58.37   76.15    0.00    0.00    0.60
 1992 318   106    21     1     0.0   20.3   16588   13.1    7.2   0.4   0.4   0.3   0.3   0.3   0.3   2.3   1.8   0.0   0.0   0.1   0.4   0.6   0.5   0.5  0.62  0.40  0.17  0.00  0.00   59.00   76.72    0.00    0.00    0.61
 1992 319   107    21     1     0.0   20.2   16587   13.1    7.1   0.2   0.4   0.4   0.3   0.3   0.3   2.3   1.8   0.0   0.0   0.1   0.4   0.6   0.5   0.5  0.61  0.40  0.17  0.00  0.00   59.62   77.30    0.00    0.00    0.61
 1992 320   108    21     1     0.0   19.7   16587   12.4    7.3   0.1   0.2   0.3   0.4   0.3   0.3   2.1   1.8   0.0   0.0   0.2   0.6   0.6   0.5   0.4  0.60  0.40  0.17  0.00  0.00   60.35   77.66    0.00    0.00    0.61
 1992 321   109    21     1     0.0   19.3   16586   11.7    7.6   0.2   0.2   0.3   0.3   0.3   0.3   1.8   1.8   0.0   0.0   0.3   0.7   0.7   0.5   0.4  0.60  0.39  0.16  0.00  0.00   61.13   77.92    0.00    0.00    0.61
 1992 322   110    21     1     0.0   19.0   16585   11.7    7.3   0.7   0.4   0.3   0.3   0.3   0.3   1.6   1.8   0.0   0.0   0.0   0.5   0.7   0.5   0.4  0.59  0.39  0.16  0.00  0.00   61.89   78.65    0.00    0.00    0.62
 1992 323   111    21     1     0.0   18.3   16585   11.1    7.2   0.3   0.4   0.3   0.3   0.3   0.3   1.4   1.8   0.0   0.0   0.1   0.5   0.6   0.5   0.4  0.58  0.39  0.16  0.00  0.00   62.61   79.16    0.00    0.00    0.62
 1992 324   112    21     1     0.0   17.9   16584   10.7    7.1   0.4   0.4   0.3   0.3   0.3   0.3   1.3   1.8   0.0   0.0   0.1   0.5   0.6   0.5   0.4  0.58  0.39  0.16  0.00  0.00   63.30   79.71    0.00    0.00    0.62
 1992 325   113    21     1     0.0   17.4   16583   10.3    7.1   0.4   0.4   0.3   0.3   0.3   0.3   1.1   1.8   0.0   0.0   0.1   0.5   0.6   0.5   0.4  0.58  0.39  0.16  0.00  0.00   63.98   80.24    0.00    0.00    0.63
 1992 326   114    21     1     0.0   17.1   16583   10.1    7.1   0.4   0.4   0.3   0.3   0.3   0.3   1.0   1.9   0.0   0.0   0.1   0.5   0.6   0.5   0.4  0.57  0.39  0.16  0.00  0.00   64.66   80.77    0.00    0.00    0.63
 1992 327   115    21     1     0.0   16.8   16582    9.8    7.1   0.4   0.4   0.3   0.3   0.3   0.3   0.9   1.9   0.0   0.0   0.1   0.5   0.6   0.5   0.4  0.57  0.39  0.16  0.00  0.00   65.35   81.31    0.00    0.00    0.63
 1992 328   116    21     1     0.0   16.6   16582    9.5    7.0   0.4   0.4   0.3   0.3   0.3   0.3   0.8   1.9   0.0   0.0   0.1   0.5   0.6   0.5   0.4  0.57  0.39  0.16  0.00  0.00   66.00   81.83    0.00    0.00    0.63
 1992 329   117    21     1     0.0   16.3   16581    9.3    7.0   0.4   0.4   0.3   0.3   0.3   0.3   0.7   1.9   0.0   0.0   0.1   0.5   0.6   0.5   0.4  0.56  0.38  0.16  0.00  0.00   66.62   82.33    0.00    0.00    0.63
 1992 330   118    21     1     0.0   16.1   16581    9.1    6.9   0.4   0.4   0.3   0.3   0.3   0.3   0.6   1.9   0.0   0.0   0.1   0.5   0.6   0.5   0.4  0.56  0.38  0.16  0.00  0.00   67.20   82.82    0.00    0.00    0.64
 1992 331   119    21     1     0.0   15.8   16580    8.9    6.9   0.4   0.4   0.3   0.3   0.3   0.3   0.5   1.9   0.0   0.0   0.1   0.5   0.6   0.5   0.4  0.56  0.38  0.15  0.00  0.00   67.74   83.28    0.00    0.00    0.64
 1992 332   120    21     1     0.0   15.6   16580    8.8    6.8   0.4   0.4   0.3   0.3   0.3   0.3   0.5   1.9   0.0   0.0   0.1   0.5   0.6   0.5   0.4  0.56  0.38  0.15  0.00  0.00   68.27   83.74    0.00    0.00    0.64
 1992 333   121    21     1     0.0   15.5   16579    8.7    6.7   0.2   0.4   0.4   0.3   0.3   0.3   0.4   1.9   0.0   0.0   0.1   0.4   0.6   0.5   0.4  0.56  0.37  0.15  0.00  0.00   68.80   84.23    0.00    0.00    0.64
 1992 334   122    21     1     0.0   15.4   16578    8.4    7.0   0.2   0.3   0.3   0.3   0.3   0.3   0.4   1.9   0.0   0.0   0.2   0.6   0.6   0.5   0.4  0.55  0.37  0.15  0.00  0.00   69.47   84.57    0.00    0.00    0.65
 1992 335   123    21     1     0.0   15.5   16578    8.7    6.8   0.4   0.4   0.3   0.3   0.3   0.3   0.4   1.9   0.0   0.0   0.1   0.5   0.6   0.5   0.4  0.55  0.37  0.15  0.00  0.00   70.16   85.24    0.00    0.00    0.65
 1992 336   124    21     1     0.0   15.5   16577    8.2    7.2   0.3   0.3   0.3   0.3   0.3   0.3   0.3   1.9   0.0   0.0   0.2   0.6   0.7   0.5   0.4  0.55  0.36  0.15  0.00  0.00   70.90   85.44    0.00    0.00    0.65
 1992 337   125    21     1     0.0   15.6   16576    8.5    7.1   0.6   0.4   0.3   0.3   0.3   0.3   0.3   1.9   0.0   0.0   0.1   0.5   0.7   0.6   0.4  0.55  0.36  0.15  0.00  0.00   71.65   86.02    0.00    0.00    0.65
 1992 338   126    33     2     0.0   27.2   16576   14.3   12.9  11.2   0.4   0.3   0.3   0.3   0.3   0.3   1.8   0.0   0.0  10.9   0.5   0.6   0.5   0.4  0.55  0.36  0.15  0.00  0.00   72.38   86.60    0.00    0.00    0.68
 1992 339   127    33     2     0.0   18.9   16575   12.1    6.8   7.6   0.4   0.3   0.3   0.3   0.3   0.3   1.7   0.0   0.0   0.0   0.5   0.6   0.5   0.4  0.55  0.35  0.15  0.00  0.00   73.12   89.30    0.00    0.00    0.71
 1992 340   128    33     2     0.0   15.9   16574    9.0    6.9   2.5   0.4   0.3   0.3   0.3   0.3   0.3   1.6   0.0   0.0   0.2   0.5   0.6   0.5   0.4  0.55  0.35  0.15  0.00  0.00   73.84   89.80    0.00    0.00    0.71
 1992 341   129    33     2     0.0   14.8   16574    7.9    6.8   0.0   0.6   0.5   0.3   0.3   0.3   0.3   1.5   0.0   0.0   0.1   0.5   0.6   0.5   0.4  0.55  0.35  0.15  0.00  0.00   74.57   90.42    0.00    0.00    0.73
 1992 342   130    33     2     0.0   14.3   16573    7.1    7.2   0.0   0.4   0.3   0.3   0.3   0.3   0.3   1.5   0.0   0.0   0.2   0.6   0.7   0.6   0.4  0.54  0.34  0.15  0.00  0.00   75.32   90.63    0.00    0.00    0.75
 1992 343   131    33     2     0.0   14.1   16572    6.9    7.2   0.3   0.3   0.3   0.3   0.3   0.3   0.3   1.4   0.0   0.0   0.0   0.7   0.7   0.6   0.4  0.54  0.34  0.15  0.00  0.00   76.09   91.09    0.00    0.00    0.77
 1992 344   132    33     2     0.0   14.0   16572    7.1    6.9   0.3   0.5   0.3   0.3   0.3   0.3   0.3   1.3   0.0   0.0   0.1   0.5   0.6   0.5   0.5  0.54  0.34  0.15  0.00  0.00   76.86   91.73    0.00    0.00    0.78
 1992 345   133    33     2     0.0   13.7   16571    6.9    6.8   0.5   0.4   0.3   0.3   0.3   0.3   0.3   1.2   0.0   0.0   0.1   0.5   0.6   0.5   0.5  0.54  0.33  0.15  0.00  0.00   77.62   92.37    0.00    0.00    0.80
 1992 346   134    33     2     0.0   13.4   16570    6.6    6.8   0.3   0.4   0.3   0.3   0.3   0.3   0.3   1.1   0.0   0.0   0.1   0.5   0.6   0.5   0.5  0.54  0.33  0.15  0.00  0.00   78.37   92.93    0.00    0.00    0.82
 1992 347   135    33     2     0.0   13.3   16570    6.5    6.8   0.4   0.4   0.3   0.3   0.3   0.3   0.3   1.1   0.0   0.0   0.1   0.5   0.6   0.5   0.5  0.54  0.33  0.14  0.00  0.00   79.10   93.52    0.00    0.00    0.84
 1992 348   136    33     2     0.0   13.1   16569    6.3    6.8   0.4   0.4   0.3   0.3   0.3   0.3   0.3   1.0   0.0   0.0   0.1   0.5   0.6   0.5   0.5  0.54  0.32  0.14  0.00  0.00   79.82   94.08    0.00    0.00    0.84
 1992 349   137    33     2     0.0   12.9   16568    6.2    6.7   0.4   0.4   0.3   0.3   0.3   0.3   0.3   0.9   0.0   0.0   0.1   0.5   0.6   0.5   0.5  0.54  0.32  0.14  0.00  0.00   80.53   94.70    0.00    0.00    0.85
 1992 350   138    33     2     0.0   12.7   16568    6.1    6.7   0.4   0.4   0.3   0.3   0.3   0.3   0.3   0.9   0.0   0.0   0.1   0.5   0.6   0.5   0.5  0.54  0.32  0.14  0.00  0.00   81.20   95.30    0.00    0.00    0.85
 1992 351   139    33     2     0.0   12.5   16567    5.9    6.6   0.4   0.4   0.3   0.3   0.3   0.3   0.3   0.8   0.0   0.0   0.1   0.4   0.6   0.5   0.5  0.54  0.31  0.14  0.00  0.00   81.84   95.89    0.00    0.00    0.85
 1992 352   140    33     2     0.0   12.3   16567    5.8    6.5   0.2   0.4   0.4   0.3   0.3   0.3   0.3   0.8   0.0   0.0   0.1   0.4   0.6   0.5   0.5  0.54  0.31  0.14  0.00  0.00   82.46   96.48    0.00    0.00    0.85
 1992 353   141    33     2     0.0   12.2   16566    5.5    6.8   0.2   0.3   0.3   0.3   0.3   0.3   0.3   0.7   0.0   0.0   0.2   0.5   0.6   0.5   0.4  0.54  0.31  0.14  0.00  0.00   83.20   96.85    0.00    0.00    0.86
 1992 354   142    33     2     0.0   12.3   16565    5.8    6.6   0.6   0.4   0.3   0.3   0.3   0.3   0.3   0.7   0.0   0.0   0.0   0.5   0.6   0.5   0.4  0.54  0.30  0.14  0.00  0.00   83.93   97.62    0.00    0.00    0.86
 1992 355   143    33     2     0.0   12.1   16565    5.5    6.6   0.3   0.4   0.3   0.3   0.3   0.3   0.3   0.7   0.0   0.0   0.2   0.5   0.6   0.5   0.4  0.53  0.30  0.14  0.00  0.00   84.66   98.18    0.00    0.00    0.86
 1992 356   144    33     2     0.0   12.0   16564    5.6    6.5   0.5   0.4   0.3   0.3   0.3   0.3   0.3   0.6   0.0   0.0   0.1   0.5   0.6   0.5   0.4  0.53  0.30  0.14  0.00  0.00   85.39   98.89    0.00    0.00    0.86
 1992 357   145    33     2     0.0   11.8   16563    5.4    6.4   0.4   0.4   0.3   0.3   0.3   0.3   0.3   0.6   0.0   0.0   0.1   0.4   0.6   0.5   0.4  0.53  0.29  0.13  0.00  0.00   86.09   99.52    0.00    0.00    0.87
 1992 358   146    33     2     0.0   11.7   16563    5.3    6.4   0.3   0.4   0.3   0.3   0.3   0.3   0.3   0.6   0.0   0.0   0.3   0.4   0.6   0.5   0.4  0.53  0.29  0.13  0.00  0.00   86.79  100.10    0.00    0.00    0.87
 1992 359   147    33     2     0.0   11.6   16562    5.4    6.2   0.6   0.3   0.4   0.3   0.3   0.3   0.3   0.5   0.0   0.0   0.0   0.4   0.6   0.5   0.4  0.53  0.29  0.13  0.00  0.00   87.48  100.89    0.00    0.00    0.87
 1992 360   148    33     2     0.0   11.5   16561    4.8    6.7   0.2   0.3   0.3   0.3   0.3   0.3   0.3   0.5   0.0   0.0   0.2   0.6   0.7   0.5   0.4  0.53  0.28  0.13  0.00  0.00   88.26  101.15    0.00    0.00    0.87
 1992 361   149    33     2     0.0   11.6   16561    5.2    6.4   0.6   0.5   0.3   0.3   0.3   0.3   0.3   0.5   0.0   0.0   0.1   0.5   0.6   0.5   0.4  0.53  0.28  0.13  0.00  0.00   89.00  101.89    0.00    0.00    0.87
 1992 362   150    33     2     0.0   11.4   16560    5.0    6.4   0.4   0.4   0.3   0.3   0.3   0.3   0.3   0.4   0.0   0.0   0.1   0.5   0.6   0.5   0.4  0.53  0.28  0.13  0.00  0.00   89.72  102.46    0.00    0.00    0.88
 1992 363   151    33     2     0.0   11.3   16560    5.0    6.4   0.4   0.4   0.3   0.3   0.3   0.3   0.3   0.4   0.0   0.0   0.1   0.5   0.6   0.5   0.4  0.53  0.27  0.13  0.00  0.00   90.43  103.07    0.00    0.00    0.88
 1992 364   152    33     2     0.0   11.2   16559    4.9    6.3   0.4   0.4   0.3   0.3   0.3   0.3   0.3   0.4   0.0   0.0   0.1   0.5   0.6   0.5   0.4  0.53  0.27  0.13  0.00  0.00   91.13  103.69    0.00    0.00    0.88
 1992 365   153    33     2     0.0   11.1   16558    4.8    6.3   0.4   0.4   0.3   0.3   0.3   0.3   0.3   0.4   0.0   0.0   0.1   0.5   0.6   0.5   0.4  0.53  0.27  0.13  0.00  0.00   91.79  104.27    0.00    0.00    0.88
 1992 366   154    33     2     0.0   11.0   16558    4.8    6.2   0.1   0.3   0.4   0.3   0.4   0.3   0.3   0.4   0.0   0.0   0.1   0.4   0.6   0.5   0.4  0.53  0.27  0.13  0.00  0.00   92.43  104.83    0.00    0.00    0.89
 1993 001   155    33     2     0.0   11.1   16557    4.5    6.6   0.2   0.1   0.2   0.2   0.3   0.3   0.4   0.4   0.0   0.0   0.1   0.6   0.7   0.5   0.4  0.53  0.26  0.12  0.00  0.00   93.13  105.06    0.00    0.00    0.89
 1993 002   156    33     2     0.0   11.3   16557    4.2    7.1   0.2   0.1   0.2   0.2   0.2   0.3   0.3   0.4   0.0   0.0   0.2   0.7   0.8   0.5   0.4  0.54  0.27  0.12  0.00  0.00   93.75  105.12    0.00    0.00    0.89
 1993 003   157    33     2     0.1   11.5   16556    4.0    7.5   0.2   0.2   0.2   0.2   0.2   0.3   0.3   0.4   0.0   0.0   0.3   0.7   0.8   0.6   0.5  0.56  0.28  0.13  0.00  0.00   94.41  105.21    0.00    0.00    0.89
 1993 004   158    33     2     0.2   11.6   16556    3.8    7.8   0.2   0.2   0.2   0.2   0.2   0.2   0.3   0.3   0.0   0.0   0.4   0.8   0.8   0.6   0.5  0.57  0.29  0.13  0.00  0.00   95.06  105.31    0.00    0.00    0.89
 1993 005   159    33     2     0.4   11.8   16555    3.8    8.1   0.2   0.2   0.2   0.2   0.2   0.2   0.2   0.3   0.0   0.0   0.4   0.8   0.8   0.6   0.5  0.58  0.30  0.13  0.00  0.00   95.74  105.43    0.01    0.00    0.90
 1993 006   160    33     2     0.4   12.0   16554    4.1    7.9   0.8   0.2   0.2   0.2   0.2   0.2   0.2   0.3   0.0   0.0   0.1   0.8   0.8   0.6   0.6  0.58  0.30  0.14  0.00  0.00   96.51  105.86    0.01    0.00    0.90
 1993 007   161    33     2     0.4   11.8   16554    4.2    7.7   0.3   0.5   0.2   0.2   0.3   0.2   0.2   0.2   0.0   0.0   0.1   0.5   0.8   0.6   0.6  0.59  0.31  0.14  0.00  0.00   97.34  106.28    0.01    0.00    0.91
 1993 008   162    33     2     0.4   12.0   16553    4.4    7.6   0.3   0.4   0.4   0.3   0.3   0.3   0.3   0.3   0.0   0.0   0.1   0.5   0.7   0.6   0.6  0.60  0.32  0.14  0.00  0.00   98.22  106.83    0.01    0.00    0.91
 1993 009   163    33     2     0.5   12.2   16552    4.0    8.1   0.3   0.3   0.3   0.3   0.2   0.2   0.3   0.2   0.0   0.0   0.3   0.6   0.7   0.7   0.6  0.60  0.33  0.15  0.00  0.00   99.11  106.95    0.02    0.00    0.92
 1993 010   164    33     2     0.5   12.5   16551    4.4    8.1   0.7   0.3   0.3   0.3   0.3   0.3   0.3   0.3   0.0   0.0   0.0   0.7   0.8   0.7   0.6  0.60  0.33  0.15  0.00  0.00  100.01  107.37    0.02    0.00    0.92
 1993 011   165    33     2     0.5   12.4   16551    4.5    8.0   0.3   0.5   0.3   0.3   0.3   0.3   0.3   0.3   0.0   0.0   0.2   0.5   0.8   0.7   0.6  0.60  0.34  0.15  0.00  0.00  100.94  107.84    0.02    0.00    0.92
 1993 012   166    33     2     0.5   12.4   16550    4.8    7.6   0.5   0.4   0.4   0.3   0.3   0.3   0.3   0.3   0.0   0.0   0.1   0.5   0.6   0.6   0.6  0.60  0.34  0.15  0.00  0.00  101.87  108.63    0.02    0.00    0.93
 1993 013   167    33     2     0.5   12.2   16549    4.7    7.5   0.4   0.4   0.3   0.3   0.3   0.3   0.3   0.3   0.0   0.0   0.1   0.5   0.6   0.6   0.6  0.60  0.34  0.15  0.00  0.00  102.83  109.36    0.02    0.00    0.93
 1993 014   168    33     2     0.5   12.2   16549    4.8    7.4   0.5   0.4   0.3   0.3   0.3   0.3   0.3   0.3   0.0   0.0   0.1   0.5   0.6   0.6   0.6  0.61  0.35  0.15  0.00  0.00  103.82  110.13    0.02    0.00    0.93
 1993 015   169    33     2     0.5   12.1   16548    4.7    7.4   0.1   0.3   0.4   0.3   0.3   0.3   0.3   0.3   0.0   0.0   0.1   0.5   0.6   0.6   0.6  0.61  0.35  0.15  0.00  0.00  104.82  110.88    0.02    0.00    0.93
 1993 016   170    33     2     0.6   13.1   16547    5.0    8.2   0.3   0.4   0.4   0.3   0.3   0.3   0.3   0.3   0.0   0.0   0.1   0.6   0.8   0.6   0.6  0.64  0.36  0.15  0.00  0.00  105.83  111.14    0.02    0.00    0.94
 1993 017   171    33     2     0.6   14.1   16546    5.2    8.9   0.5   0.4   0.4   0.3   0.3   0.3   0.3   0.3   0.0   0.0   0.1   0.8   0.9   0.7   0.6  0.66  0.36  0.15  0.00  0.00  106.85  111.45    0.02    0.00    0.94
 1993 018   172    33     2     0.6   15.1   16545    5.8    9.3   0.7   0.7   0.4   0.4   0.3   0.3   0.3   0.3   0.0   0.0   0.1   0.7   1.1   0.7   0.7  0.69  0.37  0.15  0.00  0.00  107.82  112.03    0.02    0.00    0.94
