*SIMULATION OVERVIEW FILE

*DSSAT Cropping System Model Ver. 4.0.2.000               Aug 15, 2016; 15:38:12
                                                                                
*RUN   1        : UYMZ                                                          
 MODEL          : MZCER040 - MAIZE                                              
 EXPERIMENT     : UYMZ0200 SN late to create DSS                                
 TREATMENT  1   : UYMZ                                                          
                                                                                
 CROP           : MAIZE          CULTIVAR : CMEDIO UY        ECOTYPE :IB0001    
 STARTING DATE  : JUL 15 1990                                                   
 PLANTING DATE  : JUL 18 1990    PLANTS/m2 :  7.0     ROW SPACING :  15.cm      
 WEATHER        : UYTA   1990                                                   
 SOIL           : UYSS0N2002     TEXTURE :       -  N20-02    SNIA CLAY RISS    
 SOIL INITIAL C : DEPTH:125cm EXTR. H2O:186.3mm  NO3: 74.8kg/ha  NH4: 23.9kg/ha 
 WATER BALANCE  : RAINFED                                                       
 IRRIGATION     : NOT IRRIGATED                                                 
 NITROGEN BAL.  : SOIL-N & N-UPTAKE SIMULATION; NO N-FIXATION                   
 N-FERTILIZER   :        6 kg/ha IN     2 APPLICATIONS                          
 RESIDUE/MANURE : INITIAL :     0 kg/ha ;       0 kg/ha IN     0 APPLICATIONS   
 ENVIRONM. OPT. : DAYL=    0.00  SRAD=    0.00  TMAX=    0.00  TMIN=    0.00    
                  RAIN=    0.00  CO2 = R330.00  DEW =    0.00  WIND=    0.00    
 SIMULATION OPT : WATER   :Y  NITROGEN:Y  N-FIX:N  PHOSPH :N  PESTS  :N         
                  PHOTO   :C  ET      :R  INFIL:S  HYDROL :R  SOM    :G         
 MANAGEMENT OPT : PLANTING:R  IRRIG   :N  FERT :D  RESIDUE:N  HARVEST:M  WTH:M  
                                                                                
*SUMMARY OF SOIL AND GENETIC INPUT PARAMETERS                                   
                                                                                
   SOIL LOWER UPPER   SAT  EXTR  INIT   ROOT   BULK     pH    NO3    NH4    ORG 
  DEPTH LIMIT LIMIT    SW    SW    SW   DIST   DENS                          C  
   cm   cm3/cm3    cm3/cm3    cm3/cm3         g/cm3         ugN/g  ugN/g     %  
------------------------------------------------------------------------------- 
  0-  5 0.331 0.542 0.585 0.211 0.394   1.00   1.11   6.50  15.00   1.50   2.74 
  5- 15 0.331 0.542 0.585 0.211 0.394   1.00   1.11   6.50  15.00   1.50   2.74 
 15- 30 0.331 0.542 0.585 0.211 0.394   1.00   1.11   6.50  15.00   1.50   2.74 
 30- 45 0.290 0.438 0.491 0.148 0.334   0.43   1.26   6.50   8.50   1.50   1.07 
 45- 60 0.292 0.431 0.480 0.138 0.375   0.39   1.29   6.27   4.53   1.50   0.90 
 60- 90 0.293 0.419 0.466 0.126 0.419   0.32   1.34   6.00   0.00   1.50   0.64 
 90-108 0.286 0.408 0.460 0.122 0.408   0.23   1.36   6.00   0.00   1.50   0.35 
108-125 0.276 0.395 0.456 0.119 0.395   0.12   1.38   6.00   0.00   1.50   0.14 
                                                                                
TOT-125  37.3  55.9  62.1  18.6  49.1  <--cm   -  kg/ha-->   74.8   23.9 166127 
SOIL ALBEDO    : 0.09      EVAPORATION LIMIT : 6.00         MIN. FACTOR  : 1.00 
RUNOFF CURVE # :10.00      DRAINAGE RATE     : 0.40         FERT. FACTOR : 1.00 
                                                                                
 MAIZE      CULTIVAR :UY0370-CMEDIO UY          ECOTYPE :IB0001                 
 P1     : 280.00  P2     : 0.0000  P5     : 750.00                              
 G2     : 800.00  G3     :  7.500  PHINT  : 38.900                              
                                                                                
                                                                                
                                                                                
*SIMULATED CROP AND SOIL STATUS AT MAIN DEVELOPMENT STAGES

 RUN NO.     1     UYMZ                    

        CROP GROWTH   BIOMASS         LEAF   CROP N     STRESS  
   DATE  AGE STAGE      kg/ha    LAI   NUM  kg/ha  %   H2O    N 
 ------  --- ---------- -----  -----  ----  ---  ---  ----  ----
 15 JUL    0 Start Sim      0   0.00   0.0    0  0.0  0.00  0.00
 18 JUL    0 Sowing         0   0.00   0.0    0  0.0  0.00  0.00
 19 JUL    1 Germinate      0   0.00   0.0    0  0.0  0.00  0.00
  7 AUG   20 Emergence     28   0.00   2.0    1  4.4  0.00  0.00
 20 SEP   64 End Juveni   340   0.34   9.8   13  3.9  0.06  0.00
 24 SEP   68 Floral Ini   409   0.40  10.3   15  3.7  0.00  0.01
 13 NOV  118 75% Silkin  8177   3.83  21.5  121  1.5  0.00  0.04
 25 NOV  130 Beg Gr Fil 10593   3.59  21.5  128  1.2  0.00  0.04
  7 JAN  173 End Gr Fil 19700   1.48  21.5  150  0.8  0.00  0.22
  9 JAN  175 Maturity   19700   1.48  21.5  150  0.8  0.00  0.56
  9 JAN  175 Harvest    19700   1.48  21.5  150  0.8  0.00  0.00


*MAIN GROWTH AND DEVELOPMENT VARIABLES

@     VARIABLE                          SIMULATED     MEASURED
      --------                          ---------     --------
      Anthesis day (dap)                      118          -99
      Physiological maturity day (dap)        175          -99
      Yield at harvest maturity (kg [dm]/    9643          -99
      Number at maturity (no/m2)             3720          -99
      Unit wt at maturity (g [dm]/unit)    0.2592          -99
      Number at maturity (no/unit)          531.5          -99
      Tops weight at maturity (kg [dm]/ha   19700          -99
      By-product produced (stalk) at matu   10135          -99
      Leaf area index, maximum               3.87          -99
      Harvest index at maturity             0.490          -99
      Grain N at maturity (kg/ha)             111          -99
      Tops N at maturity (kg/ha)              150          -99
      Stem N at maturity (kg/ha)               40          -99
      Grain N at maturity (%)                 1.1          -99
      Tops weight at anthesis (kg [dm]/ha    7898          -99
      Tops N at anthesis (kg/ha)              120          -99
      Leaf number per stem at maturity      21.51          -99


*ENVIRONMENTAL AND STRESS FACTORS

 |-----Development Phase------|-------------Environment--------------|---------Stress----------|
                              |--------Average-------|---Cumulative--|  (0=Min, 1=Max Stress)  |
                         Time  Temp  Temp Solar Photop         Evapo |----Water---|--Nitrogen--|
                         Span   Max   Min   Rad  [day]   Rain  Trans  Photo         Photo
                         days    øC    øC MJ/m2     hr     mm     mm  synth Growth  synth Growth
------------------------------------------------------------------------------------------------
 Emergence-End Juvenile    44  19.4   8.0  13.6  11.22  160.0   71.5  0.027  0.064  0.002  0.001
 End Juvenil-Floral Init    4  18.7  12.1  11.7  11.99    0.0    9.2  0.000  0.000  0.001  0.000
 Floral Init-End Lf Grow   50  23.1  12.7  19.4  12.85  183.4  179.6  0.000  0.000  0.085  0.034
 End Lf Grth-Beg Grn Fil   12  28.3  16.7  22.1  13.70   56.5   63.7  0.000  0.000  0.121  0.048
 Grain Filling Phase       43  26.4  14.6  24.4  14.01  284.2  224.9  0.000  0.000  0.408  0.212

                     Maize YIELD :     9643 kg/ha    [Dry weight] 

************************************************************************************************

*DSSAT Cropping System Model Ver. 4.0.2.000               Aug 15, 2016; 15:38:12
                                                                                
*RUN   2        : UYMZ                                                          
 MODEL          : MZCER040 - MAIZE                                              
 EXPERIMENT     : UYMZ0200 SN late to create DSS                                
 TREATMENT  1   : UYMZ                                                          
                                                                                
 CROP           : MAIZE          CULTIVAR : CMEDIO UY        ECOTYPE :IB0001    
 STARTING DATE  : JUL 15 1990                                                   
 PLANTING DATE  : JUL 18 1990    PLANTS/m2 :  7.0     ROW SPACING :  15.cm      
 WEATHER        : UYTA   1990                                                   
 SOIL           : UYSS0N2002     TEXTURE :       -  N20-02    SNIA CLAY RISS    
 SOIL INITIAL C : DEPTH:125cm EXTR. H2O:186.3mm  NO3: 74.8kg/ha  NH4: 23.9kg/ha 
 WATER BALANCE  : RAINFED                                                       
 IRRIGATION     : NOT IRRIGATED                                                 
 NITROGEN BAL.  : SOIL-N & N-UPTAKE SIMULATION; NO N-FIXATION                   
 N-FERTILIZER   :        6 kg/ha IN     2 APPLICATIONS                          
 RESIDUE/MANURE : INITIAL :     0 kg/ha ;       0 kg/ha IN     0 APPLICATIONS   
 ENVIRONM. OPT. : DAYL=    0.00  SRAD=    0.00  TMAX=    0.00  TMIN=    0.00    
                  RAIN=    0.00  CO2 = R330.00  DEW =    0.00  WIND=    0.00    
 SIMULATION OPT : WATER   :Y  NITROGEN:Y  N-FIX:N  PHOSPH :N  PESTS  :N         
                  PHOTO   :C  ET      :R  INFIL:S  HYDROL :R  SOM    :G         
 MANAGEMENT OPT : PLANTING:R  IRRIG   :N  FERT :D  RESIDUE:N  HARVEST:M  WTH:M  
                                                                                
*SUMMARY OF SOIL AND GENETIC INPUT PARAMETERS                                   
                                                                                
   SOIL LOWER UPPER   SAT  EXTR  INIT   ROOT   BULK     pH    NO3    NH4    ORG 
  DEPTH LIMIT LIMIT    SW    SW    SW   DIST   DENS                          C  
   cm   cm3/cm3    cm3/cm3    cm3/cm3         g/cm3         ugN/g  ugN/g     %  
------------------------------------------------------------------------------- 
  0-  5 0.331 0.542 0.585 0.211 0.394   1.00   1.11   6.50  15.00   1.50   2.74 
  5- 15 0.331 0.542 0.585 0.211 0.394   1.00   1.11   6.50  15.00   1.50   2.74 
 15- 30 0.331 0.542 0.585 0.211 0.394   1.00   1.11   6.50  15.00   1.50   2.74 
 30- 45 0.290 0.438 0.491 0.148 0.334   0.43   1.26   6.50   8.50   1.50   1.07 
 45- 60 0.292 0.431 0.480 0.138 0.375   0.39   1.29   6.27   4.53   1.50   0.90 
 60- 90 0.293 0.419 0.466 0.126 0.419   0.32   1.34   6.00   0.00   1.50   0.64 
 90-108 0.286 0.408 0.460 0.122 0.408   0.23   1.36   6.00   0.00   1.50   0.35 
108-125 0.276 0.395 0.456 0.119 0.395   0.12   1.38   6.00   0.00   1.50   0.14 
                                                                                
TOT-125  37.3  55.9  62.1  18.6  49.1  <--cm   -  kg/ha-->   74.8   23.9 166127 
SOIL ALBEDO    : 0.09      EVAPORATION LIMIT : 6.00         MIN. FACTOR  : 1.00 
RUNOFF CURVE # :10.00      DRAINAGE RATE     : 0.40         FERT. FACTOR : 1.00 
                                                                                
 MAIZE      CULTIVAR :UY0370-CMEDIO UY          ECOTYPE :IB0001                 
 P1     : 280.00  P2     : 0.0000  P5     : 750.00                              
 G2     : 800.00  G3     :  7.500  PHINT  : 38.900                              
                                                                                
                                                                                
                                                                                
*SIMULATED CROP AND SOIL STATUS AT MAIN DEVELOPMENT STAGES

 RUN NO.     2     UYMZ                    

        CROP GROWTH   BIOMASS         LEAF   CROP N     STRESS  
   DATE  AGE STAGE      kg/ha    LAI   NUM  kg/ha  %   H2O    N 
 ------  --- ---------- -----  -----  ----  ---  ---  ----  ----
 15 JUL    0 Start Sim      0   0.00   0.0    0  0.0  0.00  0.00
 18 JUL    0 Sowing         0   0.00   0.0    0  0.0  0.00  0.00
 19 JUL    1 Germinate      0   0.00   0.0    0  0.0  0.00  0.00
 29 JUL   11 Emergence     28   0.00   2.0    1  4.4  0.00  0.00
  6 SEP   50 End Juveni   346   0.64   9.7   13  3.7  0.00  0.00
 10 SEP   54 Floral Ini   467   0.81  10.5   17  3.7  0.00  0.01
 10 NOV  115 75% Silkin  7557   2.84  21.8   91  1.2  0.00  0.07
 27 NOV  132 Beg Gr Fil  9467   2.35  21.8  101  1.1  0.00  0.09
  3 JAN  169 End Gr Fil 16374   1.05  21.8  123  0.8  0.00  0.21
  6 JAN  172 Maturity   16374   1.05  21.8  123  0.8  0.00  0.42
  6 JAN  172 Harvest    16374   1.05  21.8  123  0.8  0.00  0.00


*MAIN GROWTH AND DEVELOPMENT VARIABLES

@     VARIABLE                          SIMULATED     MEASURED
      --------                          ---------     --------
      Anthesis day (dap)                      115          -99
      Physiological maturity day (dap)        172          -99
      Yield at harvest maturity (kg [dm]/    7290          -99
      Number at maturity (no/m2)             2807          -99
      Unit wt at maturity (g [dm]/unit)    0.2597          -99
      Number at maturity (no/unit)          401.0          -99
      Tops weight at maturity (kg [dm]/ha   16374          -99
      By-product produced (stalk) at matu    9161          -99
      Leaf area index, maximum               3.30          -99
      Harvest index at maturity             0.445          -99
      Grain N at maturity (kg/ha)              83          -99
      Tops N at maturity (kg/ha)              123          -99
      Stem N at maturity (kg/ha)               41          -99
      Grain N at maturity (%)                 1.1          -99
      Tops weight at anthesis (kg [dm]/ha    7459          -99
      Tops N at anthesis (kg/ha)               90          -99
      Leaf number per stem at maturity      21.79          -99


*ENVIRONMENTAL AND STRESS FACTORS

 |-----Development Phase------|-------------Environment--------------|---------Stress----------|
                              |--------Average-------|---Cumulative--|  (0=Min, 1=Max Stress)  |
                         Time  Temp  Temp Solar Photop         Evapo |----Water---|--Nitrogen--|
                         Span   Max   Min   Rad  [day]   Rain  Trans  Photo         Photo
                         days    øC    øC MJ/m2     hr     mm     mm  synth Growth  synth Growth
------------------------------------------------------------------------------------------------
 Emergence-End Juvenile    39  19.4   9.4  10.7  10.88   97.3   49.2  0.000  0.000  0.002  0.001
 End Juvenil-Floral Init    4  21.0  13.3   9.1  11.53    7.6    6.9  0.000  0.000  0.001  0.000
 Floral Init-End Lf Grow   61  21.8  11.2  17.3  12.58  284.3  212.0  0.000  0.000  0.164  0.066
 End Lf Grth-Beg Grn Fil   17  23.8  12.2  20.5  13.68   82.0   70.9  0.000  0.000  0.232  0.093
 Grain Filling Phase       37  27.7  17.1  21.7  14.02  203.6  184.8  0.000  0.000  0.436  0.203

                     Maize YIELD :     7290 kg/ha    [Dry weight] 

************************************************************************************************

*DSSAT Cropping System Model Ver. 4.0.2.000               Aug 15, 2016; 15:38:12
                                                                                
*RUN   3        : UYMZ                                                          
 MODEL          : MZCER040 - MAIZE                                              
 EXPERIMENT     : UYMZ0200 SN late to create DSS                                
 TREATMENT  1   : UYMZ                                                          
                                                                                
 CROP           : MAIZE          CULTIVAR : CMEDIO UY        ECOTYPE :IB0001    
 STARTING DATE  : JUL 15 1990                                                   
 PLANTING DATE  : JUL 18 1990    PLANTS/m2 :  7.0     ROW SPACING :  15.cm      
 WEATHER        : UYTA   1990                                                   
 SOIL           : UYSS0N2002     TEXTURE :       -  N20-02    SNIA CLAY RISS    
 SOIL INITIAL C : DEPTH:125cm EXTR. H2O:186.3mm  NO3: 74.8kg/ha  NH4: 23.9kg/ha 
 WATER BALANCE  : RAINFED                                                       
 IRRIGATION     : NOT IRRIGATED                                                 
 NITROGEN BAL.  : SOIL-N & N-UPTAKE SIMULATION; NO N-FIXATION                   
 N-FERTILIZER   :        6 kg/ha IN     2 APPLICATIONS                          
 RESIDUE/MANURE : INITIAL :     0 kg/ha ;       0 kg/ha IN     0 APPLICATIONS   
 ENVIRONM. OPT. : DAYL=    0.00  SRAD=    0.00  TMAX=    0.00  TMIN=    0.00    
                  RAIN=    0.00  CO2 = R330.00  DEW =    0.00  WIND=    0.00    
 SIMULATION OPT : WATER   :Y  NITROGEN:Y  N-FIX:N  PHOSPH :N  PESTS  :N         
                  PHOTO   :C  ET      :R  INFIL:S  HYDROL :R  SOM    :G         
 MANAGEMENT OPT : PLANTING:R  IRRIG   :N  FERT :D  RESIDUE:N  HARVEST:M  WTH:M  
                                                                                
*SUMMARY OF SOIL AND GENETIC INPUT PARAMETERS                                   
                                                                                
   SOIL LOWER UPPER   SAT  EXTR  INIT   ROOT   BULK     pH    NO3    NH4    ORG 
  DEPTH LIMIT LIMIT    SW    SW    SW   DIST   DENS                          C  
   cm   cm3/cm3    cm3/cm3    cm3/cm3         g/cm3         ugN/g  ugN/g     %  
------------------------------------------------------------------------------- 
  0-  5 0.331 0.542 0.585 0.211 0.394   1.00   1.11   6.50  15.00   1.50   2.74 
  5- 15 0.331 0.542 0.585 0.211 0.394   1.00   1.11   6.50  15.00   1.50   2.74 
 15- 30 0.331 0.542 0.585 0.211 0.394   1.00   1.11   6.50  15.00   1.50   2.74 
 30- 45 0.290 0.438 0.491 0.148 0.334   0.43   1.26   6.50   8.50   1.50   1.07 
 45- 60 0.292 0.431 0.480 0.138 0.375   0.39   1.29   6.27   4.53   1.50   0.90 
 60- 90 0.293 0.419 0.466 0.126 0.419   0.32   1.34   6.00   0.00   1.50   0.64 
 90-108 0.286 0.408 0.460 0.122 0.408   0.23   1.36   6.00   0.00   1.50   0.35 
108-125 0.276 0.395 0.456 0.119 0.395   0.12   1.38   6.00   0.00   1.50   0.14 
                                                                                
TOT-125  37.3  55.9  62.1  18.6  49.1  <--cm   -  kg/ha-->   74.8   23.9 166127 
SOIL ALBEDO    : 0.09      EVAPORATION LIMIT : 6.00         MIN. FACTOR  : 1.00 
RUNOFF CURVE # :10.00      DRAINAGE RATE     : 0.40         FERT. FACTOR : 1.00 
                                                                                
 MAIZE      CULTIVAR :UY0370-CMEDIO UY          ECOTYPE :IB0001                 
 P1     : 280.00  P2     : 0.0000  P5     : 750.00                              
 G2     : 800.00  G3     :  7.500  PHINT  : 38.900                              
                                                                                
                                                                                
                                                                                
*SIMULATED CROP AND SOIL STATUS AT MAIN DEVELOPMENT STAGES

 RUN NO.     3     UYMZ                    

        CROP GROWTH   BIOMASS         LEAF   CROP N     STRESS  
   DATE  AGE STAGE      kg/ha    LAI   NUM  kg/ha  %   H2O    N 
 ------  --- ---------- -----  -----  ----  ---  ---  ----  ----
 14 JUL    0 Start Sim      0   0.00   0.0    0  0.0  0.00  0.00
 17 JUL    0 Sowing         0   0.00   0.0    0  0.0  0.00  0.00
 18 JUL    1 Germinate      0   0.00   0.0    0  0.0  0.00  0.00
 16 AUG   30 Emergence     28   0.00   1.8    1  4.4  0.00  0.00
 21 SEP   66 End Juveni   324   0.60   9.5   12  3.6  0.00  0.00
 25 SEP   70 Floral Ini   375   0.66   9.9   14  3.7  0.00  0.01
 21 NOV  127 75% Silkin  6867   2.83  20.9  110  1.6  0.12  0.03
  6 DEC  142 Beg Gr Fil  8074   2.19  20.9  112  1.4  0.44  0.03
 12 JAN  179 End Gr Fil 13648   1.00  20.9  120  0.9  0.29  0.12
 14 JAN  181 Maturity   13648   1.00  20.9  120  0.9  0.00  0.37
 14 JAN  181 Harvest    13648   1.00  20.9  120  0.9  0.00  0.00


*MAIN GROWTH AND DEVELOPMENT VARIABLES

@     VARIABLE                          SIMULATED     MEASURED
      --------                          ---------     --------
      Anthesis day (dap)                      127          -99
      Physiological maturity day (dap)        181          -99
      Yield at harvest maturity (kg [dm]/    5994          -99
      Number at maturity (no/m2)             2648          -99
      Unit wt at maturity (g [dm]/unit)    0.2263          -99
      Number at maturity (no/unit)          378.3          -99
      Tops weight at maturity (kg [dm]/ha   13648          -99
      By-product produced (stalk) at matu    7727          -99
      Leaf area index, maximum               3.39          -99
      Harvest index at maturity             0.439          -99
      Grain N at maturity (kg/ha)              84          -99
      Tops N at maturity (kg/ha)              120          -99
      Stem N at maturity (kg/ha)               36          -99
      Grain N at maturity (%)                 1.4          -99
      Tops weight at anthesis (kg [dm]/ha    6763          -99
      Tops N at anthesis (kg/ha)              109          -99
      Leaf number per stem at maturity      20.91          -99


*ENVIRONMENTAL AND STRESS FACTORS

 |-----Development Phase------|-------------Environment--------------|---------Stress----------|
                              |--------Average-------|---Cumulative--|  (0=Min, 1=Max Stress)  |
                         Time  Temp  Temp Solar Photop         Evapo |----Water---|--Nitrogen--|
                         Span   Max   Min   Rad  [day]   Rain  Trans  Photo         Photo
                         days    øC    øC MJ/m2     hr     mm     mm  synth Growth  synth Growth
------------------------------------------------------------------------------------------------
 Emergence-End Juvenile    36  20.1   9.5  13.9  11.41   22.8   35.4  0.000  0.000  0.002  0.001
 End Juvenil-Floral Init    4  21.7   7.9  16.3  12.06   21.8    7.6  0.000  0.000  0.001  0.000
 Floral Init-End Lf Grow   57  23.0   9.8  22.0  13.01  126.6  227.4  0.069  0.115  0.077  0.031
 End Lf Grth-Beg Grn Fil   15  25.7  12.8  23.5  13.89   34.0   55.5  0.285  0.401  0.097  0.039
 Grain Filling Phase       37  27.8  16.8  21.9  14.03  275.1  136.8  0.230  0.306  0.247  0.106

                     Maize YIELD :     5994 kg/ha    [Dry weight] 

************************************************************************************************
