*PLANT N OUTPUT FILE

*DSSAT Cropping System Model Ver. 4.0.2.000               Aug 15, 2016; 15:38:12

*RUN   1        : UYMZ                    
 MODEL          : MZCER040 - Maize           
 EXPERIMENT     : UYMZ0200 MZ    late to create DSS                             
 TREATMENT  1   : UYMZ                    

@YEAR DOY   DAS   DAP   CNAD   GNAD   VNAD   GN%D   VN%D   NUPC   LNAD   SNAD   LN%D   SN%D   RN%D   SNN0C   SNN1C
 1990 199     3     0    0.0    0.0    0.0   0.00   0.00    0.0    0.0    0.0    0.0   0.00   0.00    0.00    0.00
 1990 200     4     1    0.0    0.0    0.0   0.00   0.00    0.0    0.0    0.0    0.0   0.00   0.00    0.00    0.00
 1990 201     5     2    0.0    0.0    0.0   0.00   0.00    0.0    0.0    0.0    0.0   0.00   0.00    0.00    0.00
 1990 202     6     3    0.0    0.0    0.0   0.00   0.00    0.0    0.0    0.0    0.0   0.00   0.00    0.00    0.00
 1990 203     7     4    0.0    0.0    0.0   0.00   0.00    0.0    0.0    0.0    0.0   0.00   0.00    0.00    0.00
 1990 204     8     5    0.0    0.0    0.0   0.00   0.00    0.0    0.0    0.0    0.0   0.00   0.00    0.00    0.00
 1990 205     9     6    0.0    0.0    0.0   0.00   0.00    0.0    0.0    0.0    0.0   0.00   0.00    0.00    0.00
 1990 206    10     7    0.0    0.0    0.0   0.00   0.00    0.0    0.0    0.0    0.0   0.00   0.00    0.00    0.00
 1990 207    11     8    0.0    0.0    0.0   0.00   0.00    0.0    0.0    0.0    0.0   0.00   0.00    0.00    0.00
 1990 208    12     9    0.0    0.0    0.0   0.00   0.00    0.0    0.0    0.0    0.0   0.00   0.00    0.00    0.00
 1990 209    13    10    0.0    0.0    0.0   0.00   0.00    0.0    0.0    0.0    0.0   0.00   0.00    0.00    0.00
 1990 210    14    11    0.0    0.0    0.0   0.00   0.00    0.0    0.0    0.0    0.0   0.00   0.00    0.00    0.00
 1990 211    15    12    0.0    0.0    0.0   0.00   0.00    0.0    0.0    0.0    0.0   0.00   0.00    0.00    0.00
 1990 212    16    13    0.0    0.0    0.0   0.00   0.00    0.0    0.0    0.0    0.0   0.00   0.00    0.00    0.00
 1990 213    17    14    0.0    0.0    0.0   0.00   0.00    0.0    0.0    0.0    0.0   0.00   0.00    0.00    0.00
 1990 214    18    15    0.0    0.0    0.0   0.00   0.00    0.0    0.0    0.0    0.0   0.00   0.00    0.00    0.00
 1990 215    19    16    0.0    0.0    0.0   0.00   0.00    0.0    0.0    0.0    0.0   0.00   0.00    0.00    0.00
 1990 216    20    17    0.0    0.0    0.0   0.00   0.00    0.0    0.0    0.0    0.0   0.00   0.00    0.00    0.00
 1990 217    21    18    0.0    0.0    0.0   0.00   0.00    0.0    0.0    0.0    0.0   0.00   0.00    0.00    0.00
 1990 218    22    19    0.0    0.0    0.0   0.00   0.00    0.0    0.0    0.0    0.0   0.00   0.00    0.00    0.00
 1990 219    23    20    1.2    0.0    1.2   0.00   4.40    0.0    0.6    0.6    4.4   4.40   0.00    0.00    0.00
 1990 220    24    21    1.3    0.0    1.3   0.00   4.53    0.2    0.6    0.6    4.5   4.53   1.09    0.00    0.00
 1990 221    25    22    1.3    0.0    1.3   0.00   4.51    0.2    0.6    0.6    4.5   4.51   1.12    0.00    0.00
 1990 222    26    23    1.3    0.0    1.3   0.00   4.49    0.2    0.6    0.6    4.5   4.49   1.14    0.00    0.00
 1990 223    27    24    1.2    0.0    1.2   0.00   4.46    0.2    0.6    0.6    4.5   4.46   1.16    0.00    0.00
 1990 224    28    25    1.2    0.0    1.2   0.00   4.42    0.2    0.6    0.6    4.4   4.42   1.18    0.00    0.00
 1990 225    29    26    1.2    0.0    1.2   0.00   4.39    0.2    0.6    0.6    4.4   4.39   1.18    0.00    0.00
 1990 226    30    27    1.2    0.0    1.2   0.00   4.39    0.2    0.6    0.6    4.4   4.39   1.13    0.00    0.00
 1990 227    31    28    1.2    0.0    1.2   0.00   4.35    0.2    0.6    0.6    4.3   4.35   1.21    0.00    0.01
 1990 228    32    29    1.2    0.0    1.2   0.00   4.33    0.3    0.6    0.6    4.3   4.33   1.27    0.00    0.01
 1990 229    33    30    1.2    0.0    1.2   0.00   3.81    0.4    0.7    0.5    3.8   3.81   1.24    0.00    0.01
 1990 230    34    31    1.4    0.0    1.4   0.00   3.83    0.6    0.8    0.5    3.8   3.83   1.24    0.00    0.01
 1990 231    35    32    1.5    0.0    1.5   0.00   3.70    0.8    1.0    0.5    3.7   3.70   1.19    0.00    0.01
 1990 232    36    33    1.7    0.0    1.7   0.00   3.68    1.1    1.2    0.5    3.7   3.68   1.25    0.00    0.02
 1990 233    37    34    2.0    0.0    2.0   0.00   3.81    1.5    1.5    0.5    3.8   3.81   1.23    0.00    0.02
 1990 234    38    35    2.2    0.0    2.2   0.00   3.85    1.8    1.7    0.5    3.9   3.85   1.22    0.00    0.02
 1990 235    39    36    2.4    0.0    2.4   0.00   4.05    2.3    1.9    0.6    4.0   4.05   1.35    0.00    0.03
 1990 236    40    37    2.5    0.0    2.5   0.00   4.00    2.3    2.0    0.6    4.0   4.00   1.21    0.00    0.03
 1990 237    41    38    2.7    0.0    2.7   0.00   3.61    2.5    2.2    0.5    3.6   3.61   1.16    0.00    0.04
 1990 238    42    39    3.1    0.0    3.1   0.00   3.51    3.1    2.6    0.5    3.5   3.51   1.20    0.00    0.04
 1990 239    43    40    3.6    0.0    3.6   0.00   3.94    3.7    3.1    0.6    3.9   3.94   1.14    0.00    0.05
 1990 240    44    41    3.8    0.0    3.8   0.00   4.15    4.3    3.3    0.6    4.2   4.15   1.52    0.00    0.05
 1990 241    45    42    3.8    0.0    3.8   0.00   4.06    4.3    3.3    0.6    4.1   4.06   1.42    0.00    0.05
 1990 242    46    43    3.8    0.0    3.8   0.00   3.76    4.3    3.3    0.5    3.8   3.76   1.35    0.00    0.05
 1990 243    47    44    4.2    0.0    4.2   0.00   4.09    4.4    3.7    0.6    4.1   4.09   1.09    0.00    0.06
 1990 244    48    45    4.3    0.0    4.3   0.00   4.13    4.5    3.7    0.6    4.1   4.13   1.15    0.00    0.07
 1990 245    49    46    4.3    0.0    4.3   0.00   4.12    4.5    3.7    0.6    4.1   4.12   1.17    0.00    0.08
 1990 246    50    47    4.3    0.0    4.3   0.00   3.96    4.5    3.7    0.6    4.0   3.96   1.17    0.00    0.08
 1990 247    51    48    4.4    0.0    4.4   0.00   3.91    4.6    3.9    0.5    3.9   3.91   1.07    0.00    0.08
 1990 248    52    49    4.7    0.0    4.7   0.00   4.03    4.8    4.1    0.6    4.0   4.03   1.07    0.00    0.09
 1990 249    53    50    4.7    0.0    4.7   0.00   3.99    4.9    4.2    0.6    4.0   3.99   1.07    0.00    0.10
 1990 250    54    51    4.8    0.0    4.8   0.00   3.97    5.0    4.3    0.6    4.0   3.97   1.07    0.00    0.11
 1990 251    55    52    4.9    0.0    4.9   0.00   3.98    5.1    4.4    0.6    4.0   3.98   1.07    0.00    0.11
 1990 252    56    53    5.0    0.0    5.0   0.00   3.54    5.2    4.5    0.5    3.5   3.54   1.09    0.00    0.12
 1990 253    57    54    5.7    0.0    5.7   0.00   3.53    5.9    5.2    0.5    3.5   3.53   1.09    0.00    0.13
 1990 254    58    55    6.4    0.0    6.4   0.00   3.63    6.6    5.9    0.5    3.6   3.63   1.09    0.00    0.13
 1990 255    59    56    7.0    0.0    7.0   0.00   3.62    7.4    6.5    0.5    3.6   3.62   1.13    0.00    0.14
 1990 256    60    57    7.7    0.0    7.7   0.00   3.72    8.1    7.2    0.5    3.7   3.72   1.16    0.00    0.15
 1990 257    61    58    8.2    0.0    8.2   0.00   3.62    8.7    7.7    0.5    3.6   3.62   1.16    0.00    0.16
 1990 258    62    59    9.0    0.0    9.0   0.00   3.51    9.6    8.6    0.5    3.5   3.51   1.15    0.00    0.16
 1990 259    63    60   10.2    0.0   10.2   0.00   3.64   10.9    9.7    0.5    3.6   3.64   1.15    0.00    0.17
 1990 260    64    61   11.0    0.0   11.0   0.00   3.68   11.7   10.5    0.5    3.7   3.68   1.11    0.00    0.18
 1990 261    65    62   11.7    0.0   11.7   0.00   3.66   12.4   11.2    0.5    3.7   3.66   1.10    0.00    0.19
 1990 262    66    63   12.5    0.0   12.5   0.00   3.67   13.5   12.0    0.5    3.7   3.67   1.17    0.00    0.20
 1990 263    67    64   13.3    0.0   13.3   0.00   3.90   14.3   12.7    0.5    3.9   3.90   1.14    0.00    0.21
 1990 264    68    65   13.3    0.0   13.3   0.00   3.66   14.3   12.7    0.5    3.7   3.66   1.12    0.00    0.21
 1990 265    69    66   13.8    0.0   13.8   0.00   3.54   15.7   13.3    0.5    3.5   3.54   1.25    0.00    0.22
 1990 266    70    67   15.5    0.0   15.5   0.00   3.89   17.9   15.0    0.5    3.9   3.89   1.34    0.00    0.24
 1990 267    71    68   15.3    0.0   15.3   0.00   3.74   18.3   14.8    0.5    3.7   3.74   1.38    0.00    0.26
 1990 268    72    69   15.4    0.0   15.4   0.00   3.64   18.7   14.9    0.5    3.6   3.64   1.32    0.00    0.28
 1990 269    73    70   16.1    0.0   16.1   0.00   3.57   19.6   15.6    0.5    3.6   3.57   1.22    0.00    0.30
 1990 270    74    71   17.6    0.0   17.6   0.00   3.54   21.5   17.1    0.5    3.5   3.54   1.18    0.00    0.32
 1990 271    75    72   18.9    0.0   18.9   0.00   3.51   22.4   18.4    0.5    3.5   3.51   1.07    0.00    0.35
 1990 272    76    73   20.4    0.0   20.4   0.00   3.48   24.9   19.9    0.5    3.5   3.48   1.18    0.00    0.37
 1990 273    77    74   22.0    0.0   22.0   0.00   3.45   27.2   21.4    0.6    3.5   3.45   1.18    0.00    0.40
 1990 274    78    75   24.5    0.0   24.5   0.00   3.42   30.3   23.8    0.7    3.4   3.42   1.18    0.00    0.43
 1990 275    79    76   26.9    0.0   26.9   0.00   3.38   33.8   26.1    0.8    3.4   3.38   1.20    0.00    0.47
 1990 276    80    77   30.0    0.0   30.0   0.00   3.35   37.4   28.9    1.1    3.3   3.35   1.17    0.00    0.51
 1990 277    81    78   34.1    0.0   34.1   0.00   3.30   41.5   32.5    1.6    3.3   3.30   1.12    0.00    0.55
 1990 278    82    79   36.4    0.0   36.4   0.00   3.26   43.5   34.5    1.9    3.3   3.26   1.07    0.00    0.60
 1990 279    83    80   39.7    0.0   39.7   0.00   3.23   46.9   37.3    2.4    3.2   3.23   1.07    0.00    0.64
 1990 280    84    81   42.2    0.0   42.2   0.00   3.19   49.3   39.3    2.9    3.2   3.19   1.07    0.00    0.68
 1990 281    85    82   44.5    0.0   44.5   0.00   3.17   52.5   41.1    3.4    3.2   3.17   1.12    0.00    0.72
 1990 282    86    83   46.9    0.0   46.9   0.00   3.14   57.2   42.9    3.9    3.1   3.14   1.22    0.00    0.77
 1990 283    87    84   49.6    0.0   49.6   0.00   3.12   60.8   45.0    4.6    3.1   3.12   1.18    0.00    0.82
 1990 284    88    85   52.8    0.0   52.8   0.00   3.09   63.0   47.3    5.5    3.1   3.09   1.08    0.00    0.88
 1990 285    89    86   55.1    0.0   55.1   0.00   3.07   68.7   48.9    6.2    3.1   3.07   1.21    0.00    0.94
 1990 286    90    87   57.3    0.0   57.3   0.00   3.05   72.7   50.4    6.9    3.0   3.05   1.20    0.00    1.01
 1990 287    91    88   60.3    0.0   60.3   0.00   3.02   77.0   52.4    7.9    3.0   3.02   1.17    0.00    1.10
 1990 288    92    89   62.5    0.0   62.5   0.00   3.00   81.2   53.8    8.7    3.0   3.00   1.18    0.00    1.19
 1990 289    93    90   64.4    0.0   64.4   0.00   2.99   85.2   55.0    9.4    3.0   2.99   1.18    0.00    1.29
 1990 290    94    91   66.9    0.0   66.9   0.00   2.97   87.3   56.6   10.3    3.0   2.97   1.11    0.00    1.40
 1990 291    95    92   71.1    0.0   71.1   0.00   2.94   93.3   59.1   12.1    2.9   2.94   1.13    0.00    1.50
 1990 292    96    93   75.6    0.0   75.6   0.00   2.91   97.6   61.6   14.0    2.9   2.91   1.10    0.00    1.62
 1990 293    97    94   80.1    0.0   80.1   0.00   2.88  102.5   64.0   16.1    2.9   2.88   1.09    0.00    1.73
 1990 294    98    95   84.6    0.0   84.6   0.00   2.84  108.6   66.3   18.3    2.8   2.84   1.12    0.00    1.85
 1990 295    99    96   88.3    0.0   88.3   0.00   2.79  113.9   67.9   20.5    2.8   2.79   1.12    0.00    1.98
 1990 296   100    97   92.2    0.0   92.2   0.00   2.73  118.2   69.4   22.8    2.7   2.73   1.10    0.00    2.11
 1990 297   101    98   95.9    0.0   95.9   0.00   2.57  121.7   72.6   23.3    2.6   2.57   1.09    0.00    2.24
 1990 298   102    99   98.8    0.0   98.8   0.00   2.49  124.5   73.5   25.3    2.5   2.49   1.08    0.00    2.38
 1990 299   103   100  101.2    0.0  101.2   0.00   2.32  126.9   72.5   28.6    2.3   2.32   1.07    0.00    2.51
 1990 300   104   101  103.2    0.0  103.2   0.00   2.19  129.0   71.5   31.6    2.2   2.19   1.07    0.00    2.65
 1990 301   105   102  104.9    0.0  104.9   0.00   2.16  130.7   71.6   33.3    2.2   2.16   1.07    0.00    2.78
 1990 302   106   103  106.4    0.0  106.4   0.00   2.10  132.2   71.1   35.3    2.1   2.10   1.07    0.00    2.91
 1990 303   107   104  107.6    0.0  107.6   0.00   1.99  133.5   69.5   38.1    2.0   1.99   1.04    0.00    3.05
 1990 304   108   105  108.7    0.0  108.7   0.00   1.93  134.7   68.5   40.2    1.9   1.93   1.00    0.00    3.18
 1990 305   109   106  109.6    0.0  109.6   0.00   1.86  135.7   67.5   42.1    1.9   1.86   0.97    0.00    3.32
 1990 306   110   107  110.4    0.0  110.4   0.00   1.80  136.6   66.4   44.0    1.8   1.80   0.96    0.00    3.45
 1990 307   111   108  111.2    0.0  111.2   0.00   1.75  137.4   65.6   45.5    1.8   1.75   0.96    0.00    3.59
 1990 308   112   109  112.0    0.0  112.0   0.00   1.72  138.4   65.2   46.8    1.7   1.72   0.93    0.00    3.72
 1990 309   113   110  113.1    0.0  113.1   0.00   1.72  139.7   65.4   47.8    1.7   1.72   0.87    0.00    3.86
 1990 310   114   111  114.4    0.0  114.4   0.00   1.70  141.2   65.3   49.1    1.7   1.70   0.86    0.00    4.00
 1990 311   115   112  115.5    0.0  115.5   0.00   1.67  142.6   64.9   50.6    1.7   1.67   0.84    0.00    4.13
 1990 312   116   113  116.5    0.0  116.5   0.00   1.65  143.7   64.8   51.7    1.7   1.65   0.84    0.00    4.27
 1990 313   117   114  117.5    0.0  117.5   0.00   1.62  144.9   64.4   53.1    1.6   1.62   0.84    0.00    4.41
 1990 314   118   115  118.4    0.0  118.4   0.00   1.59  145.9   63.9   54.5    1.6   1.59   0.82    0.00    4.55
 1990 315   119   116  119.2    0.0  119.2   0.00   1.55  146.9   63.3   55.9    1.5   1.55   0.81    0.00    4.70
 1990 316   120   117  120.0    0.0  120.0   0.00   1.52  147.9   62.9   57.2    1.5   1.52   0.81    0.00    4.84
 1990 317   121   118  120.8    0.0  120.8   0.00   1.65  148.8   67.6   53.2    1.7   1.65   0.80    0.00    4.98
 1990 318   122   119  121.6    0.0  121.6   0.00   1.65  149.7   66.9   54.6    1.7   1.65   0.81    0.00    5.13
 1990 319   123   120  122.3    0.0  122.3   0.00   1.67  150.7   66.6   55.7    1.7   1.67   0.81    0.00    5.27
 1990 320   124   121  123.0    0.0  123.0   0.00   1.67  151.6   66.1   56.8    1.7   1.67   0.80    0.00    5.42
 1990 321   125   122  123.5    0.0  123.5   0.00   1.68  152.2   65.5   57.9    1.7   1.68   0.78    0.00    5.56
 1990 322   126   123  124.1    0.0  124.1   0.00   1.68  153.1   64.7   59.4    1.7   1.68   0.76    0.00    5.71
 1990 323   127   124  124.7    0.0  124.7   0.00   1.68  154.1   63.6   61.1    1.7   1.68   0.76    0.00    5.86
 1990 324   128   125  125.4    0.0  125.4   0.00   1.69  155.1   62.9   62.5    1.7   1.69   0.77    0.00    6.01
 1990 325   129   126  126.0    0.0  126.0   0.00   1.69  156.2   61.9   64.1    1.7   1.69   0.76    0.00    6.16
 1990 326   130   127  126.7    0.0  126.7   0.00   1.70  157.4   61.0   65.7    1.7   1.70   0.75    0.00    6.31
 1990 327   131   128  127.2    0.0  127.2   0.00   1.71  158.6   60.0   67.2    1.7   1.71   0.74    0.00    6.47
 1990 328   132   129  127.7    0.0  127.7   0.00   1.71  159.7   58.9   68.9    1.7   1.71   0.74    0.00    6.63
 1990 329   133   130  128.3    4.6  123.7   1.64   1.66  160.8   57.0   66.7    1.7   1.66   0.75    0.00    6.79
 1990 330   134   131  128.8    8.2  120.6   1.61   1.62  161.8   55.6   65.0    1.6   1.62   0.75    0.00    6.96
 1990 331   135   132  129.3   10.1  119.1   1.60   1.60  162.7   54.9   64.2    1.6   1.60   0.75    0.00    7.13
 1990 332   136   133  129.9   12.5  117.4   1.60   1.57  163.7   54.1   63.3    1.6   1.57   0.74    0.00    7.29
 1990 333   137   134  130.3   15.8  114.5   1.59   1.53  164.6   52.8   61.8    1.5   1.53   0.74    0.00    7.47
 1990 334   138   135  130.8   19.5  111.3   1.58   1.49  165.5   51.3   60.0    1.5   1.49   0.75    0.00    7.64
 1990 335   139   136  131.3   23.1  108.2   1.57   1.45  166.4   49.9   58.4    1.5   1.45   0.75    0.00    7.82
 1990 336   140   137  131.8   26.0  105.8   1.56   1.42  167.2   48.9   56.9    1.4   1.42   0.76    0.00    7.99
 1990 337   141   138  132.3   28.3  104.0   1.55   1.39  168.0   47.9   56.1    1.4   1.39   0.76    0.00    8.17
 1990 338   142   139  132.7   31.3  101.4   1.54   1.36  168.7   46.7   54.7    1.4   1.36   0.76    0.00    8.35
 1990 339   143   140  133.2   35.4   97.8   1.53   1.31  169.6   45.1   52.7    1.3   1.31   0.76    0.00    8.54
 1990 340   144   141  133.7   39.1   94.6   1.52   1.27  170.4   43.6   51.0    1.3   1.27   0.77    0.00    8.72
 1990 341   145   142  134.1   42.4   91.7   1.51   1.23  171.0   42.3   49.5    1.2   1.23   0.77    0.00    8.91
 1990 342   146   143  134.5   44.9   89.6   1.50   1.20  171.7   41.3   48.3    1.2   1.20   0.77    0.00    9.09
 1990 343   147   144  135.0   47.0   88.0   1.49   1.18  172.5   40.6   47.5    1.2   1.18   0.78    0.00    9.28
 1990 344   148   145  135.3   49.2   86.0   1.49   1.15  172.9   39.7   46.3    1.2   1.15   0.78    0.00    9.47
 1990 345   149   146  135.6   52.1   83.4   1.48   1.12  173.3   38.5   45.0    1.1   1.12   0.78    0.00    9.66
 1990 346   150   147  135.9   53.9   82.1   1.47   1.10  173.9   37.8   44.2    1.1   1.10   0.78    0.00    9.85
 1990 347   151   148  136.4   56.5   79.9   1.46   1.07  174.5   36.8   43.1    1.1   1.07   0.79    0.00   10.04
 1990 348   152   149  136.8   58.1   78.7   1.45   1.05  175.3   36.3   42.4    1.1   1.05   0.78    0.00   10.23
 1990 349   153   150  137.3   60.6   76.7   1.44   1.03  176.1   35.4   41.4    1.0   1.03   0.78    0.00   10.42
 1990 350   154   151  137.9   63.9   74.0   1.43   0.99  176.9   34.1   39.9    1.0   0.99   0.78    0.00   10.62
 1990 351   155   152  138.4   67.2   71.2   1.41   0.96  177.7   33.0   38.2    1.0   0.96   0.79    0.00   10.81
 1990 352   156   153  138.9   70.1   68.8   1.40   0.92  178.4   31.7   37.1    0.9   0.92   0.79    0.00   11.01
 1990 353   157   154  139.3   72.7   66.7   1.39   0.89  179.0   30.7   35.9    0.9   0.89   0.78    0.00   11.21
 1990 354   158   155  139.9   75.2   64.7   1.38   0.87  179.9   29.8   34.9    0.9   0.87   0.78    0.00   11.41
 1990 355   159   156  140.6   78.2   62.4   1.36   0.84  180.8   28.7   33.6    0.8   0.84   0.79    0.00   11.61
 1990 356   160   157  141.1   81.1   60.0   1.35   0.82  181.5   28.2   31.9    0.8   0.82   0.80    0.00   11.81
 1990 357   161   158  141.5   83.9   57.6   1.33   0.79  182.1   27.0   30.6    0.8   0.79   0.80    0.00   12.01
 1990 358   162   159  141.9   86.0   55.9   1.32   0.77  182.7   26.4   29.5    0.8   0.77   0.81    0.00   12.22
 1990 359   163   160  142.4   88.0   54.4   1.31   0.74  183.3   25.4   29.0    0.7   0.74   0.81    0.00   12.42
 1990 360   164   161  143.1   90.6   52.5   1.29   0.71  184.3   24.3   28.2    0.7   0.71   0.82    0.00   12.62
 1990 361   165   162  143.7   93.1   50.7   1.28   0.68  185.2   23.3   27.3    0.7   0.68   0.82    0.00   12.83
 1990 362   166   163  144.5   94.4   50.1   1.27   0.67  186.3   23.1   27.0    0.7   0.67   0.82    0.00   13.04
 1990 363   167   164  145.2   95.6   49.6   1.26   0.66  187.2   22.9   26.7    0.7   0.66   0.82    0.00   13.25
 1990 364   168   165  145.8   97.3   48.5   1.25   0.65  188.0   22.4   26.2    0.7   0.65   0.83    0.00   13.45
 1990 365   169   166  146.4   99.5   47.0   1.23   0.63  188.9   21.6   25.3    0.6   0.63   0.83    0.00   13.67
 1991 001   170   167  147.0  101.6   45.4   1.22   0.61  189.7   21.1   24.3    0.6   0.61   0.84    0.00   13.88
 1991 002   171   168  147.7  103.7   43.9   1.20   0.60  190.5   20.6   23.3    0.6   0.60   0.85    0.00   14.09
 1991 003   172   169  148.3  105.7   42.6   1.19   0.59  191.4   20.1   22.4    0.6   0.59   0.86    0.00   14.30
 1991 004   173   170  149.0  107.4   41.5   1.18   0.57  192.2   19.6   21.9    0.6   0.57   0.87    0.00   14.52
 1991 005   174   171  149.6  109.1   40.5   1.16   0.56  193.1   19.2   21.3    0.6   0.56   0.87    0.00   14.73
 1991 006   175   172  150.4  110.8   39.6   1.15   0.55  193.9   18.9   20.7    0.5   0.55   0.88    0.00   14.95
 1991 007   176   173  150.4  110.8   39.6   1.15   0.55  194.7   18.9   20.7    0.5   0.55   0.88    0.00   14.95
 1991 008   177   174  150.4  110.8   39.6   1.15   0.55  195.5   18.9   20.7    0.5   0.55   0.88    0.00   14.95
 1991 009   178   175  150.4  110.8   39.6   1.15   0.55  196.3   18.9   20.7    0.5   0.55   0.88    0.00   14.95

*DSSAT Cropping System Model Ver. 4.0.2.000               Aug 15, 2016; 15:38:12

*RUN   2        : UYMZ                    
 MODEL          : MZCER040 - Maize           
 EXPERIMENT     : UYMZ0200 MZ    late to create DSS                             
 TREATMENT  1   : UYMZ                    

@YEAR DOY   DAS   DAP   CNAD   GNAD   VNAD   GN%D   VN%D   NUPC   LNAD   SNAD   LN%D   SN%D   RN%D   SNN0C   SNN1C
 1991 199     3     0    0.0    0.0    0.0   0.00   0.00    0.0    0.0    0.0    0.0   0.00   0.00    0.00    0.00
 1991 200     4     1    0.0    0.0    0.0   0.00   0.00    0.0    0.0    0.0    0.0   0.00   0.00    0.00    0.00
 1991 201     5     2    0.0    0.0    0.0   0.00   0.00    0.0    0.0    0.0    0.0   0.00   0.00    0.00    0.00
 1991 202     6     3    0.0    0.0    0.0   0.00   0.00    0.0    0.0    0.0    0.0   0.00   0.00    0.00    0.00
 1991 203     7     4    0.0    0.0    0.0   0.00   0.00    0.0    0.0    0.0    0.0   0.00   0.00    0.00    0.00
 1991 204     8     5    0.0    0.0    0.0   0.00   0.00    0.0    0.0    0.0    0.0   0.00   0.00    0.00    0.00
 1991 205     9     6    0.0    0.0    0.0   0.00   0.00    0.0    0.0    0.0    0.0   0.00   0.00    0.00    0.00
 1991 206    10     7    0.0    0.0    0.0   0.00   0.00    0.0    0.0    0.0    0.0   0.00   0.00    0.00    0.00
 1991 207    11     8    0.0    0.0    0.0   0.00   0.00    0.0    0.0    0.0    0.0   0.00   0.00    0.00    0.00
 1991 208    12     9    0.0    0.0    0.0   0.00   0.00    0.0    0.0    0.0    0.0   0.00   0.00    0.00    0.00
 1991 209    13    10    0.0    0.0    0.0   0.00   0.00    0.0    0.0    0.0    0.0   0.00   0.00    0.00    0.00
 1991 210    14    11    1.2    0.0    1.2   0.00   4.40    0.0    0.6    0.6    4.4   4.40   0.00    0.00    0.00
 1991 211    15    12    1.3    0.0    1.3   0.00   4.54    0.2    0.6    0.6    4.5   4.54   1.08    0.00    0.00
 1991 212    16    13    1.3    0.0    1.3   0.00   4.53    0.2    0.6    0.6    4.5   4.53   1.11    0.00    0.00
 1991 213    17    14    1.3    0.0    1.3   0.00   4.53    0.2    0.6    0.6    4.5   4.53   1.12    0.00    0.00
 1991 214    18    15    1.3    0.0    1.3   0.00   4.53    0.2    0.6    0.6    4.5   4.53   1.13    0.00    0.00
 1991 215    19    16    1.3    0.0    1.3   0.00   4.53    0.2    0.6    0.6    4.5   4.53   1.14    0.00    0.00
 1991 216    20    17    1.3    0.0    1.3   0.00   4.53    0.2    0.6    0.6    4.5   4.53   1.14    0.00    0.00
 1991 217    21    18    1.3    0.0    1.3   0.00   4.53    0.2    0.6    0.6    4.5   4.53   1.14    0.00    0.00
 1991 218    22    19    1.3    0.0    1.3   0.00   4.53    0.2    0.6    0.6    4.5   4.53   1.15    0.00    0.00
 1991 219    23    20    1.3    0.0    1.3   0.00   4.53    0.2    0.6    0.6    4.5   4.53   1.15    0.00    0.00
 1991 220    24    21    1.3    0.0    1.3   0.00   4.53    0.2    0.6    0.6    4.5   4.53   1.15    0.00    0.00
 1991 221    25    22    1.3    0.0    1.3   0.00   4.53    0.2    0.6    0.6    4.5   4.53   1.15    0.00    0.00
 1991 222    26    23    1.3    0.0    1.3   0.00   4.53    0.2    0.6    0.6    4.5   4.53   1.15    0.00    0.00
 1991 223    27    24    1.3    0.0    1.3   0.00   4.53    0.2    0.6    0.6    4.5   4.53   1.14    0.00    0.00
 1991 224    28    25    1.3    0.0    1.3   0.00   4.53    0.2    0.6    0.6    4.5   4.53   1.12    0.00    0.00
 1991 225    29    26    1.3    0.0    1.3   0.00   4.53    0.2    0.6    0.6    4.5   4.53   1.10    0.00    0.00
 1991 226    30    27    1.3    0.0    1.3   0.00   4.53    0.2    0.6    0.6    4.5   4.53   1.05    0.00    0.00
 1991 227    31    28    1.3    0.0    1.3   0.00   4.53    0.2    0.6    0.6    4.5   4.53   1.00    0.00    0.00
 1991 228    32    29    1.3    0.0    1.3   0.00   4.53    0.2    0.6    0.6    4.5   4.53   0.92    0.00    0.00
 1991 229    33    30    1.2    0.0    1.2   0.00   4.30    0.3    0.6    0.6    4.3   4.30   1.26    0.00    0.00
 1991 230    34    31    1.2    0.0    1.2   0.00   3.56    0.3    0.7    0.5    3.6   3.56   1.22    0.00    0.00
 1991 231    35    32    1.5    0.0    1.5   0.00   3.56    0.5    1.0    0.5    3.6   3.56   1.19    0.00    0.00
 1991 232    36    33    1.8    0.0    1.8   0.00   3.55    0.8    1.3    0.5    3.6   3.55   1.14    0.00    0.01
 1991 233    37    34    2.1    0.0    2.1   0.00   3.54    1.3    1.6    0.5    3.5   3.54   1.29    0.00    0.01
 1991 234    38    35    2.5    0.0    2.5   0.00   3.46    1.8    2.0    0.5    3.5   3.46   1.26    0.00    0.01
 1991 235    39    36    3.0    0.0    3.0   0.00   3.61    2.5    2.5    0.5    3.6   3.61   1.34    0.00    0.01
 1991 236    40    37    3.5    0.0    3.5   0.00   3.74    3.2    3.0    0.5    3.7   3.74   1.32    0.00    0.02
 1991 237    41    38    3.9    0.0    3.9   0.00   3.59    3.7    3.4    0.5    3.6   3.59   1.24    0.00    0.02
 1991 238    42    39    4.4    0.0    4.4   0.00   3.80    4.2    3.9    0.5    3.8   3.80   1.12    0.00    0.03
 1991 239    43    40    4.8    0.0    4.8   0.00   3.85    4.6    4.3    0.5    3.8   3.85   1.13    0.00    0.03
 1991 240    44    41    5.1    0.0    5.1   0.00   3.65    5.2    4.6    0.5    3.7   3.65   1.20    0.00    0.04
 1991 241    45    42    5.7    0.0    5.7   0.00   3.56    5.9    5.2    0.5    3.6   3.56   1.18    0.00    0.04
 1991 242    46    43    6.5    0.0    6.5   0.00   3.49    6.6    6.0    0.5    3.5   3.49   1.11    0.00    0.05
 1991 243    47    44    7.4    0.0    7.4   0.00   3.76    7.7    6.9    0.5    3.8   3.76   1.13    0.00    0.06
 1991 244    48    45    7.9    0.0    7.9   0.00   3.82    8.5    7.4    0.5    3.8   3.82   1.24    0.00    0.06
 1991 245    49    46    8.3    0.0    8.3   0.00   3.72    8.8    7.8    0.5    3.7   3.72   1.12    0.00    0.07
 1991 246    50    47    8.9    0.0    8.9   0.00   3.53    9.6    8.4    0.5    3.5   3.53   1.18    0.00    0.08
 1991 247    51    48    9.9    0.0    9.9   0.00   3.46   11.4    9.4    0.5    3.5   3.46   1.28    0.00    0.09
 1991 248    52    49   11.2    0.0   11.2   0.00   3.40   13.2   10.7    0.5    3.4   3.40   1.25    0.00    0.10
 1991 249    53    50   12.8    0.0   12.8   0.00   3.70   14.6   12.3    0.5    3.7   3.70   1.12    0.00    0.12
 1991 250    54    51   13.5    0.0   13.5   0.00   3.61   15.3   13.0    0.5    3.6   3.61   1.10    0.00    0.14
 1991 251    55    52   14.3    0.0   14.3   0.00   3.59   16.3   13.8    0.5    3.6   3.59   1.12    0.00    0.15
 1991 252    56    53   16.2    0.0   16.2   0.00   3.78   19.2   15.7    0.5    3.8   3.78   1.24    0.00    0.17
 1991 253    57    54   17.2    0.0   17.2   0.00   3.68   21.1   16.7    0.5    3.7   3.68   1.24    0.00    0.19
 1991 254    58    55   18.5    0.0   18.5   0.00   3.57   23.3   18.0    0.5    3.6   3.57   1.24    0.00    0.21
 1991 255    59    56   20.9    0.0   20.9   0.00   3.53   26.4   20.3    0.5    3.5   3.53   1.21    0.00    0.24
 1991 256    60    57   23.7    0.0   23.7   0.00   3.48   29.3   23.1    0.6    3.5   3.48   1.15    0.00    0.28
 1991 257    61    58   24.9    0.0   24.9   0.00   3.45   30.4   24.2    0.7    3.5   3.45   1.10    0.00    0.31
 1991 258    62    59   25.8    0.0   25.8   0.00   3.51   31.6   25.1    0.7    3.5   3.51   1.13    0.00    0.35
 1991 259    63    60   27.4    0.0   27.4   0.00   3.41   33.7   26.6    0.8    3.4   3.41   1.13    0.00    0.38
 1991 260    64    61   29.7    0.0   29.7   0.00   3.38   35.6   28.7    1.0    3.4   3.38   1.07    0.00    0.42
 1991 261    65    62   31.6    0.0   31.6   0.00   3.35   39.6   30.5    1.1    3.4   3.35   1.21    0.00    0.45
 1991 262    66    63   33.0    0.0   33.0   0.00   3.35   42.7   31.7    1.3    3.4   3.35   1.25    0.00    0.50
 1991 263    67    64   34.8    0.0   34.8   0.00   3.31   44.2   33.3    1.5    3.3   3.31   1.14    0.00    0.55
 1991 264    68    65   38.1    0.0   38.1   0.00   3.28   47.4   36.1    2.0    3.3   3.28   1.10    0.00    0.61
 1991 265    69    66   39.8    0.0   39.8   0.00   3.23   50.9   37.5    2.3    3.2   3.23   1.15    0.00    0.66
 1991 266    70    67   40.9    0.0   40.9   0.00   3.23   53.5   38.4    2.4    3.2   3.23   1.18    0.00    0.72
 1991 267    71    68   41.8    0.0   41.8   0.00   3.19   55.5   39.2    2.6    3.2   3.19   1.14    0.00    0.79
 1991 268    72    69   42.8    0.0   42.8   0.00   3.10   57.2   39.9    3.0    3.1   3.10   1.09    0.00    0.86
 1991 269    73    70   43.7    0.0   43.7   0.00   2.99   58.5   40.3    3.3    3.0   2.99   1.04    0.00    0.94
 1991 270    74    71   48.1    0.0   48.1   0.00   3.00   64.1   43.8    4.3    3.0   3.00   1.07    0.00    1.02
 1991 271    75    72   51.4    0.0   51.4   0.00   3.11   69.9   46.6    4.8    3.1   3.11   1.14    0.00    1.11
 1991 272    76    73   53.4    0.0   53.4   0.00   3.13   73.6   48.1    5.3    3.1   3.13   1.16    0.00    1.21
 1991 273    77    74   55.4    0.0   55.4   0.00   3.10   76.7   49.6    5.9    3.1   3.10   1.14    0.00    1.31
 1991 274    78    75   57.1    0.0   57.1   0.00   3.09   79.7   50.8    6.4    3.1   3.09   1.14    0.00    1.43
 1991 275    79    76   58.6    0.0   58.6   0.00   3.08   82.8   51.8    6.8    3.1   3.08   1.14    0.00    1.54
 1991 276    80    77   60.0    0.0   60.0   0.00   3.05   85.7   52.7    7.3    3.1   3.05   1.13    0.00    1.67
 1991 277    81    78   61.7    0.0   61.7   0.00   3.02   88.1   53.7    8.0    3.0   3.02   1.11    0.00    1.80
 1991 278    82    79   64.0    0.0   64.0   0.00   3.05   89.8   55.5    8.6    3.1   3.05   1.08    0.00    1.94
 1991 279    83    80   64.8    0.0   64.8   0.00   3.05   91.6   56.0    8.8    3.1   3.05   1.11    0.00    2.08
 1991 280    84    81   65.6    0.0   65.6   0.00   3.05   93.1   56.5    9.1    3.0   3.05   1.12    0.00    2.21
 1991 281    85    82   66.0    0.0   66.0   0.00   3.00   94.3   56.6    9.4    3.0   3.00   1.10    0.00    2.36
 1991 282    86    83   66.6    0.0   66.6   0.00   2.92   95.4   56.6   10.0    2.9   2.92   1.07    0.00    2.50
 1991 283    87    84   67.3    0.0   67.3   0.00   2.82   96.4   56.5   10.7    2.8   2.82   1.03    0.00    2.65
 1991 284    88    85   67.9    0.0   67.9   0.00   2.69   97.4   56.3   11.6    2.7   2.69   1.00    0.00    2.80
 1991 285    89    86   68.6    0.0   68.6   0.00   2.52   98.4   55.7   12.9    2.5   2.52   0.98    0.00    2.96
 1991 286    90    87   69.3    0.0   69.3   0.00   2.29   99.3   54.5   14.8    2.3   2.29   0.97    0.00    3.11
 1991 287    91    88   70.1    0.0   70.1   0.00   2.18  100.2   54.0   16.1    2.2   2.18   0.98    0.00    3.26
 1991 288    92    89   70.8    0.0   70.8   0.00   2.12  101.0   53.9   17.0    2.1   2.12   0.98    0.00    3.42
 1991 289    93    90   71.1    0.0   71.1   0.00   2.05  101.3   53.4   17.7    2.1   2.05   0.99    0.00    3.57
 1991 290    94    91   71.4    0.0   71.4   0.00   2.02  101.6   53.2   18.1    2.0   2.02   0.97    0.00    3.73
 1991 291    95    92   71.8    0.0   71.8   0.00   1.86  102.2   53.3   18.5    1.9   1.86   0.95    0.00    3.88
 1991 292    96    93   72.4    0.0   72.4   0.00   1.75  102.9   52.7   19.7    1.7   1.75   0.93    0.00    4.04
 1991 293    97    94   73.0    0.0   73.0   0.00   1.66  103.5   51.9   21.1    1.7   1.66   0.91    0.00    4.20
 1991 294    98    95   73.6    0.0   73.6   0.00   1.57  104.1   50.9   22.7    1.6   1.57   0.90    0.00    4.35
 1991 295    99    96   74.2    0.0   74.2   0.00   1.48  104.8   49.7   24.5    1.5   1.48   0.90    0.00    4.51
 1991 296   100    97   74.8    0.0   74.8   0.00   1.46  105.6   49.5   25.3    1.5   1.46   0.91    0.00    4.67
 1991 297   101    98   75.4    0.0   75.4   0.00   1.44  106.2   49.5   26.0    1.4   1.44   0.91    0.00    4.83
 1991 298   102    99   76.1    0.0   76.1   0.00   1.42  107.0   49.3   26.8    1.4   1.42   0.91    0.00    4.98
 1991 299   103   100   76.7    0.0   76.7   0.00   1.38  107.6   48.7   27.9    1.4   1.38   0.89    0.00    5.14
 1991 300   104   101   77.2    0.0   77.2   0.00   1.35  108.2   48.3   28.9    1.4   1.35   0.89    0.00    5.30
 1991 301   105   102   78.0    0.0   78.0   0.00   1.34  109.1   48.2   29.8    1.3   1.34   0.90    0.00    5.46
 1991 302   106   103   78.9    0.0   78.9   0.00   1.33  110.1   48.3   30.6    1.3   1.33   0.90    0.00    5.62
 1991 303   107   104   79.9    0.0   79.9   0.00   1.32  111.2   48.3   31.5    1.3   1.32   0.91    0.00    5.78
 1991 304   108   105   80.9    0.0   80.9   0.00   1.31  112.3   48.4   32.5    1.3   1.31   0.91    0.00    5.94
 1991 305   109   106   81.9    0.0   81.9   0.00   1.30  113.4   48.4   33.5    1.3   1.30   0.90    0.00    6.10
 1991 306   110   107   83.3    0.0   83.3   0.00   1.29  114.9   48.6   34.7    1.3   1.29   0.87    0.00    6.26
 1991 307   111   108   84.5    0.0   84.5   0.00   1.28  116.3   48.7   35.8    1.3   1.28   0.86    0.00    6.42
 1991 308   112   109   85.6    0.0   85.6   0.00   1.27  117.6   48.8   36.8    1.3   1.27   0.83    0.00    6.58
 1991 309   113   110   86.6    0.0   86.6   0.00   1.25  118.8   48.7   37.9    1.3   1.25   0.82    0.00    6.74
 1991 310   114   111   87.6    0.0   87.6   0.00   1.24  119.9   48.6   39.0    1.2   1.24   0.83    0.00    6.91
 1991 311   115   112   88.5    0.0   88.5   0.00   1.23  120.9   48.5   39.9    1.2   1.23   0.81    0.00    7.07
 1991 312   116   113   89.4    0.0   89.4   0.00   1.22  122.1   48.6   40.8    1.2   1.22   0.80    0.00    7.24
 1991 313   117   114   90.3    0.0   90.3   0.00   1.21  123.1   48.7   41.6    1.2   1.21   0.78    0.00    7.40
 1991 314   118   115   91.0    0.0   91.0   0.00   1.32  124.0   52.6   38.4    1.3   1.32   0.77    0.00    7.57
 1991 315   119   116   91.7    0.0   91.7   0.00   1.34  124.9   52.6   39.1    1.3   1.34   0.76    0.00    7.73
 1991 316   120   117   92.4    0.0   92.4   0.00   1.35  125.7   52.6   39.8    1.3   1.35   0.73    0.00    7.90
 1991 317   121   118   93.0    0.0   93.0   0.00   1.36  126.5   52.4   40.5    1.4   1.36   0.73    0.00    8.07
 1991 318   122   119   93.5    0.0   93.5   0.00   1.37  127.2   52.2   41.3    1.4   1.37   0.73    0.00    8.24
 1991 319   123   120   94.0    0.0   94.0   0.00   1.38  127.9   51.8   42.2    1.4   1.38   0.74    0.00    8.41
 1991 320   124   121   94.5    0.0   94.5   0.00   1.39  128.6   51.4   43.1    1.4   1.39   0.73    0.00    8.58
 1991 321   125   122   95.0    0.0   95.0   0.00   1.40  129.2   51.0   44.0    1.4   1.40   0.72    0.00    8.76
 1991 322   126   123   95.7    0.0   95.7   0.00   1.41  130.2   50.6   45.1    1.4   1.41   0.71    0.00    8.93
 1991 323   127   124   96.5    0.0   96.5   0.00   1.42  131.4   50.3   46.2    1.4   1.42   0.70    0.00    9.10
 1991 324   128   125   97.2    0.0   97.2   0.00   1.43  132.5   49.9   47.3    1.4   1.43   0.69    0.00    9.28
 1991 325   129   126   97.9    0.0   97.9   0.00   1.44  133.6   49.4   48.6    1.4   1.44   0.69    0.00    9.46
 1991 326   130   127   98.5    0.0   98.5   0.00   1.45  134.6   48.6   49.9    1.4   1.45   0.68    0.00    9.64
 1991 327   131   128   99.1    0.0   99.1   0.00   1.45  135.6   47.7   51.4    1.5   1.45   0.69    0.00    9.82
 1991 328   132   129   99.7    0.0   99.7   0.00   1.46  136.5   47.2   52.5    1.5   1.46   0.70    0.00   10.00
 1991 329   133   130  100.2    0.0  100.2   0.00   1.48  137.5   46.6   53.6    1.5   1.48   0.71    0.00   10.19
 1991 330   134   131  100.7    0.0  100.7   0.00   1.49  138.4   45.9   54.8    1.5   1.49   0.71    0.00   10.38
 1991 331   135   132  101.1    1.8   99.3   1.40   1.47  139.1   45.3   54.0    1.5   1.47   0.71    0.00   10.56
 1991 332   136   133  101.6    4.6   97.0   1.40   1.44  139.9   44.2   52.8    1.4   1.44   0.72    0.00   10.76
 1991 333   137   134  102.1    7.5   94.6   1.39   1.40  140.7   43.1   51.5    1.4   1.40   0.72    0.00   10.95
 1991 334   138   135  102.6   10.4   92.3   1.39   1.37  141.6   42.1   50.2    1.4   1.37   0.72    0.00   11.14
 1991 335   139   136  103.3   12.9   90.4   1.38   1.34  142.8   41.2   49.2    1.3   1.34   0.73    0.00   11.34
 1991 336   140   137  104.0   15.7   88.3   1.37   1.31  144.0   40.3   48.0    1.3   1.31   0.73    0.00   11.53
 1991 337   141   138  104.7   18.6   86.1   1.37   1.28  145.1   39.3   46.9    1.3   1.28   0.74    0.00   11.74
 1991 338   142   139  105.3   21.4   84.0   1.36   1.24  146.1   38.3   45.7    1.2   1.24   0.75    0.00   11.94
 1991 339   143   140  106.0   24.1   81.8   1.36   1.21  147.1   37.3   44.5    1.2   1.21   0.75    0.00   12.14
 1991 340   144   141  106.5   26.9   79.6   1.35   1.18  148.0   36.3   43.3    1.2   1.18   0.76    0.00   12.35
 1991 341   145   142  107.3   29.6   77.7   1.35   1.15  149.2   35.4   42.3    1.2   1.15   0.77    0.00   12.55
 1991 342   146   143  107.9   32.2   75.7   1.34   1.12  150.2   34.5   41.2    1.1   1.12   0.77    0.00   12.76
 1991 343   147   144  108.5   34.5   74.0   1.33   1.10  151.2   34.0   40.0    1.1   1.10   0.78    0.00   12.98
 1991 344   148   145  109.0   37.1   71.8   1.33   1.06  151.9   32.8   39.1    1.1   1.06   0.78    0.00   13.19
 1991 345   149   146  109.5   39.7   69.8   1.32   1.03  152.8   31.8   38.0    1.0   1.03   0.79    0.00   13.40
 1991 346   150   147  110.1   41.8   68.4   1.31   1.02  153.7   31.3   37.0    1.0   1.02   0.80    0.00   13.62
 1991 347   151   148  110.7   44.1   66.6   1.31   0.99  154.6   30.4   36.2    1.0   0.99   0.80    0.00   13.84
 1991 348   152   149  111.2   45.9   65.2   1.30   0.97  155.4   29.9   35.4    1.0   0.97   0.81    0.00   14.06
 1991 349   153   150  111.6   47.9   63.7   1.29   0.95  156.0   29.4   34.4    1.0   0.95   0.82    0.00   14.28
 1991 350   154   151  112.0   50.2   61.8   1.28   0.92  156.6   28.3   33.5    0.9   0.92   0.82    0.00   14.50
 1991 351   155   152  112.6   52.6   60.1   1.28   0.89  157.5   27.4   32.7    0.9   0.89   0.82    0.00   14.72
 1991 352   156   153  113.2   54.9   58.4   1.27   0.87  158.4   26.6   31.8    0.9   0.87   0.83    0.00   14.94
 1991 353   157   154  113.8   57.1   56.7   1.26   0.84  159.2   25.8   30.8    0.8   0.84   0.83    0.00   15.17
 1991 354   158   155  114.3   59.3   54.9   1.25   0.81  159.9   25.0   29.9    0.8   0.81   0.83    0.00   15.39
 1991 355   159   156  115.0   61.5   53.5   1.24   0.79  161.0   24.4   29.1    0.8   0.79   0.84    0.00   15.62
 1991 356   160   157  115.8   63.6   52.1   1.23   0.78  162.0   24.0   28.1    0.8   0.78   0.85    0.00   15.85
 1991 357   161   158  116.4   65.7   50.7   1.22   0.76  162.9   23.3   27.4    0.8   0.76   0.86    0.00   16.08
 1991 358   162   159  117.0   67.8   49.1   1.21   0.73  163.8   22.4   26.7    0.7   0.73   0.86    0.00   16.31
 1991 359   163   160  117.7   69.7   48.0   1.20   0.71  164.8   21.9   26.1    0.7   0.71   0.87    0.00   16.54
 1991 360   164   161  118.4   70.9   47.5   1.20   0.70  165.8   21.7   25.9    0.7   0.70   0.88    0.00   16.77
 1991 361   165   162  119.1   72.2   46.9   1.19   0.70  166.8   21.4   25.5    0.7   0.70   0.88    0.00   17.01
 1991 362   166   163  119.9   73.9   46.0   1.18   0.68  167.8   21.0   25.0    0.7   0.68   0.88    0.00   17.24
 1991 363   167   164  120.6   75.7   44.9   1.17   0.67  168.7   20.5   24.4    0.7   0.67   0.89    0.00   17.48
 1991 364   168   165  121.3   77.5   43.8   1.16   0.65  169.7   20.0   23.8    0.6   0.65   0.90    0.00   17.72
 1991 365   169   166  121.9   79.3   42.6   1.15   0.64  170.6   19.6   23.0    0.6   0.64   0.91    0.00   17.96
 1992 001   170   167  122.6   81.1   41.6   1.15   0.63  171.5   19.5   22.1    0.6   0.63   0.92    0.00   18.20
 1992 002   171   168  123.3   82.8   40.5   1.14   0.62  172.4   19.2   21.3    0.6   0.62   0.92    0.00   18.44
 1992 003   172   169  123.3   82.8   40.5   1.14   0.62  173.3   19.2   21.3    0.6   0.62   0.92    0.00   18.44
 1992 004   173   170  123.3   82.8   40.5   1.14   0.62  174.1   19.2   21.3    0.6   0.62   0.92    0.00   18.44
 1992 005   174   171  123.3   82.8   40.5   1.14   0.62  175.0   19.2   21.3    0.6   0.62   0.92    0.00   18.44
 1992 006   175   172  123.3   82.8   40.5   1.14   0.62  175.8   19.2   21.3    0.6   0.62   0.92    0.00   18.44

*DSSAT Cropping System Model Ver. 4.0.2.000               Aug 15, 2016; 15:38:12

*RUN   3        : UYMZ                    
 MODEL          : MZCER040 - Maize           
 EXPERIMENT     : UYMZ0200 MZ    late to create DSS                             
 TREATMENT  1   : UYMZ                    

@YEAR DOY   DAS   DAP   CNAD   GNAD   VNAD   GN%D   VN%D   NUPC   LNAD   SNAD   LN%D   SN%D   RN%D   SNN0C   SNN1C
 1992 199     3     0    0.0    0.0    0.0   0.00   0.00    0.0    0.0    0.0    0.0   0.00   0.00    0.00    0.00
 1992 200     4     1    0.0    0.0    0.0   0.00   0.00    0.0    0.0    0.0    0.0   0.00   0.00    0.00    0.00
 1992 201     5     2    0.0    0.0    0.0   0.00   0.00    0.0    0.0    0.0    0.0   0.00   0.00    0.00    0.00
 1992 202     6     3    0.0    0.0    0.0   0.00   0.00    0.0    0.0    0.0    0.0   0.00   0.00    0.00    0.00
 1992 203     7     4    0.0    0.0    0.0   0.00   0.00    0.0    0.0    0.0    0.0   0.00   0.00    0.00    0.00
 1992 204     8     5    0.0    0.0    0.0   0.00   0.00    0.0    0.0    0.0    0.0   0.00   0.00    0.00    0.00
 1992 205     9     6    0.0    0.0    0.0   0.00   0.00    0.0    0.0    0.0    0.0   0.00   0.00    0.00    0.00
 1992 206    10     7    0.0    0.0    0.0   0.00   0.00    0.0    0.0    0.0    0.0   0.00   0.00    0.00    0.00
 1992 207    11     8    0.0    0.0    0.0   0.00   0.00    0.0    0.0    0.0    0.0   0.00   0.00    0.00    0.00
 1992 208    12     9    0.0    0.0    0.0   0.00   0.00    0.0    0.0    0.0    0.0   0.00   0.00    0.00    0.00
 1992 209    13    10    0.0    0.0    0.0   0.00   0.00    0.0    0.0    0.0    0.0   0.00   0.00    0.00    0.00
 1992 210    14    11    0.0    0.0    0.0   0.00   0.00    0.0    0.0    0.0    0.0   0.00   0.00    0.00    0.00
 1992 211    15    12    0.0    0.0    0.0   0.00   0.00    0.0    0.0    0.0    0.0   0.00   0.00    0.00    0.00
 1992 212    16    13    0.0    0.0    0.0   0.00   0.00    0.0    0.0    0.0    0.0   0.00   0.00    0.00    0.00
 1992 213    17    14    0.0    0.0    0.0   0.00   0.00    0.0    0.0    0.0    0.0   0.00   0.00    0.00    0.00
 1992 214    18    15    0.0    0.0    0.0   0.00   0.00    0.0    0.0    0.0    0.0   0.00   0.00    0.00    0.00
 1992 215    19    16    0.0    0.0    0.0   0.00   0.00    0.0    0.0    0.0    0.0   0.00   0.00    0.00    0.00
 1992 216    20    17    0.0    0.0    0.0   0.00   0.00    0.0    0.0    0.0    0.0   0.00   0.00    0.00    0.00
 1992 217    21    18    0.0    0.0    0.0   0.00   0.00    0.0    0.0    0.0    0.0   0.00   0.00    0.00    0.00
 1992 218    22    19    0.0    0.0    0.0   0.00   0.00    0.0    0.0    0.0    0.0   0.00   0.00    0.00    0.00
 1992 219    23    20    0.0    0.0    0.0   0.00   0.00    0.0    0.0    0.0    0.0   0.00   0.00    0.00    0.00
 1992 220    24    21    0.0    0.0    0.0   0.00   0.00    0.0    0.0    0.0    0.0   0.00   0.00    0.00    0.00
 1992 221    25    22    0.0    0.0    0.0   0.00   0.00    0.0    0.0    0.0    0.0   0.00   0.00    0.00    0.00
 1992 222    26    23    0.0    0.0    0.0   0.00   0.00    0.0    0.0    0.0    0.0   0.00   0.00    0.00    0.00
 1992 223    27    24    0.0    0.0    0.0   0.00   0.00    0.0    0.0    0.0    0.0   0.00   0.00    0.00    0.00
 1992 224    28    25    0.0    0.0    0.0   0.00   0.00    0.0    0.0    0.0    0.0   0.00   0.00    0.00    0.00
 1992 225    29    26    0.0    0.0    0.0   0.00   0.00    0.0    0.0    0.0    0.0   0.00   0.00    0.00    0.00
 1992 226    30    27    0.0    0.0    0.0   0.00   0.00    0.0    0.0    0.0    0.0   0.00   0.00    0.00    0.00
 1992 227    31    28    0.0    0.0    0.0   0.00   0.00    0.0    0.0    0.0    0.0   0.00   0.00    0.00    0.00
 1992 228    32    29    0.0    0.0    0.0   0.00   0.00    0.0    0.0    0.0    0.0   0.00   0.00    0.00    0.00
 1992 229    33    30    1.2    0.0    1.2   0.00   4.40    0.0    0.6    0.6    4.4   4.40   0.00    0.00    0.00
 1992 230    34    31    1.3    0.0    1.3   0.00   4.53    0.2    0.6    0.6    4.5   4.53   1.08    0.00    0.00
 1992 231    35    32    1.3    0.0    1.3   0.00   4.51    0.2    0.6    0.6    4.5   4.51   1.10    0.00    0.00
 1992 232    36    33    1.3    0.0    1.3   0.00   4.50    0.2    0.6    0.6    4.5   4.50   1.11    0.00    0.00
 1992 233    37    34    1.3    0.0    1.3   0.00   4.48    0.2    0.6    0.6    4.5   4.48   1.13    0.00    0.00
 1992 234    38    35    1.2    0.0    1.2   0.00   4.46    0.2    0.6    0.6    4.5   4.46   1.15    0.00    0.00
 1992 235    39    36    1.2    0.0    1.2   0.00   4.46    0.2    0.6    0.6    4.5   4.46   1.10    0.00    0.00
 1992 236    40    37    1.2    0.0    1.2   0.00   4.42    0.2    0.6    0.6    4.4   4.42   1.18    0.00    0.00
 1992 237    41    38    1.2    0.0    1.2   0.00   4.40    0.3    0.6    0.6    4.4   4.40   1.19    0.00    0.01
 1992 238    42    39    1.2    0.0    1.2   0.00   4.38    0.3    0.6    0.6    4.4   4.38   1.19    0.00    0.01
 1992 239    43    40    1.2    0.0    1.2   0.00   4.37    0.4    0.6    0.6    4.4   4.37   1.21    0.00    0.01
 1992 240    44    41    1.2    0.0    1.2   0.00   4.34    0.4    0.6    0.6    4.3   4.34   1.22    0.00    0.01
 1992 241    45    42    1.2    0.0    1.2   0.00   4.04    0.4    0.6    0.6    4.0   4.04   1.16    0.00    0.01
 1992 242    46    43    1.3    0.0    1.3   0.00   3.60    0.5    0.8    0.5    3.6   3.60   1.16    0.00    0.01
 1992 243    47    44    1.5    0.0    1.5   0.00   3.61    0.8    1.0    0.5    3.6   3.61   1.09    0.00    0.02
 1992 244    48    45    1.8    0.0    1.8   0.00   4.02    1.1    1.2    0.6    4.0   4.02   1.17    0.00    0.02
 1992 245    49    46    1.9    0.0    1.9   0.00   4.08    1.2    1.3    0.6    4.1   4.08   1.20    0.00    0.02
 1992 246    50    47    2.0    0.0    2.0   0.00   4.01    1.3    1.4    0.6    4.0   4.01   1.14    0.00    0.02
 1992 247    51    48    2.1    0.0    2.1   0.00   3.93    1.6    1.6    0.6    3.9   3.93   1.30    0.00    0.03
 1992 248    52    49    2.3    0.0    2.3   0.00   3.88    2.0    1.7    0.5    3.9   3.88   1.31    0.00    0.03
 1992 249    53    50    2.5    0.0    2.5   0.00   3.81    2.3    1.9    0.5    3.8   3.81   1.26    0.00    0.04
 1992 250    54    51    2.7    0.0    2.7   0.00   3.82    2.8    2.2    0.5    3.8   3.82   1.25    0.00    0.04
 1992 251    55    52    3.0    0.0    3.0   0.00   3.73    3.2    2.4    0.5    3.7   3.73   1.22    0.00    0.05
 1992 252    56    53    3.3    0.0    3.3   0.00   3.67    3.4    2.8    0.5    3.7   3.67   1.09    0.00    0.05
 1992 253    57    54    3.7    0.0    3.7   0.00   3.66    4.0    3.2    0.5    3.7   3.66   1.15    0.00    0.06
 1992 254    58    55    4.2    0.0    4.2   0.00   3.61    4.6    3.7    0.5    3.6   3.61   1.17    0.00    0.07
 1992 255    59    56    4.7    0.0    4.7   0.00   3.58    5.2    4.2    0.5    3.6   3.58   1.12    0.00    0.08
 1992 256    60    57    5.3    0.0    5.3   0.00   3.67    6.3    4.8    0.5    3.7   3.67   1.23    0.00    0.09
 1992 257    61    58    5.9    0.0    5.9   0.00   3.82    6.9    5.4    0.5    3.8   3.82   1.18    0.00    0.10
 1992 258    62    59    6.2    0.0    6.2   0.00   3.76    7.8    5.7    0.5    3.8   3.76   1.23    0.00    0.11
 1992 259    63    60    6.7    0.0    6.7   0.00   3.65    8.7    6.2    0.5    3.7   3.65   1.23    0.00    0.12
 1992 260    64    61    7.3    0.0    7.3   0.00   3.56    9.4    6.8    0.5    3.6   3.56   1.15    0.00    0.14
 1992 261    65    62    8.1    0.0    8.1   0.00   3.40   10.5    7.7    0.5    3.4   3.40   1.15    0.00    0.16
 1992 262    66    63    9.5    0.0    9.5   0.00   3.73   12.7    8.9    0.5    3.7   3.73   1.26    0.00    0.17
 1992 263    67    64   10.0    0.0   10.0   0.00   3.72   13.9    9.5    0.5    3.7   3.72   1.24    0.00    0.20
 1992 264    68    65   10.5    0.0   10.5   0.00   3.55   15.0   10.0    0.5    3.5   3.55   1.20    0.00    0.22
 1992 265    69    66   11.6    0.0   11.6   0.00   3.57   16.8   11.1    0.5    3.6   3.57   1.19    0.00    0.25
 1992 266    70    67   12.6    0.0   12.6   0.00   3.78   17.4   12.1    0.5    3.8   3.78   1.11    0.00    0.28
 1992 267    71    68   12.7    0.0   12.7   0.00   3.60   18.5   12.2    0.5    3.6   3.60   1.17    0.00    0.31
 1992 268    72    69   14.4    0.0   14.4   0.00   3.90   19.8   13.8    0.5    3.9   3.90   1.10    0.00    0.35
 1992 269    73    70   14.0    0.0   14.0   0.00   3.75   21.1   13.5    0.5    3.7   3.75   1.31    0.00    0.38
 1992 270    74    71   14.0    0.0   14.0   0.00   3.67   21.3   13.5    0.5    3.7   3.67   1.28    0.00    0.42
 1992 271    75    72   14.5    0.0   14.5   0.00   3.58   21.8   14.0    0.5    3.6   3.58   1.16    0.00    0.46
 1992 272    76    73   15.4    0.0   15.4   0.00   3.55   23.4   14.9    0.5    3.6   3.55   1.16    0.00    0.51
 1992 273    77    74   16.6    0.0   16.6   0.00   3.53   25.4   16.1    0.5    3.5   3.53   1.16    0.00    0.55
 1992 274    78    75   18.4    0.0   18.4   0.00   3.49   27.8   17.8    0.5    3.5   3.49   1.14    0.00    0.60
 1992 275    79    76   20.2    0.0   20.2   0.00   3.45   29.4   19.6    0.6    3.5   3.45   1.10    0.00    0.66
 1992 276    80    77   21.8    0.0   21.8   0.00   3.42   31.4   21.2    0.6    3.4   3.42   1.10    0.00    0.71
 1992 277    81    78   23.3    0.0   23.3   0.00   3.39   34.0   22.5    0.7    3.4   3.39   1.14    0.00    0.76
 1992 278    82    79   25.4    0.0   25.4   0.00   3.36   36.6   24.5    0.9    3.4   3.36   1.13    0.00    0.82
 1992 279    83    80   26.8    0.0   26.8   0.00   3.34   37.7   25.8    1.0    3.3   3.34   1.08    0.00    0.88
 1992 280    84    81   28.0    0.0   28.0   0.00   3.37   41.4   27.0    1.1    3.4   3.37   1.21    0.00    0.94
 1992 281    85    82   28.9    0.0   28.9   0.00   3.37   42.9   27.7    1.1    3.4   3.37   1.20    0.00    1.01
 1992 282    86    83   29.7    0.0   29.7   0.00   3.32   44.8   28.4    1.2    3.3   3.32   1.18    0.00    1.09
 1992 283    87    84   31.1    0.0   31.1   0.00   3.29   47.1   29.7    1.4    3.3   3.29   1.15    0.00    1.17
 1992 284    88    85   33.3    0.0   33.3   0.00   3.26   50.5   31.6    1.7    3.3   3.26   1.15    0.00    1.26
 1992 285    89    86   36.1    0.0   36.1   0.00   3.23   53.2   33.9    2.1    3.2   3.23   1.11    0.00    1.35
 1992 286    90    87   38.9    0.0   38.9   0.00   3.20   57.6   36.3    2.6    3.2   3.20   1.13    0.00    1.44
 1992 287    91    88   41.5    0.0   41.5   0.00   3.17   61.8   38.3    3.1    3.2   3.17   1.14    0.00    1.54
 1992 288    92    89   45.2    0.0   45.2   0.00   3.14   66.4   41.2    4.0    3.1   3.14   1.13    0.00    1.65
 1992 289    93    90   47.7    0.0   47.7   0.00   3.09   67.7   43.0    4.7    3.1   3.09   1.07    0.00    1.76
 1992 290    94    91   50.9    0.0   50.9   0.00   3.06   71.0   45.2    5.7    3.1   3.06   1.07    0.00    1.86
 1992 291    95    92   53.7    0.0   53.7   0.00   3.03   76.5   47.1    6.5    3.0   3.03   1.14    0.00    1.97
 1992 292    96    93   55.8    0.0   55.8   0.00   3.02   80.7   48.5    7.2    3.0   3.02   1.15    0.00    2.09
 1992 293    97    94   58.3    0.0   58.3   0.00   2.99   81.8   50.2    8.1    3.0   2.99   1.08    0.00    2.22
 1992 294    98    95   60.5    0.0   60.5   0.00   2.98   87.1   51.6    8.9    3.0   2.98   1.14    0.00    2.34
 1992 295    99    96   62.5    0.0   62.5   0.00   2.96   91.1   52.8    9.7    3.0   2.96   1.14    0.00    2.48
 1992 296   100    97   65.4    0.0   65.4   0.00   2.94   95.3   54.6   10.9    2.9   2.94   1.13    0.00    2.63
 1992 297   101    98   69.8    0.0   69.8   0.00   2.91  100.6   57.1   12.7    2.9   2.91   1.12    0.00    2.78
 1992 298   102    99   75.6    0.0   75.6   0.00   2.87  107.0   60.2   15.4    2.9   2.87   1.10    0.00    2.94
 1992 299   103   100   78.9    0.0   78.9   0.00   2.83  109.2   61.8   17.1    2.8   2.83   1.07    0.00    3.10
 1992 300   104   101   84.8    0.0   84.8   0.00   2.78  117.3   64.6   20.2    2.8   2.78   1.10    0.00    3.26
 1992 301   105   102   90.1    0.0   90.1   0.00   2.58  122.3   70.4   19.7    2.6   2.58   1.09    0.00    3.43
 1992 302   106   103   94.0    0.0   94.0   0.00   2.60  126.0   73.1   20.9    2.6   2.60   1.08    0.00    3.59
 1992 303   107   104   96.2    0.0   96.2   0.00   2.51  128.8   73.7   22.5    2.5   2.51   1.05    0.00    3.76
 1992 304   108   105   98.0    0.0   98.0   0.00   2.43  131.1   73.8   24.2    2.4   2.43   1.02    0.00    3.92
 1992 305   109   106   99.4    0.0   99.4   0.00   2.36  132.9   73.5   25.9    2.4   2.36   0.99    0.00    4.09
 1992 306   110   107  100.4    0.0  100.4   0.00   2.28  134.3   72.8   27.6    2.3   2.28   0.96    0.00    4.26
 1992 307   111   108  101.3    0.0  101.3   0.00   2.20  135.4   72.0   29.3    2.2   2.20   0.94    0.00    4.44
 1992 308   112   109  102.1    0.0  102.1   0.00   2.17  136.5   71.8   30.3    2.2   2.17   0.92    0.00    4.61
 1992 309   113   110  102.7    0.0  102.7   0.00   2.16  137.4   71.7   31.0    2.2   2.16   0.90    0.00    4.79
 1992 310   114   111  103.2    0.0  103.2   0.00   2.14  138.1   71.5   31.6    2.1   2.14   0.88    0.00    4.96
 1992 311   115   112  103.6    0.0  103.6   0.00   2.10  138.7   71.0   32.5    2.1   2.10   0.85    0.00    5.14
 1992 312   116   113  103.9    0.0  103.9   0.00   2.07  139.2   70.5   33.4    2.1   2.07   0.82    0.00    5.32
 1992 313   117   114  104.1    0.0  104.1   0.00   2.04  139.6   70.1   34.1    2.0   2.04   0.81    0.00    5.50
 1992 314   118   115  104.4    0.0  104.4   0.00   2.01  139.9   69.5   34.8    2.0   2.01   0.80    0.00    5.68
 1992 315   119   116  104.6    0.0  104.6   0.00   1.96  140.3   68.6   36.0    2.0   1.96   0.80    0.00    5.86
 1992 316   120   117  104.9    0.0  104.9   0.00   1.93  140.7   68.1   36.8    1.9   1.93   0.80    0.00    6.04
 1992 317   121   118  105.1    0.0  105.1   0.00   1.90  141.1   67.6   37.5    1.9   1.90   0.79    0.00    6.23
 1992 318   122   119  105.3    0.0  105.3   0.00   1.88  141.4   67.3   38.1    1.9   1.88   0.79    0.00    6.41
 1992 319   123   120  105.8    0.0  105.8   0.00   1.85  142.1   66.7   39.2    1.9   1.85   0.79    0.00    6.59
 1992 320   124   121  106.5    0.0  106.5   0.00   1.82  143.2   66.2   40.3    1.8   1.82   0.79    0.00    6.78
 1992 321   125   122  107.1    0.0  107.1   0.00   1.79  144.0   65.6   41.5    1.8   1.79   0.77    0.00    6.96
 1992 322   126   123  107.7    0.0  107.7   0.00   1.76  145.0   65.2   42.6    1.8   1.76   0.75    0.00    7.15
 1992 323   127   124  108.3    0.0  108.3   0.00   1.73  145.8   64.6   43.7    1.7   1.73   0.73    0.00    7.34
 1992 324   128   125  108.7    0.0  108.7   0.00   1.67  146.6   63.6   45.2    1.7   1.67   0.72    0.00    7.53
 1992 325   129   126  109.2    0.0  109.2   0.00   1.61  147.3   62.4   46.8    1.6   1.61   0.72    0.00    7.72
 1992 326   130   127  109.6    0.0  109.6   0.00   1.75  147.9   66.8   42.8    1.7   1.75   0.73    0.00    7.91
 1992 327   131   128  109.9    0.0  109.9   0.00   1.75  148.4   66.4   43.5    1.8   1.75   0.71    0.00    8.11
 1992 328   132   129  110.2    0.0  110.2   0.00   1.76  148.9   66.1   44.1    1.8   1.76   0.70    0.00    8.30
 1992 329   133   130  110.4    0.0  110.4   0.00   1.77  149.3   65.7   44.7    1.8   1.77   0.69    0.00    8.50
 1992 330   134   131  110.5    0.0  110.5   0.00   1.78  149.6   65.1   45.4    1.8   1.78   0.69    0.00    8.70
 1992 331   135   132  110.7    0.0  110.7   0.00   1.79  149.9   64.6   46.1    1.8   1.79   0.69    0.00    8.89
 1992 332   136   133  110.8    0.0  110.8   0.00   1.80  150.1   64.1   46.6    1.8   1.80   0.69    0.00    9.09
 1992 333   137   134  110.8    0.0  110.8   0.00   1.81  150.4   63.6   47.3    1.8   1.81   0.69    0.00    9.29
 1992 334   138   135  110.9    0.0  110.9   0.00   1.82  150.6   62.9   48.0    1.8   1.82   0.69    0.00    9.49
 1992 335   139   136  111.1    0.0  111.1   0.00   1.84  151.1   62.3   48.7    1.8   1.84   0.70    0.00    9.69
 1992 336   140   137  111.1    0.0  111.1   0.00   1.84  151.3   61.2   49.9    1.8   1.84   0.69    0.00    9.89
 1992 337   141   138  111.3    0.0  111.3   0.00   1.85  151.9   60.3   51.0    1.8   1.85   0.68    0.00   10.09
 1992 338   142   139  111.4    0.0  111.4   0.00   1.85  152.5   59.2   52.2    1.8   1.85   0.68    0.00   10.30
 1992 339   143   140  111.5    0.0  111.5   0.00   1.85  153.2   57.9   53.6    1.8   1.85   0.67    0.00   10.50
 1992 340   144   141  111.5    0.0  111.5   0.00   1.85  153.7   56.6   54.9    1.8   1.85   0.68    0.00   10.71
 1992 341   145   142  111.6    2.9  108.7   1.82   1.80  154.3   55.2   53.5    1.8   1.80   0.69    0.00   10.92
 1992 342   146   143  111.7    5.9  105.8   1.76   1.75  154.8   53.7   52.1    1.8   1.75   0.69    0.00   11.14
 1992 343   147   144  111.9    8.9  102.9   1.74   1.71  155.5   52.3   50.7    1.7   1.71   0.69    0.00   11.35
 1992 344   148   145  112.0   12.0  100.0   1.72   1.66  156.1   50.8   49.2    1.7   1.66   0.70    0.00   11.57
 1992 345   149   146  112.2   15.3   96.8   1.71   1.60  156.6   49.2   47.7    1.6   1.60   0.70    0.00   11.79
 1992 346   150   147  112.3   18.2   94.1   1.70   1.56  157.1   47.8   46.3    1.6   1.56   0.70    0.00   12.02
 1992 347   151   148  112.4   20.5   91.9   1.70   1.52  157.5   46.7   45.2    1.5   1.52   0.71    0.00   12.24
 1992 348   152   149  112.6   22.9   89.7   1.70   1.49  157.9   45.5   44.1    1.5   1.49   0.71    0.00   12.47
 1992 349   153   150  112.7   25.0   87.7   1.71   1.45  158.2   44.5   43.2    1.5   1.45   0.72    0.00   12.69
 1992 350   154   151  112.8   26.6   86.2   1.71   1.43  158.5   43.8   42.4    1.4   1.43   0.72    0.00   12.92
 1992 351   155   152  112.9   28.5   84.4   1.71   1.40  158.9   42.9   41.6    1.4   1.40   0.72    0.00   13.15
 1992 352   156   153  113.0   30.8   82.2   1.71   1.36  159.1   41.7   40.5    1.4   1.36   0.73    0.00   13.38
 1992 353   157   154  113.1   32.7   80.4   1.70   1.33  159.4   40.8   39.5    1.3   1.33   0.74    0.00   13.61
 1992 354   158   155  113.2   35.0   78.2   1.70   1.30  159.6   39.8   38.4    1.3   1.30   0.74    0.00   13.84
 1992 355   159   156  113.3   36.8   76.5   1.70   1.27  159.9   39.0   37.4    1.3   1.27   0.75    0.00   14.07
 1992 356   160   157  113.4   38.8   74.5   1.70   1.24  160.0   38.1   36.4    1.2   1.24   0.75    0.00   14.30
 1992 357   161   158  113.4   41.1   72.3   1.69   1.22  160.3   37.3   35.0    1.2   1.22   0.76    0.00   14.53
 1992 358   162   159  113.5   43.7   69.8   1.69   1.19  160.4   36.3   33.5    1.2   1.19   0.76    0.00   14.77
 1992 359   163   160  113.8   45.4   68.3   1.69   1.17  161.0   35.8   32.6    1.2   1.17   0.77    0.00   15.00
 1992 360   164   161  113.8   48.1   65.8   1.67   1.11  161.2   34.0   31.8    1.1   1.11   0.77    0.00   15.24
 1992 361   165   162  114.0   50.4   63.6   1.66   1.05  161.6   32.3   31.3    1.1   1.05   0.77    0.00   15.47
 1992 362   166   163  114.1   52.6   61.5   1.64   1.02  161.9   31.2   30.3    1.0   1.02   0.77    0.00   15.71
 1992 363   167   164  114.3   55.4   58.9   1.63   0.98  162.2   29.9   29.0    1.0   0.98   0.77    0.00   15.94
 1992 364   168   165  114.4   58.0   56.4   1.61   0.95  162.4   29.0   27.4    0.9   0.95   0.78    0.00   16.18
 1992 365   169   166  114.6   60.1   54.4   1.60   0.92  162.8   28.3   26.2    0.9   0.92   0.78    0.00   16.42
 1992 366   170   167  114.9   62.0   52.9   1.58   0.90  163.5   27.7   25.2    0.9   0.90   0.79    0.00   16.66
 1993 001   171   168  115.3   63.9   51.4   1.57   0.89  164.3   27.2   24.2    0.9   0.89   0.80    0.00   16.90
 1993 002   172   169  115.8   65.9   49.9   1.55   0.87  165.1   26.6   23.2    0.9   0.87   0.81    0.00   17.14
 1993 003   173   170  116.2   67.9   48.3   1.54   0.85  165.9   26.1   22.2    0.9   0.85   0.82    0.00   17.39
 1993 004   174   171  116.6   70.2   46.4   1.52   0.82  166.6   25.2   21.2    0.8   0.82   0.83    0.00   17.63
 1993 005   175   172  117.2   72.4   44.8   1.50   0.79  167.6   24.2   20.6    0.8   0.79   0.84    0.00   17.88
 1993 006   176   173  117.8   74.7   43.1   1.49   0.75  168.6   23.0   20.1    0.8   0.75   0.84    0.00   18.13
 1993 007   177   174  118.2   76.7   41.5   1.47   0.73  169.4   22.4   19.1    0.7   0.73   0.85    0.00   18.38
 1993 008   178   175  118.6   78.7   39.8   1.45   0.70  169.9   21.5   18.3    0.7   0.70   0.86    0.00   18.63
 1993 009   179   176  118.9   80.5   38.4   1.44   0.67  170.4   20.6   17.8    0.7   0.67   0.87    0.00   18.89
 1993 010   180   177  119.3   82.3   37.0   1.42   0.64  171.1   19.7   17.3    0.6   0.64   0.87    0.00   19.14
 1993 011   181   178  119.9   84.0   35.9   1.40   0.62  171.9   19.0   16.8    0.6   0.62   0.88    0.00   19.40
 1993 012   182   179  119.9   84.0   35.9   1.40   0.62  172.8   19.0   16.8    0.6   0.62   0.88    0.00   19.40
 1993 013   183   180  119.9   84.0   35.9   1.40   0.62  173.6   19.0   16.8    0.6   0.62   0.88    0.00   19.40
 1993 014   184   181  119.9   84.0   35.9   1.40   0.62  174.4   19.0   16.8    0.6   0.62   0.88    0.00   19.40
