*SOIL-PLANT-ATMOSPHERE MODULE OUTPUT FILE

*DSSAT Cropping System Model Ver. 4.0.2.000               Aug 23, 2016; 18:27:45

*RUN   1        : UYSB                    
 MODEL          : CRGRO040 - Soybean         
 EXPERIMENT     : UYSB0327 SB    late to create DSS                             
 TREATMENT  1   : UYSB                    

@YEAR DOY   DAS   SRAA   TMXA   TMNA   EOAA   ETAA   EPAA   ESAA   EFAD   ETAC   EPAC   ESAC   EFAC
 1999 232     0  15.80  25.80  14.50  3.920  2.370  0.000  2.370  0.000    2.4    0.0    2.4    0.0
 1999 233     1  13.60  27.70  16.20  3.497  1.374  0.000  1.374  0.000    3.7    0.0    3.7    0.0
 1999 234     2   5.10  15.50  12.00  1.085  1.085  0.000  1.085  0.000    4.8    0.0    4.8    0.0
 1999 235     3   5.10  15.10  11.50  1.074  1.074  0.000  1.074  0.000    5.9    0.0    5.9    0.0
 1999 236     4   5.80  20.00  13.70  1.330  1.330  0.000  1.330  0.000    7.2    0.0    7.2    0.0
 1999 237     5  12.80  15.40   5.80  2.562  2.562  0.000  2.562  0.000    9.8    0.0    9.8    0.0
 1999 238     6  18.70  18.90   5.10  3.911  2.760  0.000  2.760  0.000   12.6    0.0   12.6    0.0
 1999 239     7  11.90  18.60   2.80  2.424  2.176  0.000  2.176  0.000   14.7    0.0   14.7    0.0
 1999 240     8   6.00  14.60   3.10  1.155  1.155  0.000  1.155  0.000   15.9    0.0   15.9    0.0
 1999 241     9  14.00  19.00  11.60  3.112  1.093  0.000  1.093  0.000   17.0    0.0   17.0    0.0
 1999 242    10   5.40  27.80  14.00  1.367  1.367  0.000  1.367  0.000   18.3    0.0   18.3    0.0
 1999 243    11   5.50  27.90  15.00  1.404  1.017  0.000  1.017  0.000   19.4    0.0   19.4    0.0
 1999 244    12   5.50  16.40  13.70  1.203  0.878  0.000  0.878  0.000   20.2    0.0   20.2    0.0
 1999 245    13   7.00  20.00  14.70  1.619  1.607  0.000  1.607  0.000   21.8    0.0   21.8    0.0
 1999 246    14   5.60  15.90  12.80  1.206  1.206  0.003  1.203  0.000   23.1    0.0   23.1    0.0
 1999 247    15   5.60  16.30  13.60  1.221  1.221  0.003  1.218  0.000   24.3    0.0   24.3    0.0
 1999 248    16   5.70  19.20  14.80  1.305  1.305  0.004  1.302  0.000   25.6    0.0   25.6    0.0
 1999 249    17  13.70  22.90  16.20  3.325  3.325  0.010  3.315  0.000   28.9    0.0   28.9    0.0
 1999 250    18   7.90  19.00  12.40  1.767  1.767  0.006  1.761  0.000   30.7    0.0   30.6    0.0
 1999 251    19  18.60  19.80   7.40  4.021  4.021  0.015  4.006  0.000   34.7    0.0   34.7    0.0
 1999 252    20  20.70  18.30   5.90  4.321  2.703  0.027  2.676  0.000   37.4    0.1   37.3    0.0
 1999 253    21  20.50  16.00   4.00  4.063  1.852  0.026  1.825  0.000   39.2    0.1   39.2    0.0
 1999 254    22  16.80  17.00   4.00  3.379  1.274  0.022  1.252  0.000   40.5    0.1   40.4    0.0
 1999 255    23  17.60  21.20   5.20  3.800  1.042  0.026  1.016  0.000   41.6    0.1   41.4    0.0
 1999 256    24  13.60  24.70  12.40  3.270  3.270  0.014  3.256  0.000   44.8    0.2   44.7    0.0
 1999 257    25  15.20  18.00   9.50  3.267  2.419  0.025  2.394  0.000   47.3    0.2   47.1    0.0
 1999 258    26  21.10  20.00   5.20  4.481  2.478  0.035  2.443  0.000   49.7    0.2   49.5    0.0
 1999 259    27  20.70  23.60  10.50  4.832  1.424  0.039  1.385  0.000   51.2    0.3   50.9    0.0
 1999 260    28  20.50  24.50   7.60  4.723  1.123  0.040  1.083  0.000   52.3    0.3   52.0    0.0
 1999 261    29  21.90  29.80  11.70  5.565  0.970  0.050  0.920  0.000   53.2    0.3   52.9    0.0
 1999 262    30  21.60  20.10   9.30  4.766  0.864  0.050  0.814  0.000   54.1    0.4   53.7    0.0
 1999 263    31  20.60  26.00   8.90  4.888  0.794  0.056  0.738  0.000   54.9    0.5   54.5    0.0
 1999 264    32  21.40  23.20   8.90  4.899  0.743  0.063  0.680  0.000   55.6    0.5   55.1    0.0
 1999 265    33  21.40  20.60  10.70  4.810  0.702  0.068  0.634  0.000   56.4    0.6   55.8    0.0
 1999 266    34  22.90  20.90   7.50  5.022  0.673  0.077  0.596  0.000   57.0    0.7   56.4    0.0
 1999 267    35  22.50  23.10   8.10  5.106  0.648  0.084  0.564  0.000   57.7    0.7   56.9    0.0
 1999 268    36   6.60  20.50   8.70  1.455  0.562  0.026  0.537  0.000   58.2    0.8   57.5    0.0
 1999 269    37   7.30  19.60  10.60  1.617  0.543  0.030  0.513  0.000   58.8    0.8   58.0    0.0
 1999 270    38  20.30  20.40  11.50  4.579  0.585  0.093  0.492  0.000   59.4    0.9   58.5    0.0
 1999 271    39   9.10  21.60  11.70  2.088  0.521  0.047  0.474  0.000   59.9    0.9   58.9    0.0
 1999 272    40  22.90  17.60   7.00  4.770  0.574  0.116  0.458  0.000   60.5    1.1   59.4    0.0
 1999 273    41  21.80  22.80   3.20  4.712  2.520  0.120  2.400  0.000   63.0    1.2   61.8    0.0
 1999 274    42   6.90  14.10   8.50  1.386  1.386  0.023  1.363  0.000   64.4    1.2   63.2    0.0
 1999 275    43  20.80  14.90   5.60  4.108  3.825  0.115  3.710  0.000   68.2    1.3   66.9    0.0
 1999 276    44  23.90  12.80   1.70  4.388  3.171  0.126  3.045  0.000   71.4    1.4   69.9    0.0
 1999 277    45  22.10  13.20  -0.50  3.988  1.556  0.116  1.440  0.000   72.9    1.6   71.4    0.0
 1999 278    46   8.90  17.30   4.50  1.801  1.161  0.053  1.108  0.000   74.1    1.6   72.5    0.0
 1999 279    47  12.90  20.20  12.20  2.915  2.915  0.055  2.860  0.000   77.0    1.7   75.3    0.0
 1999 280    48   7.20  16.80  13.40  1.572  1.572  0.032  1.540  0.000   78.6    1.7   76.9    0.0
 1999 281    49  13.30  18.70  12.30  2.948  2.948  0.064  2.884  0.000   81.5    1.8   79.8    0.0
 1999 282    50  15.20  18.30   8.40  3.233  3.233  0.093  3.141  0.000   84.7    1.9   82.9    0.0
 1999 283    51  23.00  21.30   8.70  5.107  3.679  0.204  3.476  0.000   88.4    2.1   86.4    0.0
 1999 284    52  24.00  23.80   9.60  5.546  2.477  0.237  2.240  0.000   90.9    2.3   88.6    0.0
 1999 285    53   7.40  19.00  12.70  1.650  1.650  0.048  1.602  0.000   92.5    2.3   90.2    0.0
 1999 286    54   7.40  18.00  15.40  1.666  1.666  0.052  1.614  0.000   94.2    2.4   91.8    0.0
 1999 287    55   7.50  15.40  12.20  1.584  1.584  0.053  1.531  0.000   95.8    2.4   93.4    0.0
 1999 288    56  11.40  23.90  12.80  2.704  2.704  0.094  2.610  0.000   98.5    2.5   96.0    0.0
 1999 289    57  22.60  22.30  11.10  5.176  3.396  0.310  3.086  0.000  101.9    2.8   99.0    0.0
 1999 290    58  26.50  25.90  10.20  6.298  2.073  0.406  1.667  0.000  104.0    3.3  100.7    0.0
 1999 291    59  26.60  26.20  13.50  6.512  1.653  0.454  1.199  0.000  105.6    3.7  101.9    0.0
 1999 292    60  26.50  27.00   9.90  6.358  1.469  0.482  0.988  0.000  107.1    4.2  102.9    0.0
 1999 293    61  26.10  27.20  13.00  6.430  1.381  0.521  0.860  0.000  108.5    4.7  103.8    0.0
 1999 294    62  22.20  28.40  13.10  5.547  1.255  0.483  0.771  0.000  109.7    5.2  104.5    0.0
 1999 295    63  20.50  23.00  12.70  4.773  1.185  0.480  0.706  0.000  110.9    5.7  105.2    0.0
 1999 296    64  16.90  23.20  12.20  3.921  1.095  0.440  0.654  0.000  112.0    6.1  105.9    0.0
 1999 297    65  15.20  23.30  12.60  3.537  1.054  0.441  0.613  0.000  113.1    6.6  106.5    0.0
 1999 298    66  15.90  22.70  15.50  3.753  1.098  0.520  0.578  0.000  114.2    7.1  107.1    0.0
 1999 299    67  26.40  24.80  13.50  6.274  1.529  0.980  0.549  0.000  115.7    8.1  107.6    0.0
 1999 300    68  25.10  26.30  15.20  6.139  1.603  1.079  0.524  0.000  117.3    9.1  108.2    0.0
 1999 301    69  20.90  29.60  15.50  5.303  1.564  1.062  0.502  0.000  118.9   10.2  108.7    0.0
 1999 302    70  25.80  27.20  18.20  6.476  1.958  1.475  0.483  0.000  120.8   11.7  109.1    0.0
 1999 303    71  14.70  24.00  17.40  3.516  1.379  0.914  0.465  0.000  122.2   12.6  109.6    0.0
 1999 304    72  21.10  25.90  16.80  5.112  1.942  1.492  0.450  0.000  124.1   14.1  110.1    0.0
 1999 305    73  10.60  24.60  15.60  2.492  1.249  0.814  0.435  0.000  125.4   14.9  110.5    0.0
 1999 306    74  25.30  25.70  15.50  5.994  2.567  2.144  0.423  0.000  128.0   17.0  110.9    0.0
 1999 307    75  24.20  24.00  14.00  5.521  2.580  2.170  0.411  0.000  130.5   19.2  111.3    0.0
 1999 308    76   8.30  17.00  12.00  1.692  1.118  0.718  0.400  0.000  131.7   19.9  111.7    0.0
 1999 309    77  28.80  22.60  10.30  6.220  3.094  2.704  0.390  0.000  134.7   22.6  112.1    0.0
 1999 310    78  29.10  27.80   9.90  6.662  3.416  3.035  0.380  0.000  138.2   25.7  112.5    0.0
 1999 311    79  15.40  20.70  13.60  3.315  2.399  1.599  0.800  0.000  140.6   27.3  113.3    0.0
 1999 312    80  25.00  19.00   8.50  5.015  2.895  2.518  0.376  0.000  143.5   29.8  113.7    0.0
 1999 313    81  27.50  17.50   6.50  5.294  3.086  2.718  0.368  0.000  146.5   32.5  114.0    0.0
 1999 314    82  29.20  20.70   2.70  5.667  3.318  2.958  0.360  0.000  149.9   35.5  114.4    0.0
 1999 315    83  29.30  25.40   8.50  6.364  6.364  2.618  3.746  0.000  156.2   38.1  118.1    0.0
 1999 316    84  28.50  28.30  10.00  6.475  6.475  3.342  3.133  0.000  162.7   41.4  121.3    0.0
 1999 317    85  27.40  27.10  14.70  6.348  6.348  3.617  2.730  0.000  169.0   45.0  124.0    0.0
 1999 318    86  24.70  27.00  12.90  5.614  4.789  3.371  1.419  0.000  173.8   48.4  125.4    0.0
 1999 319    87  30.30  29.00  14.10  7.093  5.512  4.414  1.098  0.000  179.3   52.8  126.5    0.0
 1999 320    88  30.30  29.00  12.80  6.999  5.438  4.508  0.929  0.000  184.8   57.3  127.5    0.0
 1999 321    89  26.20  28.60  12.70  6.002  4.803  3.982  0.820  0.000  189.6   61.3  128.3    0.0
 1999 322    90  25.50  28.30  13.90  5.860  5.860  3.087  2.773  0.000  195.4   64.4  131.0    0.0
 1999 323    91  23.10  28.80  14.60  5.355  5.355  2.898  2.457  0.000  200.8   67.3  133.5    0.0
 1999 324    92  22.60  27.10  15.50  5.161  5.161  3.473  1.688  0.000  206.0   70.8  135.2    0.0
 1999 325    93  29.40  27.20  14.00  6.630  6.630  3.929  2.701  0.000  212.6   74.7  137.9    0.0
 1999 326    94  30.60  25.70  12.20  6.669  6.342  4.926  1.416  0.000  218.9   79.6  139.3    0.0
 1999 327    95  15.50  25.00  12.90  3.365  3.365  1.967  1.397  0.000  222.3   81.6  140.7    0.0
 1999 328    96  24.10  26.90  14.30  5.406  5.110  4.080  1.030  0.000  227.4   85.7  141.7    0.0
 1999 329    97  23.20  29.00  11.50  5.212  5.212  3.132  2.080  0.000  232.6   88.8  143.8    0.0
 1999 330    98  10.50  23.00  15.30  2.260  2.260  1.374  0.886  0.000  234.9   90.2  144.7    0.0
 1999 331    99  24.40  27.20  14.70  5.493  5.493  3.364  2.129  0.000  240.4   93.5  146.8    0.0
 1999 332   100  31.30  30.40  13.30  7.231  7.231  4.446  2.784  0.000  247.6   98.0  149.6    0.0
 1999 333   101  29.40  32.10  14.10  6.965  6.965  5.308  1.657  0.000  254.6  103.3  151.3    0.0
 1999 334   102  31.80  33.90  17.50  7.873  7.873  5.587  2.286  0.000  262.4  108.9  153.6    0.0
 1999 335   103  18.00  32.00  17.70  4.373  4.373  3.013  1.360  0.000  266.8  111.9  154.9    0.0
 1999 336   104   9.00  22.70  14.30  1.911  1.911  1.181  0.731  0.000  268.7  113.1  155.7    0.0
 1999 337   105  20.40  24.80  13.80  4.428  4.428  2.733  1.696  0.000  273.2  115.8  157.3    0.0
 1999 338   106  31.10  30.50  15.60  7.316  7.316  4.518  2.798  0.000  280.5  120.3  160.1    0.0
 1999 339   107  13.40  22.00  10.90  2.742  2.742  1.690  1.051  0.000  283.2  122.0  161.2    0.0
 1999 340   108  32.30  21.80   7.90  6.422  6.422  3.956  2.466  0.000  289.6  126.0  163.7    0.0
 1999 341   109  24.30  22.60   8.00  4.887  4.887  3.009  1.878  0.000  294.5  129.0  165.5    0.0
 1999 342   110  31.10  26.80  10.50  6.736  6.736  4.940  1.796  0.000  301.3  133.9  167.3    0.0
 1999 343   111  31.90  29.00  12.10  7.185  7.185  4.678  2.506  0.000  308.4  138.6  169.8    0.0
 1999 344   112  32.10  29.70  14.10  7.402  7.402  4.552  2.850  0.000  315.8  143.2  172.7    0.0
 1999 345   113  25.30  30.40  15.20  5.929  5.929  3.645  2.284  0.000  321.8  146.8  175.0    0.0
 1999 346   114  14.00  26.80  17.20  3.198  3.198  1.964  1.234  0.000  325.0  148.8  176.2    0.0
 1999 347   115  16.10  26.00  15.80  3.605  3.605  2.208  1.397  0.000  328.6  151.0  177.6    0.0
 1999 348   116  31.40  27.90  14.50  7.118  7.118  4.348  2.770  0.000  335.7  155.3  180.4    0.0
 1999 349   117  31.40  30.60  16.20  7.437  7.437  4.961  2.475  0.000  343.1  160.3  182.9    0.0
 1999 350   118  32.50  31.70  14.30  7.685  7.685  4.768  2.916  0.000  350.8  165.0  185.8    0.0
 1999 351   119  31.50  31.40  16.40  7.542  7.230  5.797  1.433  0.000  358.0  170.8  187.2    0.0
 1999 352   120  26.60  34.30  17.40  6.622  6.179  5.074  1.105  0.000  364.2  175.9  188.3    0.0
 1999 353   121  29.70  29.30  19.20  7.098  7.098  4.268  2.830  0.000  371.3  180.2  191.1    0.0
 1999 354   122  31.40  30.60  12.20  7.228  7.228  4.328  2.900  0.000  378.6  184.5  194.0    0.0
 1999 355   123  22.20  31.50  15.60  5.298  5.298  3.907  1.391  0.000  383.8  188.4  195.4    0.0
 1999 356   124  32.30  28.30  15.80  7.449  7.449  4.894  2.555  0.000  391.3  193.3  198.0    0.0
 1999 357   125  32.50  27.70   9.20  7.068  6.725  5.324  1.400  0.000  398.0  198.6  199.4    0.0
 1999 358   126  29.10  34.00  13.60  7.042  7.042  4.149  2.893  0.000  405.1  202.8  202.3    0.0
 1999 359   127  30.90  37.20  17.90  8.775  8.775  5.356  3.419  0.000  413.8  208.1  205.7    0.0
 1999 360   128  20.60  39.40  20.80  6.655  6.655  3.890  2.765  0.000  420.5  212.0  208.5    0.0
 1999 361   129  20.60  38.30  24.30  6.457  6.457  3.874  2.583  0.000  427.0  215.9  211.0    0.0
 1999 362   130   9.10  24.70  21.00  2.100  2.100  1.217  0.883  0.000  429.1  217.1  211.9    0.0
 1999 363   131  14.30  25.00  18.10  3.240  3.240  1.869  1.371  0.000  432.3  219.0  213.3    0.0
 1999 364   132   9.10  25.60  18.00  2.075  2.075  1.191  0.884  0.000  434.4  220.2  214.2    0.0
 1999 365   133  29.10  29.50  14.10  6.741  6.409  4.929  1.480  0.000  440.8  225.1  215.7    0.0
 2000 001   134  31.30  29.80  13.20  7.229  7.229  4.104  3.125  0.000  448.0  229.2  218.8    0.0
 2000 002   135  28.90  30.20  14.00  6.750  6.750  3.837  2.913  0.000  454.8  233.1  221.7    0.0
 2000 003   136  32.10  30.50  13.30  7.487  7.487  4.205  3.282  0.000  462.2  237.3  225.0    0.0
 2000 004   137  28.60  30.70  12.90  6.669  6.289  4.785  1.504  0.000  468.5  242.0  226.5    0.0
 2000 005   138  28.90  32.60  16.30  7.063  6.180  5.044  1.136  0.000  474.7  247.1  227.6    0.0
 2000 006   139  32.10  34.30  15.30  7.937  7.937  4.385  3.553  0.000  482.6  251.5  231.2    0.0
 2000 007   140  31.30  35.60  18.10  8.226  8.226  5.022  3.204  0.000  490.9  256.5  234.4    0.0
 2000 008   141  33.00  37.00  17.40  9.305  9.305  6.480  2.825  0.000  500.2  263.0  237.2    0.0
 2000 009   142  21.20  36.80  20.00  6.024  6.024  3.798  2.226  0.000  506.2  266.8  239.4    0.0
 2000 010   143  25.30  34.20  19.20  6.438  6.438  4.336  2.102  0.000  512.6  271.1  241.5    0.0
 2000 011   144  32.10  34.80  17.60  8.133  8.133  4.367  3.766  0.000  520.8  275.5  245.3    0.0
 2000 012   145  25.60  36.00  18.60  6.918  6.918  4.088  2.830  0.000  527.7  279.6  248.1    0.0
 2000 013   146  29.40  37.20  19.10  8.497  8.497  4.505  3.992  0.000  536.2  284.1  252.1    0.0
 2000 014   147   9.00  24.00  20.70  2.074  2.074  1.093  0.981  0.000  538.3  285.2  253.1    0.0
 2000 015   148  21.90  31.80  21.00  5.518  5.518  2.890  2.629  0.000  543.8  288.1  255.7    0.0
 2000 016   149  22.40  34.00  20.40  5.756  5.756  2.993  2.763  0.000  549.5  291.0  258.5    0.0
 2000 017   150   9.90  28.60  20.60  2.406  2.406  1.242  1.164  0.000  551.9  292.3  259.7    0.0
 2000 018   151  31.00  30.90  16.80  7.519  7.519  4.491  3.029  0.000  559.5  296.8  262.7    0.0
 2000 019   152  30.30  30.90  17.30  7.382  7.382  4.710  2.672  0.000  566.8  301.5  265.4    0.0
 2000 020   153  30.80  34.30  16.30  7.734  6.480  5.067  1.413  0.000  573.3  306.6  266.8    0.0
 2000 021   154  23.60  35.00  17.70  6.034  5.023  3.927  1.096  0.000  578.3  310.5  267.9    0.0
 2000 022   155  12.00  28.00  21.00  2.915  2.813  1.885  0.928  0.000  581.2  312.4  268.8    0.0
 2000 023   156  29.40  28.70  17.60  7.022  5.331  4.511  0.819  0.000  586.5  316.9  269.6    0.0
 2000 024   157  21.40  28.50  17.60  5.103  5.103  2.509  2.594  0.000  591.6  319.4  272.2    0.0
 2000 025   158  30.70  29.00  16.60  7.311  7.311  3.705  3.606  0.000  598.9  323.1  275.8    0.0
 2000 026   159  30.30  29.10  13.90  7.081  7.081  3.776  3.305  0.000  606.0  326.9  279.1    0.0
 2000 027   160  30.30  29.20  14.00  7.185  5.375  3.927  1.448  0.000  611.4  330.8  280.6    0.0
 2000 028   161  30.60  30.00  16.90  7.575  4.646  3.535  1.112  0.000  616.0  334.3  281.7    0.0
 2000 029   162  30.40  32.20  15.40  7.710  3.969  3.032  0.937  0.000  620.0  337.4  282.6    0.0
 2000 030   163  12.00  31.00  18.20  3.096  3.096  0.756  2.340  0.000  623.1  338.1  285.0    0.0
 2000 031   164  15.30  24.50  19.00  3.721  3.721  0.723  2.998  0.000  626.8  338.8  288.0    0.0
 2000 032   165  13.00  24.90  19.80  3.220  2.614  0.717  1.897  0.000  629.4  339.6  289.8    0.0
 2000 033   166  10.70  27.10  19.10  2.719  2.719  0.336  2.384  0.000  632.1  339.9  292.2    0.0
 2000 034   167  16.10  28.40  18.40  4.151  4.151  0.410  3.741  0.000  636.3  340.3  296.0    0.0
 2000 035   168  27.20  27.60  16.10  6.857  5.520  0.827  4.693  0.000  641.8  341.1  300.7    0.0
 2000 036   169  29.40  31.10  15.90  7.726  2.583  0.754  1.829  0.000  644.4  341.9  302.5    0.0
 2000 037   170  29.30  37.20  16.10  9.081  1.968  0.716  1.253  0.000  646.4  342.6  303.7    0.0

*DSSAT Cropping System Model Ver. 4.0.2.000               Aug 23, 2016; 18:27:45

*RUN   2        : UYSB                    
 MODEL          : CRGRO040 - Soybean         
 EXPERIMENT     : UYSB0327 SB    late to create DSS                             
 TREATMENT  1   : UYSB                    

@YEAR DOY   DAS   SRAA   TMXA   TMNA   EOAA   ETAA   EPAA   ESAA   EFAD   ETAC   EPAC   ESAC   EFAC
 2000 232     0  17.30  27.50   8.20  4.165  3.110  0.000  3.110  0.000    3.1    0.0    3.1    0.0
 2000 233     1   5.00  18.40  14.40  1.130  1.130  0.000  1.130  0.000    4.2    0.0    4.2    0.0
 2000 234     2   8.50  24.00  15.80  2.086  2.086  0.000  2.086  0.000    6.3    0.0    6.3    0.0
 2000 235     3  10.00  25.30  14.70  2.470  2.470  0.000  2.470  0.000    8.8    0.0    8.8    0.0
 2000 236     4   7.60  21.60  15.60  1.808  1.808  0.000  1.808  0.000   10.6    0.0   10.6    0.0
 2000 237     5   5.50  18.00  16.10  1.255  1.255  0.000  1.255  0.000   11.9    0.0   11.9    0.0
 2000 238     6   5.20  16.10  11.80  1.113  1.113  0.000  1.113  0.000   13.0    0.0   13.0    0.0
 2000 239     7  17.20  16.40   7.10  3.538  3.538  0.000  3.538  0.000   16.5    0.0   16.5    0.0
 2000 240     8  19.20  18.90   3.60  3.959  2.413  0.000  2.413  0.000   18.9    0.0   18.9    0.0
 2000 241     9  17.70  11.30   2.00  3.195  1.880  0.000  1.880  0.000   20.8    0.0   20.8    0.0
 2000 242    10  16.60  17.30   2.40  3.305  1.268  0.000  1.268  0.000   22.1    0.0   22.1    0.0
 2000 243    11  17.00  21.40   3.50  3.628  1.025  0.000  1.025  0.000   23.1    0.0   23.1    0.0
 2000 244    12  13.90  15.10   4.80  2.742  0.884  0.000  0.884  0.000   24.0    0.0   24.0    0.0
 2000 245    13  19.20  14.30  -0.90  3.527  0.788  0.000  0.788  0.000   24.8    0.0   24.8    0.0
 2000 246    14  19.30  15.90  -0.80  3.638  0.733  0.015  0.719  0.000   25.5    0.0   25.5    0.0
 2000 247    15  19.60  16.90   0.40  3.799  0.681  0.016  0.665  0.000   26.2    0.0   26.1    0.0
 2000 248    16  20.10  20.40   3.40  4.223  0.640  0.018  0.621  0.000   26.8    0.0   26.8    0.0
 2000 249    17  19.00  20.40   1.10  3.905  0.603  0.018  0.586  0.000   27.4    0.1   27.4    0.0
 2000 250    18  20.50  21.50   3.40  4.373  0.576  0.021  0.555  0.000   28.0    0.1   27.9    0.0
 2000 251    19  19.60  26.00   9.20  4.666  0.552  0.023  0.529  0.000   28.6    0.1   28.4    0.0
 2000 252    20  19.30  27.00  13.10  4.800  0.533  0.026  0.507  0.000   29.1    0.1   28.9    0.0
 2000 253    21   5.90  22.20  13.90  1.393  1.393  0.005  1.388  0.000   30.5    0.1   30.3    0.0
 2000 254    22  11.40  23.80  15.90  2.790  2.790  0.011  2.779  0.000   33.3    0.2   33.1    0.0
 2000 255    23   8.80  21.90  11.30  2.024  2.024  0.009  2.015  0.000   35.3    0.2   35.1    0.0
 2000 256    24  10.50  14.60   7.60  2.112  1.759  0.016  1.744  0.000   37.0    0.2   36.9    0.0
 2000 257    25   6.10   9.50   6.20  1.118  1.118  0.005  1.113  0.000   38.2    0.2   38.0    0.0
 2000 258    26   6.20  10.70   7.90  1.179  1.179  0.006  1.174  0.000   39.3    0.2   39.2    0.0
 2000 259    27   7.70  14.60   9.10  1.571  1.571  0.007  1.564  0.000   40.9    0.2   40.7    0.0
 2000 260    28  13.50  16.70  10.50  2.876  2.876  0.014  2.862  0.000   43.8    0.2   43.6    0.0
 2000 261    29  14.50  19.40   8.00  3.133  2.056  0.026  2.031  0.000   45.9    0.2   45.6    0.0
 2000 262    30   6.30  18.00  14.60  1.417  1.417  0.007  1.410  0.000   47.3    0.2   47.0    0.0
 2000 263    31  14.80  21.20  14.80  3.475  3.475  0.019  3.456  0.000   50.7    0.3   50.5    0.0
 2000 264    32   9.60  21.40  13.20  2.229  2.229  0.013  2.216  0.000   53.0    0.3   52.7    0.0
 2000 265    33   9.20  17.50  12.60  2.019  2.019  0.013  2.006  0.000   55.0    0.3   54.7    0.0
 2000 266    34  23.10  19.00   8.20  4.971  3.731  0.059  3.672  0.000   58.7    0.3   58.4    0.0
 2000 267    35  15.30  21.30   8.10  3.393  2.105  0.043  2.062  0.000   60.8    0.4   60.4    0.0
 2000 268    36  20.70  12.60   5.70  3.960  2.108  0.055  2.053  0.000   62.9    0.4   62.5    0.0
 2000 269    37  22.80  13.40   2.00  4.249  1.373  0.060  1.313  0.000   64.3    0.5   63.8    0.0
 2000 270    38  21.90  16.20   2.10  4.266  1.109  0.061  1.048  0.000   65.4    0.6   64.9    0.0
 2000 271    39  23.50  24.10   6.40  5.325  0.977  0.079  0.898  0.000   66.4    0.6   65.7    0.0
 2000 272    40  23.30  26.00  10.30  5.589  0.888  0.089  0.799  0.000   67.3    0.7   66.5    0.0
 2000 273    41  19.60  26.70  11.50  4.787  0.811  0.084  0.727  0.000   68.1    0.8   67.3    0.0
 2000 274    42  18.90  25.40  13.70  4.624  4.624  0.056  4.568  0.000   72.7    0.9   71.8    0.0
 2000 275    43  17.80  24.60  15.00  4.357  3.248  0.097  3.151  0.000   76.0    1.0   75.0    0.0
 2000 276    44   7.00  18.60  15.90  1.601  1.601  0.025  1.576  0.000   77.6    1.0   76.6    0.0
 2000 277    45  10.50  20.60  13.10  2.405  2.405  0.041  2.364  0.000   80.0    1.0   78.9    0.0
 2000 278    46  19.50  18.30  12.10  4.294  4.111  0.127  3.984  0.000   84.1    1.2   82.9    0.0
 2000 279    47  24.30  18.40   7.40  5.133  3.331  0.161  3.170  0.000   87.4    1.3   86.1    0.0
 2000 280    48  25.00  18.60   5.10  5.181  1.614  0.169  1.445  0.000   89.0    1.5   87.5    0.0
 2000 281    49  23.90  21.70   6.70  5.246  1.288  0.178  1.110  0.000   90.3    1.7   88.6    0.0
 2000 282    50  24.90  22.60   9.90  5.686  5.007  0.207  4.800  0.000   95.3    1.9   93.4    0.0
 2000 283    51   7.50  18.10  12.20  1.646  1.646  0.041  1.605  0.000   97.0    1.9   95.0    0.0
 2000 284    52  24.80  18.20   9.10  5.298  5.077  0.226  4.852  0.000  102.0    2.1   99.9    0.0
 2000 285    53  25.40  21.20   8.00  5.594  3.324  0.251  3.073  0.000  105.4    2.4  103.0    0.0
 2000 286    54  23.00  27.20  16.20  5.839  1.719  0.278  1.441  0.000  107.1    2.7  104.4    0.0
 2000 287    55  23.10  21.80  11.90  5.298  1.389  0.280  1.109  0.000  108.5    3.0  105.5    0.0
 2000 288    56   7.50  19.70  13.80  1.701  1.032  0.096  0.936  0.000  109.5    3.1  106.5    0.0
 2000 289    57   8.20  19.90  12.40  1.841  1.841  0.071  1.770  0.000  111.3    3.1  108.2    0.0
 2000 290    58  11.40  23.30  14.40  2.716  2.665  0.176  2.488  0.000  114.0    3.3  110.7    0.0
 2000 291    59  11.30  22.00  16.50  2.693  2.693  0.121  2.572  0.000  116.7    3.4  113.3    0.0
 2000 292    60   7.80  23.60  16.30  1.891  1.847  0.144  1.703  0.000  118.6    3.6  115.0    0.0
 2000 293    61  13.30  19.70  16.50  3.075  3.075  0.162  2.913  0.000  121.6    3.7  117.9    0.0
 2000 294    62   7.80  26.60  15.60  1.946  1.946  0.110  1.836  0.000  123.6    3.8  119.7    0.0
 2000 295    63  20.50  27.50  15.20  5.143  3.898  0.510  3.388  0.000  127.5    4.3  123.1    0.0
 2000 296    64   8.10  19.70  16.10  1.858  1.858  0.139  1.718  0.000  129.3    4.5  124.8    0.0
 2000 297    65   8.20  18.80  14.70  1.834  1.834  0.150  1.684  0.000  131.2    4.6  126.5    0.0
 2000 298    66   7.90  22.00  14.20  1.830  1.830  0.162  1.669  0.000  133.0    4.8  128.2    0.0
 2000 299    67  13.70  22.00  16.60  3.232  3.232  0.313  2.918  0.000  136.2    5.1  131.1    0.0
 2000 300    68  11.80  23.90  18.10  2.875  2.875  0.316  2.560  0.000  139.1    5.4  133.7    0.0
 2000 301    69  27.40  24.80  12.50  6.430  5.944  1.198  4.746  0.000  145.0    6.6  138.4    0.0
 2000 302    70  27.50  20.10   9.20  5.890  3.644  1.214  2.430  0.000  148.7    7.8  140.9    0.0
 2000 303    71  28.70  17.90   7.40  5.857  2.658  1.275  1.383  0.000  151.3    9.1  142.2    0.0
 2000 304    72  28.40  27.10   9.50  6.650  2.586  1.504  1.082  0.000  153.9   10.6  143.3    0.0
 2000 305    73  26.70  26.60  12.40  6.341  2.495  1.575  0.920  0.000  156.4   12.2  144.2    0.0
 2000 306    74   8.20  24.70  14.60  1.929  1.929  0.382  1.547  0.000  158.4   12.6  145.8    0.0
 2000 307    75  20.50  22.50  13.80  4.647  4.647  1.021  3.626  0.000  163.0   13.6  149.4    0.0
 2000 308    76  29.60  23.40   9.40  6.514  5.415  2.123  3.292  0.000  168.4   15.7  152.7    0.0
 2000 309    77  18.60  22.00  10.60  4.049  3.222  1.407  1.816  0.000  171.6   17.1  154.5    0.0
 2000 310    78  28.70  23.90  10.60  6.382  3.590  2.341  1.249  0.000  175.2   19.5  155.8    0.0
 2000 311    79  25.80  24.90  13.20  5.915  3.319  2.304  1.015  0.000  178.6   21.8  156.8    0.0
 2000 312    80  11.90  23.60  15.00  2.714  2.714  1.114  1.600  0.000  181.3   22.9  158.4    0.0
 2000 313    81  15.90  25.00  17.00  3.732  2.583  1.656  0.927  0.000  183.8   24.5  159.3    0.0
 2000 314    82   8.80  20.70  16.40  1.942  1.740  0.921  0.819  0.000  185.6   25.5  160.1    0.0
 2000 315    83  24.80  23.40  13.80  5.523  3.468  2.727  0.741  0.000  189.1   28.2  160.9    0.0
 2000 316    84  22.70  25.60  14.30  5.196  5.196  2.077  3.119  0.000  194.3   30.3  164.0    0.0
 2000 317    85  22.20  25.80  17.10  5.187  5.187  2.222  2.965  0.000  199.4   32.5  167.0    0.0
 2000 318    86  20.20  21.60  12.40  4.299  4.299  1.878  2.421  0.000  203.7   34.4  169.4    0.0
 2000 319    87  24.90  16.00   7.90  4.706  4.539  2.740  1.799  0.000  208.3   37.1  171.2    0.0
 2000 320    88  22.80  16.60   5.00  4.223  3.724  2.480  1.244  0.000  212.0   39.6  172.4    0.0
 2000 321    89  30.40  22.50   6.30  6.184  4.674  3.662  1.012  0.000  216.7   43.2  173.4    0.0
 2000 322    90  30.30  25.80   9.10  6.577  4.844  3.969  0.875  0.000  221.5   47.2  174.3    0.0
 2000 323    91  30.30  27.90  10.00  6.783  4.981  4.198  0.783  0.000  226.5   51.4  175.1    0.0
 2000 324    92  28.80  29.50  12.70  6.695  6.656  4.256  2.400  0.000  233.2   55.7  177.5    0.0
 2000 325    93  32.00  21.30  10.60  6.595  5.068  4.302  0.766  0.000  238.2   60.0  178.3    0.0
 2000 326    94  30.90  26.40   8.90  6.688  5.124  4.423  0.701  0.000  243.3   64.4  179.0    0.0
 2000 327    95  23.90  28.20  14.80  5.531  4.374  3.723  0.651  0.000  247.7   68.1  179.6    0.0
 2000 328    96  25.60  32.30  16.40  6.266  6.266  3.331  2.935  0.000  254.0   71.4  182.5    0.0
 2000 329    97  16.60  20.50  13.00  3.432  3.432  1.864  1.568  0.000  257.4   73.3  184.1    0.0
 2000 330    98  29.80  23.40   8.70  6.157  6.157  3.894  2.263  0.000  263.6   77.2  186.4    0.0
 2000 331    99  31.20  27.90  12.40  7.019  7.019  4.201  2.817  0.000  270.6   81.4  189.2    0.0
 2000 332   100  12.60  27.60  14.50  2.868  2.868  1.612  1.256  0.000  273.5   83.0  190.4    0.0
 2000 333   101   8.90  21.20  17.30  1.916  1.916  1.091  0.826  0.000  275.4   84.1  191.3    0.0
 2000 334   102  15.00  21.00  12.30  3.087  3.087  2.013  1.074  0.000  278.5   86.1  192.3    0.0
 2000 335   103  30.70  22.50  10.30  6.329  5.579  4.664  0.915  0.000  284.0   90.8  193.3    0.0
 2000 336   104  26.30  23.80   8.80  5.443  4.819  4.008  0.810  0.000  288.9   94.8  194.1    0.0
 2000 337   105  30.90  27.20  11.70  6.832  5.771  5.036  0.735  0.000  294.6   99.8  194.8    0.0
 2000 338   106  20.00  27.60  12.40  4.467  4.467  2.581  1.885  0.000  299.1  102.4  196.7    0.0
 2000 339   107  12.90  21.80  14.40  2.728  2.728  1.578  1.150  0.000  301.8  104.0  197.8    0.0
 2000 340   108  28.90  23.10  11.90  6.081  6.081  3.644  2.438  0.000  307.9  107.6  200.3    0.0
 2000 341   109  27.70  30.30  11.50  6.338  6.338  3.676  2.662  0.000  314.2  111.3  202.9    0.0
 2000 342   110  26.00  31.20  16.20  6.227  6.227  4.558  1.670  0.000  320.5  115.9  204.6    0.0
 2000 343   111  19.80  32.30  17.90  4.857  4.817  3.617  1.200  0.000  325.3  119.5  205.8    0.0
 2000 344   112  31.40  31.80  19.50  7.748  7.748  4.532  3.216  0.000  333.0  124.0  209.0    0.0
 2000 345   113  24.60  29.30  16.50  5.775  5.775  3.386  2.389  0.000  338.8  127.4  211.4    0.0
 2000 346   114  17.60  29.90  19.10  4.241  4.241  3.031  1.209  0.000  343.1  130.4  212.6    0.0
 2000 347   115  23.40  32.50  16.00  5.671  5.671  3.328  2.343  0.000  348.7  133.8  215.0    0.0
 2000 348   116  28.50  33.60  20.50  7.217  7.217  4.233  2.984  0.000  355.9  138.0  217.9    0.0
 2000 349   117  22.70  29.60  20.30  5.500  5.500  3.222  2.278  0.000  361.4  141.2  220.2    0.0
 2000 350   118  22.20  29.40  15.50  5.180  5.180  3.030  2.150  0.000  366.6  144.2  222.4    0.0
 2000 351   119  32.20  21.10   9.80  6.482  6.482  3.783  2.699  0.000  373.1  148.0  225.1    0.0
 2000 352   120  31.50  25.00  10.20  6.691  6.691  4.552  2.138  0.000  379.8  152.6  227.2    0.0
 2000 353   121  32.20  29.20  13.20  7.370  7.370  4.721  2.649  0.000  387.2  157.3  229.9    0.0
 2000 354   122  26.60  26.60  11.10  5.808  5.706  4.296  1.411  0.000  392.9  161.6  231.3    0.0
 2000 355   123  29.70  29.00  12.60  6.755  6.755  4.275  2.480  0.000  399.6  165.9  233.8    0.0
 2000 356   124   9.70  21.00  15.50  2.051  2.051  1.179  0.872  0.000  401.7  167.1  234.6    0.0
 2000 357   125  29.30  29.60  15.70  6.876  6.876  4.442  2.434  0.000  408.6  171.5  237.1    0.0
 2000 358   126  12.60  20.30  15.30  2.638  2.638  1.851  0.787  0.000  411.2  173.3  237.8    0.0
 2000 359   127  28.50  26.30  11.10  6.211  6.211  3.528  2.683  0.000  417.4  176.9  240.5    0.0
 2000 360   128  28.00  31.40  19.00  6.876  6.530  4.988  1.541  0.000  423.9  181.9  242.1    0.0
 2000 361   129  30.90  35.10  20.70  8.025  8.025  4.519  3.506  0.000  432.0  186.4  245.6    0.0
 2000 362   130   9.10  28.20  17.20  2.130  2.130  1.194  0.936  0.000  434.1  187.6  246.5    0.0
 2000 363   131  16.00  26.00  16.10  3.622  3.622  2.020  1.602  0.000  437.7  189.6  248.1    0.0
 2000 364   132  15.80  23.90  16.00  3.487  3.487  1.936  1.551  0.000  441.2  191.5  249.7    0.0
 2000 365   133  29.60  26.20  14.50  6.638  6.638  3.670  2.968  0.000  447.8  195.2  252.6    0.0
 2000 366   134  30.60  29.40  15.90  7.202  7.202  4.666  2.536  0.000  455.0  199.9  255.2    0.0
 2001 001   135  31.30  29.90  16.50  7.445  7.445  4.845  2.600  0.000  462.5  204.7  257.8    0.0
 2001 002   136  30.60  30.00  16.20  7.274  6.512  5.106  1.405  0.000  469.0  209.8  259.2    0.0
 2001 003   137  30.40  32.50  15.80  7.411  6.271  5.179  1.092  0.000  475.3  215.0  260.3    0.0
 2001 004   138  19.70  33.10  21.90  5.050  5.050  2.723  2.327  0.000  480.3  217.7  262.6    0.0
 2001 005   139  30.40  32.20  20.60  7.654  7.654  4.116  3.538  0.000  488.0  221.8  266.1    0.0
 2001 006   140  29.10  33.80  20.90  7.471  7.471  3.983  3.488  0.000  495.4  225.8  269.6    0.0
 2001 007   141  11.60  28.40  21.30  2.820  2.820  1.495  1.326  0.000  498.3  227.3  270.9    0.0
 2001 008   142  20.20  28.40  17.80  4.788  4.788  2.522  2.266  0.000  503.1  229.8  273.2    0.0
 2001 009   143  26.00  29.90  17.40  6.252  6.252  3.274  2.978  0.000  509.3  233.1  276.2    0.0
 2001 010   144   9.00  22.70  16.10  1.971  1.971  1.026  0.945  0.000  511.3  234.1  277.1    0.0
 2001 011   145  32.10  22.60  13.00  6.847  6.847  3.543  3.305  0.000  518.1  237.7  280.4    0.0
 2001 012   146  31.60  23.70   9.90  6.662  6.662  4.021  2.641  0.000  524.8  241.7  283.1    0.0
 2001 013   147  23.50  27.60  13.10  5.338  5.338  3.329  2.008  0.000  530.1  245.0  285.1    0.0
 2001 014   148  17.00  30.30  20.40  4.209  4.209  2.139  2.070  0.000  534.3  247.2  287.2    0.0
 2001 015   149  25.70  28.30  20.60  6.238  6.238  3.148  3.090  0.000  540.6  250.3  290.3    0.0
 2001 016   150  23.10  29.90  19.80  5.677  5.677  3.641  2.036  0.000  546.2  254.0  292.3    0.0
 2001 017   151  14.90  26.50  20.10  3.536  3.536  1.759  1.777  0.000  549.8  255.7  294.1    0.0
 2001 018   152  12.60  25.00  21.50  2.973  2.973  1.468  1.504  0.000  552.8  257.2  295.6    0.0
 2001 019   153  14.80  26.40  18.00  3.457  3.457  1.790  1.667  0.000  556.2  259.0  297.2    0.0
 2001 020   154  30.30  25.80  14.10  6.821  6.821  3.461  3.360  0.000  563.0  262.4  300.6    0.0
 2001 021   155  30.60  26.30  12.40  6.840  5.747  4.298  1.449  0.000  568.8  266.7  302.0    0.0
 2001 022   156  13.90  28.10  14.80  3.237  3.133  2.021  1.112  0.000  571.9  268.8  303.2    0.0
 2001 023   157  30.60  30.50  17.90  7.498  5.589  4.651  0.938  0.000  577.5  273.4  304.1    0.0
 2001 024   158  29.90  32.20  16.30  7.383  5.374  4.548  0.826  0.000  582.9  278.0  304.9    0.0
 2001 025   159  28.50  32.30  19.70  7.224  5.168  4.421  0.747  0.000  588.0  282.4  305.7    0.0
 2001 026   160  22.70  33.40  20.30  5.849  5.849  3.410  2.439  0.000  593.9  285.8  308.1    0.0
 2001 027   161   9.90  25.50  21.60  2.364  2.364  1.098  1.266  0.000  596.3  286.9  309.4    0.0
 2001 028   162   8.70  21.60  18.50  1.938  1.938  0.894  1.044  0.000  598.2  287.8  310.4    0.0
 2001 029   163  28.00  26.90  12.20  6.400  6.400  2.621  3.779  0.000  604.6  290.4  314.2    0.0
 2001 030   164  29.30  26.40  15.70  6.925  6.455  3.043  3.412  0.000  611.1  293.4  317.6    0.0
 2001 031   165  26.50  30.50  18.10  6.753  3.941  2.491  1.449  0.000  615.0  295.9  319.1    0.0
 2001 032   166  18.70  30.20  20.80  4.889  2.611  1.499  1.112  0.000  617.6  297.4  320.2    0.0
 2001 033   167  28.80  32.40  20.60  7.761  2.898  1.960  0.938  0.000  620.5  299.4  321.1    0.0
 2001 034   168  26.00  25.70  17.20  6.385  2.146  1.320  0.826  0.000  622.6  300.7  321.9    0.0
 2001 035   169  29.50  28.60  14.10  7.356  1.986  1.239  0.747  0.000  624.6  302.0  322.7    0.0
 2001 036   170  28.60  27.50  18.70  7.329  1.689  1.002  0.687  0.000  626.3  303.0  323.4    0.0
 2001 037   171  29.30  31.60  16.20  7.744  7.570  0.858  6.711  0.000  633.9  303.8  330.1    0.0
 2001 038   172  29.30  34.30  20.30  8.234  3.598  0.738  2.860  0.000  637.5  304.6  332.9    0.0
 2001 039   173  12.40  29.90  20.30  3.334  3.334  0.154  3.180  0.000  640.8  304.7  336.1    0.0

*DSSAT Cropping System Model Ver. 4.0.2.000               Aug 23, 2016; 18:27:45

*RUN   3        : UYSB                    
 MODEL          : CRGRO040 - Soybean         
 EXPERIMENT     : UYSB0327 SB    late to create DSS                             
 TREATMENT  1   : UYSB                    

@YEAR DOY   DAS   SRAA   TMXA   TMNA   EOAA   ETAA   EPAA   ESAA   EFAD   ETAC   EPAC   ESAC   EFAC
 2001 232     0  15.90  16.40   5.20  3.211  3.211  0.000  3.211  0.000    3.2    0.0    3.2    0.0
 2001 233     1  17.50  17.10   2.50  3.477  2.785  0.000  2.785  0.000    6.0    0.0    6.0    0.0
 2001 234     2  17.20  17.80   6.00  3.572  2.895  0.000  2.895  0.000    8.9    0.0    8.9    0.0
 2001 235     3  10.00  16.90   8.10  2.091  1.149  0.000  1.149  0.000   10.0    0.0   10.0    0.0
 2001 236     4   8.90  20.00   9.80  1.973  1.973  0.000  1.973  0.000   12.0    0.0   12.0    0.0
 2001 237     5  15.50  22.10   7.20  3.453  3.223  0.000  3.223  0.000   15.2    0.0   15.2    0.0
 2001 238     6  11.20  28.30  14.30  2.858  2.858  0.000  2.858  0.000   18.1    0.0   18.1    0.0
 2001 239     7  12.80  20.40   6.50  2.769  2.769  0.000  2.769  0.000   20.9    0.0   20.9    0.0
 2001 240     8  14.10  16.00   4.80  2.819  1.841  0.000  1.841  0.000   22.7    0.0   22.7    0.0
 2001 241     9  18.30  23.20   8.30  4.176  2.328  0.000  2.328  0.000   25.0    0.0   25.0    0.0
 2001 242    10  16.60  25.40  13.30  4.060  2.518  0.000  2.518  0.000   27.5    0.0   27.5    0.0
 2001 243    11   6.40  22.00  17.40  1.553  1.553  0.000  1.553  0.000   29.1    0.0   29.1    0.0
 2001 244    12   5.50  19.00  16.30  1.274  1.274  0.000  1.274  0.000   30.4    0.0   30.4    0.0
 2001 245    13   5.50  16.30  13.50  1.198  1.198  0.003  1.195  0.000   31.6    0.0   31.6    0.0
 2001 246    14   5.60  15.20  13.20  1.199  1.199  0.003  1.195  0.000   32.8    0.0   32.8    0.0
 2001 247    15   5.60  13.60  10.00  1.137  1.137  0.003  1.133  0.000   33.9    0.0   33.9    0.0
 2001 248    16   9.10  16.00   9.20  1.897  1.897  0.006  1.892  0.000   35.8    0.0   35.8    0.0
 2001 249    17   8.40  18.10  10.60  1.827  1.827  0.006  1.821  0.000   37.6    0.0   37.6    0.0
 2001 250    18   5.80  17.30  14.30  1.290  1.290  0.004  1.286  0.000   38.9    0.0   38.9    0.0
 2001 251    19  20.50  18.10   9.20  4.401  4.401  0.015  4.386  0.000   43.3    0.0   43.3    0.0
 2001 252    20  10.00  15.90   7.10  2.040  1.363  0.012  1.351  0.000   44.7    0.1   44.6    0.0
 2001 253    21  19.60  17.20   5.40  4.008  2.649  0.025  2.624  0.000   47.3    0.1   47.3    0.0
 2001 254    22  20.90  17.00   5.70  4.274  1.435  0.027  1.408  0.000   48.8    0.1   48.7    0.0
 2001 255    23  16.10  19.70   3.80  3.361  2.422  0.022  2.400  0.000   51.2    0.1   51.1    0.0
 2001 256    24  15.70  21.30   7.70  3.472  1.234  0.024  1.211  0.000   52.4    0.2   52.3    0.0
 2001 257    25  12.60  15.70   7.20  2.565  1.012  0.018  0.994  0.000   53.4    0.2   53.3    0.0
 2001 258    26  16.70  13.90   5.20  3.245  1.304  0.024  1.280  0.000   54.7    0.2   54.6    0.0
 2001 259    27  14.40  12.00   5.00  2.712  0.922  0.020  0.902  0.000   55.7    0.2   55.5    0.0
 2001 260    28  19.40  16.20   2.90  3.814  0.830  0.029  0.802  0.000   56.5    0.2   56.3    0.0
 2001 261    29  21.10  22.50   6.20  4.678  0.764  0.036  0.729  0.000   57.3    0.3   57.0    0.0
 2001 262    30  16.10  23.20  10.00  3.724  0.702  0.030  0.673  0.000   58.0    0.3   57.7    0.0
 2001 263    31  21.70  25.50  11.80  5.243  0.672  0.044  0.628  0.000   58.6    0.3   58.3    0.0
 2001 264    32  10.90  25.00  14.50  2.675  0.615  0.024  0.591  0.000   59.2    0.4   58.9    0.0
 2001 265    33  15.90  25.80  12.80  3.886  0.596  0.037  0.560  0.000   59.8    0.4   59.4    0.0
 2001 266    34  13.40  23.50  14.50  3.228  0.569  0.036  0.533  0.000   60.4    0.4   60.0    0.0
 2001 267    35  11.90  26.40  16.70  3.020  3.020  0.024  2.996  0.000   63.4    0.5   63.0    0.0
 2001 268    36   6.60  19.30  11.20  1.464  1.464  0.013  1.451  0.000   64.9    0.5   64.4    0.0
 2001 269    37   9.90  17.50  10.40  2.128  1.576  0.034  1.542  0.000   66.5    0.5   66.0    0.0
 2001 270    38   6.70  15.30   9.80  1.389  1.389  0.015  1.374  0.000   67.9    0.5   67.3    0.0
 2001 271    39   6.90  21.00  13.60  1.598  1.598  0.018  1.580  0.000   69.5    0.5   68.9    0.0
 2001 272    40  12.00  21.30  16.00  2.845  2.845  0.034  2.811  0.000   72.3    0.6   71.7    0.0
 2001 273    41   6.90  19.10  16.20  1.593  1.593  0.022  1.571  0.000   73.9    0.6   73.3    0.0
 2001 274    42   6.90  19.00  16.30  1.592  1.592  0.024  1.568  0.000   75.5    0.6   74.9    0.0
 2001 275    43   8.10  17.80  14.00  1.803  1.803  0.030  1.773  0.000   77.3    0.7   76.6    0.0
 2001 276    44   7.90  19.60  13.30  1.789  1.789  0.032  1.757  0.000   79.1    0.7   78.4    0.0
 2001 277    45  13.20  21.20  14.20  3.074  3.074  0.059  3.015  0.000   82.2    0.8   81.4    0.0
 2001 278    46  19.20  19.60  13.40  4.349  3.893  0.144  3.749  0.000   86.0    0.9   85.2    0.0
 2001 279    47  17.00  20.20  13.50  3.882  2.959  0.141  2.818  0.000   89.0    1.0   88.0    0.0
 2001 280    48   7.20  19.30  14.80  1.643  1.643  0.041  1.602  0.000   90.7    1.1   89.6    0.0
 2001 281    49  11.90  19.30  14.30  2.702  2.702  0.074  2.628  0.000   93.4    1.2   92.2    0.0
 2001 282    50  12.20  17.20  13.70  2.679  2.679  0.079  2.600  0.000   96.0    1.2   94.8    0.0
 2001 283    51  23.50  23.60  10.30  5.443  3.503  0.272  3.231  0.000   99.5    1.5   98.0    0.0
 2001 284    52  25.30  21.40  13.10  5.832  1.901  0.312  1.589  0.000  101.4    1.8   99.6    0.0
 2001 285    53  13.60  20.60  12.60  3.088  1.347  0.177  1.170  0.000  102.8    2.0  100.8    0.0
 2001 286    54  21.10  23.30  10.90  4.885  1.273  0.301  0.971  0.000  104.1    2.3  101.8    0.0
 2001 287    55  20.40  24.20  13.50  4.877  1.173  0.324  0.849  0.000  105.2    2.6  102.6    0.0
 2001 288    56   7.50  20.20  16.60  1.749  1.749  0.080  1.669  0.000  107.0    2.7  104.3    0.0
 2001 289    57  10.10  22.60  16.60  2.425  2.425  0.120  2.305  0.000  109.4    2.8  106.6    0.0
 2001 290    58  16.10  24.00  15.50  3.893  3.893  0.208  3.685  0.000  113.3    3.0  110.3    0.0
 2001 291    59  15.50  27.30  15.50  3.891  3.487  0.371  3.117  0.000  116.8    3.4  113.4    0.0
 2001 292    60  21.10  26.40  16.20  5.258  3.367  0.579  2.789  0.000  120.1    4.0  116.2    0.0
 2001 293    61  19.90  27.60  15.00  4.970  4.808  0.632  4.177  0.000  125.0    4.6  120.4    0.0
 2001 294    62  23.00  19.10  10.70  4.971  3.702  0.724  2.978  0.000  128.7    5.3  123.3    0.0
 2001 295    63  27.50  19.10   8.50  5.819  2.334  0.898  1.436  0.000  131.0    6.2  124.8    0.0
 2001 296    64  26.40  23.00   7.20  5.811  2.050  0.944  1.107  0.000  133.0    7.2  125.9    0.0
 2001 297    65  25.80  26.90  10.50  6.122  2.005  1.070  0.934  0.000  135.0    8.2  126.8    0.0
 2001 298    66  26.30  32.40  14.30  6.831  2.152  1.328  0.824  0.000  137.2    9.6  127.6    0.0
 2001 299    67   8.90  22.60  18.90  2.131  2.131  0.326  1.805  0.000  139.3    9.9  129.4    0.0
 2001 300    68   8.00  20.60  18.50  1.856  1.856  0.323  1.533  0.000  141.2   10.2  131.0    0.0
 2001 301    69   8.00  23.40  18.40  1.912  1.912  0.369  1.544  0.000  143.1   10.6  132.5    0.0
 2001 302    70   8.20  23.80  18.00  1.955  1.955  0.423  1.532  0.000  145.1   11.0  134.0    0.0
 2001 303    71  26.70  21.50  13.80  5.956  5.956  1.455  4.501  0.000  151.0   12.5  138.5    0.0
 2001 304    72  28.60  22.20  12.00  6.319  5.650  2.182  3.468  0.000  156.7   14.6  142.0    0.0
 2001 305    73  28.70  24.00  10.40  6.381  3.781  2.331  1.450  0.000  160.4   17.0  143.5    0.0
 2001 306    74  24.30  21.70  11.20  5.266  3.145  2.033  1.112  0.000  163.6   19.0  144.6    0.0
 2001 307    75  28.70  22.50  10.20  6.214  3.448  2.510  0.938  0.000  167.0   21.5  145.5    0.0
 2001 308    76  28.60  23.80  11.30  6.337  3.498  2.672  0.826  0.000  170.5   24.2  146.3    0.0
 2001 309    77  26.20  28.70  12.30  6.193  3.481  2.734  0.747  0.000  174.0   26.9  147.1    0.0
 2001 310    78  11.90  26.60  16.90  2.834  2.834  1.092  1.742  0.000  176.8   28.0  148.8    0.0
 2001 311    79   8.40  17.80  15.00  1.760  1.760  0.730  1.030  0.000  178.6   28.7  149.9    0.0
 2001 312    80  18.80  21.70  13.40  4.080  4.080  1.745  2.335  0.000  182.7   30.5  152.2    0.0
 2001 313    81  20.10  24.10  12.30  4.443  4.443  1.781  2.663  0.000  187.1   32.3  154.9    0.0
 2001 314    82  10.60  25.30  17.10  2.465  2.465  1.016  1.449  0.000  189.6   33.3  156.3    0.0
 2001 315    83  29.80  25.80  13.00  6.727  6.727  2.876  3.851  0.000  196.3   36.2  160.2    0.0
 2001 316    84  28.10  27.90  14.10  6.543  6.224  3.750  2.474  0.000  202.5   39.9  162.6    0.0
 2001 317    85  10.20  24.00  15.50  2.286  2.286  1.043  1.242  0.000  204.8   41.0  163.9    0.0
 2001 318    86  20.50  24.30  16.80  4.649  4.426  2.822  1.604  0.000  209.3   43.8  165.5    0.0
 2001 319    87  28.90  25.00  13.70  6.433  5.178  4.002  1.176  0.000  214.4   47.8  166.7    0.0
 2001 320    88  26.60  20.00  11.50  5.447  4.427  3.452  0.975  0.000  218.9   51.2  167.6    0.0
 2001 321    89  29.50  24.50   8.00  6.207  4.824  3.973  0.851  0.000  223.7   55.2  168.5    0.0
 2001 322    90  29.80  29.00  11.50  6.813  5.162  4.397  0.765  0.000  228.8   59.6  169.2    0.0
 2001 323    91  23.20  30.00  14.50  5.485  4.283  3.582  0.701  0.000  233.1   63.2  169.9    0.0
 2001 324    92  29.70  32.60  15.10  7.252  5.445  4.795  0.651  0.000  238.6   68.0  170.6    0.0
 2001 325    93  14.10  26.80  19.60  3.334  2.833  2.223  0.610  0.000  241.4   70.2  171.2    0.0
 2001 326    94  23.20  29.60  17.40  5.564  4.319  3.744  0.576  0.000  245.7   73.9  171.8    0.0
 2001 327    95  27.40  33.30  18.50  6.893  5.209  4.662  0.547  0.000  250.9   78.6  172.3    0.0
 2001 328    96   8.80  20.20  13.00  1.818  1.818  0.953  0.866  0.000  252.8   79.6  173.2    0.0
 2001 329    97  15.40  19.30  10.10  3.066  3.066  1.605  1.460  0.000  255.8   81.2  174.7    0.0
 2001 330    98   8.80  20.30  16.00  1.868  1.868  0.979  0.889  0.000  257.7   82.1  175.5    0.0
 2001 331    99  29.20  24.80  15.60  6.529  6.529  3.419  3.110  0.000  264.2   85.6  178.7    0.0
 2001 332   100  30.90  23.60  12.10  6.618  6.618  3.923  2.695  0.000  270.8   89.5  181.3    0.0
 2001 333   101  26.10  23.00  12.00  5.544  5.544  2.897  2.647  0.000  276.4   92.4  184.0    0.0
 2001 334   102   8.90  17.20  12.80  1.765  1.765  0.922  0.843  0.000  278.1   93.3  184.8    0.0
 2001 335   103  29.70  24.20  12.40  6.427  6.427  3.347  3.080  0.000  284.6   96.7  187.9    0.0
 2001 336   104  28.20  25.30  12.80  6.207  6.136  4.177  1.959  0.000  290.7  100.8  189.9    0.0
 2001 337   105  10.70  20.70  13.90  2.244  2.244  1.167  1.077  0.000  293.0  102.0  191.0    0.0
 2001 338   106  10.30  22.30  14.00  2.207  2.207  1.145  1.061  0.000  295.2  103.1  192.0    0.0
 2001 339   107  15.30  22.60  16.60  3.362  3.362  1.741  1.621  0.000  298.5  104.9  193.6    0.0
 2001 340   108  21.60  24.90  15.40  4.834  4.483  3.236  1.247  0.000  303.0  108.1  194.9    0.0
 2001 341   109  26.00  28.30  14.60  6.019  5.038  4.025  1.014  0.000  308.0  112.1  195.9    0.0
 2001 342   110  28.40  18.90  11.50  5.702  4.683  3.807  0.877  0.000  312.7  116.0  196.8    0.0
 2001 343   111  30.30  21.50   5.40  5.966  4.757  3.974  0.783  0.000  317.5  119.9  197.6    0.0
 2001 344   112  28.80  24.60  11.00  6.199  4.837  4.122  0.715  0.000  322.3  124.0  198.3    0.0
 2001 345   113  23.40  25.00  10.50  5.043  4.005  3.344  0.662  0.000  326.3  127.4  198.9    0.0
 2001 346   114  19.60  29.20  15.40  4.618  3.672  3.053  0.619  0.000  330.0  130.4  199.6    0.0
 2001 347   115  19.30  28.10  19.20  4.623  3.629  3.045  0.584  0.000  333.6  133.5  200.1    0.0
 2001 348   116  22.70  26.80  19.10  5.356  5.356  2.713  2.643  0.000  339.0  136.2  202.8    0.0
 2001 349   117  27.00  25.80  16.00  6.150  6.150  3.103  3.047  0.000  345.1  139.3  205.8    0.0
 2001 350   118  24.50  25.70  13.80  5.480  5.331  3.571  1.760  0.000  350.5  142.9  207.6    0.0
 2001 351   119  30.80  28.30  12.90  7.057  6.919  4.581  2.339  0.000  357.4  147.5  209.9    0.0
 2001 352   120  30.70  27.80  13.70  7.040  5.920  4.551  1.369  0.000  363.3  152.0  211.3    0.0
 2001 353   121  18.50  30.00  15.90  4.426  3.927  2.852  1.075  0.000  367.2  154.9  212.4    0.0
 2001 354   122  16.80  31.00  18.70  4.150  3.578  2.663  0.915  0.000  370.8  157.5  213.3    0.0
 2001 355   123   9.10  20.40  15.70  1.940  1.940  0.954  0.986  0.000  372.7  158.5  214.3    0.0
 2001 356   124  28.40  24.30  16.10  6.377  6.377  3.122  3.255  0.000  379.1  161.6  217.5    0.0
 2001 357   125  31.00  26.80  10.40  6.855  6.855  4.043  2.812  0.000  386.0  165.6  220.3    0.0
 2001 358   126  29.70  27.10  13.30  6.749  6.749  4.147  2.602  0.000  392.7  169.8  222.9    0.0
 2001 359   127  31.60  28.30  13.70  7.309  5.993  4.588  1.405  0.000  398.7  174.4  224.3    0.0
 2001 360   128  31.40  30.40  14.50  7.489  5.771  4.678  1.092  0.000  404.5  179.1  225.4    0.0
 2001 361   129  30.20  31.60  17.50  7.467  5.567  4.641  0.926  0.000  410.1  183.7  226.4    0.0
 2001 362   130  28.50  31.00  16.80  6.968  5.126  4.308  0.818  0.000  415.2  188.0  227.2    0.0
 2001 363   131  26.60  30.00  18.60  6.521  6.521  3.084  3.437  0.000  421.7  191.1  230.6    0.0
 2001 364   132  25.90  31.40  18.80  6.460  6.460  3.038  3.422  0.000  428.2  194.1  234.0    0.0
 2001 365   133  19.00  31.30  18.90  4.740  4.740  2.216  2.524  0.000  432.9  196.3  236.6    0.0
 2002 001   134  30.50  28.40  16.80  7.258  6.738  4.386  2.353  0.000  439.6  200.7  238.9    0.0
 2002 002   135  27.00  28.20  17.60  6.453  5.765  3.877  1.889  0.000  445.4  204.6  240.8    0.0
 2002 003   136  30.90  27.40  16.70  7.272  5.613  4.342  1.270  0.000  451.0  208.9  242.1    0.0
 2002 004   137  25.70  28.00  15.90  6.056  4.621  3.595  1.026  0.000  455.6  212.5  243.1    0.0
 2002 005   138   9.10  21.90  18.90  2.044  2.044  0.928  1.117  0.000  457.7  213.5  244.2    0.0
 2002 006   139  18.10  24.80  17.90  4.178  4.178  1.885  2.293  0.000  461.9  215.4  246.5    0.0
 2002 007   140  29.60  23.80  13.70  6.531  6.531  2.929  3.602  0.000  468.4  218.3  250.1    0.0
 2002 008   141  31.30  28.60  11.80  7.210  6.617  4.178  2.439  0.000  475.0  222.5  252.6    0.0
 2002 009   142  27.00  27.20  15.70  6.311  5.508  3.635  1.873  0.000  480.5  226.1  254.4    0.0
 2002 010   143  28.40  29.10  15.70  6.788  5.150  3.885  1.266  0.000  485.7  230.0  255.7    0.0
 2002 011   144  25.50  30.40  18.30  6.309  4.610  3.587  1.024  0.000  490.3  233.6  256.7    0.0
 2002 012   145  30.40  32.30  18.60  7.700  5.230  4.347  0.883  0.000  495.5  237.9  257.6    0.0
 2002 013   146  27.80  32.60  19.80  7.129  7.129  3.078  4.051  0.000  502.6  241.0  261.6    0.0
 2002 014   147  12.90  23.70  14.90  2.882  2.882  1.236  1.646  0.000  505.5  242.2  263.3    0.0
 2002 015   148  29.40  23.30  11.00  6.331  6.331  2.830  3.501  0.000  511.9  245.1  266.8    0.0
 2002 016   149  29.90  24.00  11.30  6.516  6.516  3.209  3.307  0.000  518.4  248.3  270.1    0.0
 2002 017   150  25.10  25.60  12.20  5.623  4.520  3.071  1.448  0.000  522.9  251.3  271.6    0.0
 2002 018   151  29.50  24.90  13.20  6.610  4.699  3.587  1.112  0.000  527.6  254.9  272.7    0.0
 2002 019   152  30.50  28.70  13.40  7.165  4.801  3.864  0.937  0.000  532.4  258.8  273.6    0.0
 2002 020   153  25.20  34.50  17.40  6.507  5.885  3.485  2.400  0.000  538.3  262.3  276.0    0.0
 2002 021   154  18.90  29.00  20.00  4.688  3.387  2.493  0.894  0.000  541.7  264.8  276.9    0.0
 2002 022   155  27.50  32.30  19.30  7.119  4.017  3.221  0.796  0.000  545.7  268.0  277.7    0.0
 2002 023   156  25.00  33.00  17.30  6.498  3.196  2.471  0.724  0.000  548.9  270.5  278.4    0.0
 2002 024   157  13.50  29.40  19.60  3.464  3.464  0.809  2.654  0.000  552.3  271.3  281.1    0.0
 2002 025   158  26.00  29.30  19.30  6.704  6.363  1.750  4.613  0.000  558.7  273.0  285.7    0.0
 2002 026   159  12.60  25.80  18.80  3.133  3.125  0.670  2.455  0.000  561.8  273.7  288.1    0.0
 2002 027   160  17.30  26.60  19.80  4.400  3.208  0.768  2.440  0.000  565.0  274.5  290.6    0.0
 2002 028   161  29.90  31.20  16.40  7.844  3.064  1.113  1.952  0.000  568.1  275.6  292.5    0.0
 2002 029   162  29.70  33.10  16.30  7.981  2.204  0.917  1.287  0.000  570.3  276.5  293.8    0.0
 2002 030   163  27.50  30.90  18.00  7.328  7.214  0.681  6.533  0.000  577.5  277.2  300.4    0.0
 2002 031   164  20.90  27.70  19.10  5.433  3.415  0.408  3.007  0.000  580.9  277.6  303.4    0.0
 2002 032   165  29.80  25.40  16.60  7.416  1.887  0.449  1.438  0.000  582.8  278.0  304.8    0.0

*DSSAT Cropping System Model Ver. 4.0.2.000               Aug 23, 2016; 18:27:45

*RUN   4        : UYSB                    
 MODEL          : CRGRO040 - Soybean         
 EXPERIMENT     : UYSB0327 SB    late to create DSS                             
 TREATMENT  1   : UYSB                    

@YEAR DOY   DAS   SRAA   TMXA   TMNA   EOAA   ETAA   EPAA   ESAA   EFAD   ETAC   EPAC   ESAC   EFAC
 2002 232     0   5.00  13.00   9.60  1.003  1.003  0.000  1.003  0.000    1.0    0.0    1.0    0.0
 2002 233     1  16.60  17.40   7.70  3.483  2.408  0.000  2.408  0.000    3.4    0.0    3.4    0.0
 2002 234     2  18.10  17.60   4.30  3.687  2.241  0.000  2.241  0.000    5.7    0.0    5.7    0.0
 2002 235     3   9.50  21.20  13.00  2.200  2.200  0.000  2.200  0.000    7.9    0.0    7.9    0.0
 2002 236     4  15.40  28.00  15.40  3.949  3.889  0.000  3.889  0.000   11.7    0.0   11.7    0.0
 2002 237     5  16.60  32.00  17.90  4.535  3.412  0.000  3.412  0.000   15.2    0.0   15.2    0.0
 2002 238     6  18.10  32.00  20.20  5.027  1.449  0.000  1.449  0.000   16.6    0.0   16.6    0.0
 2002 239     7  18.10  27.00  18.00  4.680  1.112  0.000  1.112  0.000   17.7    0.0   17.7    0.0
 2002 240     8  14.80  28.20  16.20  3.827  3.827  0.000  3.827  0.000   21.5    0.0   21.5    0.0
 2002 241     9   9.00  18.00  10.30  1.951  1.951  0.000  1.951  0.000   23.5    0.0   23.5    0.0
 2002 242    10  18.40  14.30   6.40  3.645  3.076  0.000  3.076  0.000   26.6    0.0   26.6    0.0
 2002 243    11  16.00  12.00   4.10  2.986  2.761  0.012  2.749  0.000   29.3    0.0   29.3    0.0
 2002 244    12  12.50  10.50   2.90  2.248  1.429  0.009  1.420  0.000   30.8    0.0   30.7    0.0
 2002 245    13  18.70  13.70   0.30  3.444  1.113  0.014  1.099  0.000   31.9    0.0   31.8    0.0
 2002 246    14  17.30  16.20   3.10  3.409  0.944  0.014  0.930  0.000   32.8    0.1   32.8    0.0
 2002 247    15  19.60  20.30   4.20  4.143  0.839  0.018  0.821  0.000   33.7    0.1   33.6    0.0
 2002 248    16  16.90  23.00   7.00  3.800  1.618  0.018  1.600  0.000   35.3    0.1   35.2    0.0
 2002 249    17   5.70  16.70   6.70  1.172  1.172  0.004  1.169  0.000   36.4    0.1   36.4    0.0
 2002 250    18  16.80  15.40   4.80  3.327  2.242  0.017  2.224  0.000   38.7    0.1   38.6    0.0
 2002 251    19  19.00  16.10   4.20  3.779  1.369  0.020  1.349  0.000   40.1    0.1   39.9    0.0
 2002 252    20  19.20  19.00   7.00  4.090  1.088  0.022  1.066  0.000   41.1    0.1   41.0    0.0
 2002 253    21   5.90  18.20   9.50  1.272  1.272  0.004  1.267  0.000   42.4    0.2   42.3    0.0
 2002 254    22   6.00  17.10  15.50  1.345  1.345  0.005  1.340  0.000   43.8    0.2   43.6    0.0
 2002 255    23  18.60  17.40   9.90  3.980  3.980  0.016  3.964  0.000   47.7    0.2   47.6    0.0
 2002 256    24  20.70  18.20   6.90  4.356  2.910  0.029  2.881  0.000   50.7    0.2   50.4    0.0
 2002 257    25  20.40  18.40   7.50  4.329  1.971  0.030  1.941  0.000   52.6    0.2   52.4    0.0
 2002 258    26  14.90  17.10   9.00  3.148  1.307  0.022  1.284  0.000   53.9    0.3   53.7    0.0
 2002 259    27   9.30  18.00  10.20  2.012  1.615  0.015  1.600  0.000   55.5    0.3   55.3    0.0
 2002 260    28   6.30  19.20  15.00  1.445  1.112  0.011  1.101  0.000   56.7    0.3   56.4    0.0
 2002 261    29   6.90  19.10  13.80  1.564  1.564  0.008  1.556  0.000   58.2    0.3   57.9    0.0
 2002 262    30   8.70  20.20   7.50  1.892  1.892  0.010  1.882  0.000   60.1    0.3   59.8    0.0
 2002 263    31  20.70  15.70   5.20  4.132  4.132  0.023  4.109  0.000   64.2    0.3   63.9    0.0
 2002 264    32  21.00  17.70   5.50  4.328  2.625  0.039  2.586  0.000   66.9    0.4   66.5    0.0
 2002 265    33  19.50  21.80   6.00  4.275  1.809  0.039  1.769  0.000   68.7    0.4   68.3    0.0
 2002 266    34  21.90  19.10   8.10  4.716  1.281  0.047  1.234  0.000   70.0    0.4   69.5    0.0
 2002 267    35  22.20  21.10   5.40  4.793  1.059  0.052  1.007  0.000   71.0    0.5   70.5    0.0
 2002 268    36  22.90  25.10   9.20  5.386  0.935  0.063  0.872  0.000   72.0    0.6   71.4    0.0
 2002 269    37  22.00  25.00   7.80  5.106  0.847  0.067  0.780  0.000   72.8    0.6   72.2    0.0
 2002 270    38  22.10  26.40  10.00  5.315  0.789  0.077  0.713  0.000   73.6    0.7   72.9    0.0
 2002 271    39  18.10  29.40  14.60  4.677  0.735  0.075  0.660  0.000   74.3    0.8   73.5    0.0
 2002 272    40   6.80  17.40  15.50  1.527  1.527  0.017  1.510  0.000   75.9    0.8   75.1    0.0
 2002 273    41  15.40  20.40  13.20  3.525  3.525  0.043  3.482  0.000   79.4    0.8   78.5    0.0
 2002 274    42  18.00  21.60  10.30  4.080  2.907  0.089  2.818  0.000   82.3    0.9   81.4    0.0
 2002 275    43  15.10  24.60  12.70  3.627  3.627  0.054  3.573  0.000   85.9    1.0   84.9    0.0
 2002 276    44  22.90  23.00  15.10  5.498  4.361  0.146  4.215  0.000   90.3    1.1   89.1    0.0
 2002 277    45  14.70  25.90  12.50  3.578  2.247  0.104  2.142  0.000   92.5    1.2   91.3    0.0
 2002 278    46  14.90  23.70  18.50  3.705  1.451  0.118  1.333  0.000   94.0    1.4   92.6    0.0
 2002 279    47  14.10  28.70  17.60  3.686  3.686  0.083  3.604  0.000   97.7    1.4   96.2    0.0
 2002 280    48   7.90  21.20  12.30  1.807  1.807  0.047  1.760  0.000   99.5    1.5   98.0    0.0
 2002 281    49   7.20  21.00  15.20  1.683  1.683  0.048  1.635  0.000  101.1    1.5   99.6    0.0
 2002 282    50   7.30  19.10  18.00  1.705  1.705  0.053  1.652  0.000  102.8    1.6  101.3    0.0
 2002 283    51   7.30  19.50  17.60  1.706  1.706  0.057  1.649  0.000  104.6    1.6  102.9    0.0
 2002 284    52   9.20  23.50  17.60  2.257  2.257  0.082  2.176  0.000  106.8    1.7  105.1    0.0
 2002 285    53  20.90  29.00  17.90  5.473  4.370  0.349  4.021  0.000  111.2    2.1  109.1    0.0
 2002 286    54  25.10  30.10  19.80  6.739  2.592  0.481  2.111  0.000  113.8    2.6  111.2    0.0
 2002 287    55  24.30  31.10  20.10  6.602  1.851  0.525  1.326  0.000  115.6    3.1  112.5    0.0
 2002 288    56   8.50  30.20  21.70  2.311  2.311  0.131  2.180  0.000  117.9    3.2  114.7    0.0
 2002 289    57  10.20  20.80  12.80  2.311  2.311  0.152  2.159  0.000  120.2    3.4  116.9    0.0
 2002 290    58  25.70  21.70   9.90  5.738  4.490  0.628  3.862  0.000  124.7    4.0  120.8    0.0
 2002 291    59  24.20  25.70  12.40  5.796  2.618  0.684  1.933  0.000  127.4    4.7  122.7    0.0
 2002 292    60   8.20  24.30  18.90  2.029  2.029  0.177  1.852  0.000  129.4    4.8  124.5    0.0
 2002 293    61   8.30  25.60  13.80  1.998  1.998  0.200  1.798  0.000  131.4    5.0  126.3    0.0
 2002 294    62  20.50  13.00   7.00  3.909  3.674  0.651  3.023  0.000  135.1    5.7  129.4    0.0
 2002 295    63  25.00  18.90   5.00  5.095  3.755  0.864  2.891  0.000  138.8    6.6  132.2    0.0
 2002 296    64  23.30  23.00   7.00  5.109  2.334  0.902  1.431  0.000  141.1    7.5  133.7    0.0
 2002 297    65  24.20  26.20  16.70  5.970  2.234  1.130  1.104  0.000  143.4    8.6  134.8    0.0
 2002 298    66  11.90  22.60  15.80  2.781  1.532  0.599  0.933  0.000  144.9    9.2  135.7    0.0
 2002 299    67  24.00  27.70  16.80  5.985  5.985  1.000  4.985  0.000  150.9   10.2  140.7    0.0
 2002 300    68   8.30  24.70  18.90  2.022  1.930  0.545  1.386  0.000  152.8   10.7  142.1    0.0
 2002 301    69  18.00  26.90  17.80  4.445  4.445  0.951  3.494  0.000  157.3   11.7  145.6    0.0
 2002 302    70  12.70  18.20  11.60  2.662  2.662  0.643  2.019  0.000  159.9   12.3  147.6    0.0
 2002 303    71   8.90  19.90   9.90  1.876  1.668  0.631  1.037  0.000  161.6   13.0  148.6    0.0
 2002 304    72  26.60  23.10  12.10  5.947  5.062  2.069  2.993  0.000  166.7   15.0  151.6    0.0
 2002 305    73  25.60  23.20  12.40  5.727  3.549  2.112  1.437  0.000  170.2   17.1  153.1    0.0
 2002 306    74  22.10  25.30  15.10  5.170  3.120  2.013  1.107  0.000  173.3   19.2  154.2    0.0
 2002 307    75   8.20  17.40  13.70  1.709  1.709  0.565  1.144  0.000  175.0   19.7  155.3    0.0
 2002 308    76  15.80  16.00  10.50  3.133  3.133  1.068  2.065  0.000  178.2   20.8  157.4    0.0
 2002 309    77  28.00  19.20   7.40  5.634  5.634  2.315  3.320  0.000  183.8   23.1  160.7    0.0
 2002 310    78  28.10  21.60   8.90  5.911  5.625  2.614  3.011  0.000  189.4   25.7  163.7    0.0
 2002 311    79  25.70  26.00  12.20  5.865  4.109  2.671  1.438  0.000  193.5   28.4  165.2    0.0
 2002 312    80  26.10  28.20  14.70  6.216  4.068  2.961  1.107  0.000  197.6   31.4  166.3    0.0
 2002 313    81  10.40  20.60  16.30  2.282  2.282  0.970  1.311  0.000  199.9   32.3  167.6    0.0
 2002 314    82  19.20  17.70  10.80  3.857  3.857  1.537  2.319  0.000  203.7   33.9  169.9    0.0
 2002 315    83   8.50  22.80  12.30  1.848  1.848  0.746  1.102  0.000  205.6   34.6  171.0    0.0
 2002 316    84  28.80  27.40   9.90  6.486  6.254  3.457  2.797  0.000  211.9   38.1  173.8    0.0
 2002 317    85  28.90  30.40  12.80  6.882  6.067  3.776  2.290  0.000  217.9   41.8  176.1    0.0
 2002 318    86  22.00  30.00  17.30  5.381  5.381  2.661  2.720  0.000  223.3   44.5  178.8    0.0
 2002 319    87  15.70  24.90  19.50  3.676  3.676  2.113  1.562  0.000  227.0   46.6  180.4    0.0
 2002 320    88  29.00  30.40  18.00  7.127  5.426  4.266  1.160  0.000  232.4   50.9  181.5    0.0
 2002 321    89  10.30  27.60  20.30  2.491  2.488  1.522  0.965  0.000  234.9   52.4  182.5    0.0
 2002 322    90  28.70  28.60  19.20  6.951  5.169  4.325  0.845  0.000  240.1   56.7  183.3    0.0
 2002 323    91  18.70  27.70  15.30  4.347  4.347  2.112  2.235  0.000  244.4   58.8  185.6    0.0
 2002 324    92   9.40  24.40  18.80  2.158  2.158  1.062  1.096  0.000  246.6   59.9  186.7    0.0
 2002 325    93  22.30  24.00  15.20  4.947  4.947  2.454  2.493  0.000  251.5   62.4  189.2    0.0
 2002 326    94  29.70  24.60  11.50  6.437  6.437  3.536  2.901  0.000  257.9   65.9  192.1    0.0
 2002 327    95  28.80  31.00  15.10  6.923  6.923  3.879  3.044  0.000  264.9   69.8  195.1    0.0
 2002 328    96  18.70  29.00  22.10  4.628  4.628  2.316  2.312  0.000  269.5   72.1  197.4    0.0
 2002 329    97   9.70  24.60  19.00  2.232  2.232  1.114  1.118  0.000  271.7   73.2  198.5    0.0
 2002 330    98  24.00  28.30  18.50  5.741  5.741  2.864  2.877  0.000  277.5   76.1  201.4    0.0
 2002 331    99  13.80  29.30  18.60  3.341  3.341  1.663  1.678  0.000  280.8   77.7  203.1    0.0
 2002 332   100  10.40  19.00  14.80  2.159  2.159  1.378  0.781  0.000  283.0   79.1  203.9    0.0
 2002 333   101   8.90  23.60  16.90  1.992  1.992  0.988  1.004  0.000  285.0   80.1  204.9    0.0
 2002 334   102  22.90  28.70  19.40  5.544  5.544  2.740  2.805  0.000  290.5   82.8  207.7    0.0
 2002 335   103   9.00  20.00  16.80  1.927  1.927  0.948  0.979  0.000  292.4   83.8  208.7    0.0
 2002 336   104  29.00  24.10  14.40  6.407  6.407  3.139  3.269  0.000  298.8   86.9  211.9    0.0
 2002 337   105  21.40  26.60  14.90  4.893  4.893  2.388  2.505  0.000  303.7   89.3  214.4    0.0
 2002 338   106  10.30  21.00  17.80  2.254  2.254  1.096  1.158  0.000  306.0   90.4  215.6    0.0
 2002 339   107  17.30  27.80  19.90  4.170  4.170  2.019  2.151  0.000  310.2   92.4  217.7    0.0
 2002 340   108  10.20  25.80  19.80  2.403  2.403  1.159  1.244  0.000  312.6   93.6  219.0    0.0
 2002 341   109  15.10  24.60  15.10  3.382  3.382  1.623  1.759  0.000  315.9   95.2  220.7    0.0
 2002 342   110  27.20  22.60  11.50  5.771  5.731  3.585  2.146  0.000  321.7   98.8  222.9    0.0
 2002 343   111  28.00  25.00  15.70  6.336  6.336  3.903  2.434  0.000  328.0  102.7  225.3    0.0
 2002 344   112  13.50  22.90  16.10  2.989  2.892  1.842  1.050  0.000  330.9  104.5  226.4    0.0
 2002 345   113  30.40  27.60  18.60  7.257  7.255  4.452  2.803  0.000  338.2  109.0  229.2    0.0
 2002 346   114  24.20  25.80  16.90  5.588  4.836  3.412  1.425  0.000  343.0  112.4  230.6    0.0
 2002 347   115  17.90  25.00  17.00  4.099  3.593  2.491  1.101  0.000  346.6  114.9  231.7    0.0
 2002 348   116  21.70  29.10  18.80  5.283  4.127  3.196  0.931  0.000  350.7  118.1  232.6    0.0
 2002 349   117  20.90  29.60  19.80  5.156  3.926  3.104  0.822  0.000  354.6  121.2  233.5    0.0
 2002 350   118  29.60  27.90  19.30  7.143  5.022  4.278  0.744  0.000  359.7  125.5  234.2    0.0
 2002 351   119  26.00  26.40  17.00  6.063  4.297  3.613  0.684  0.000  364.0  129.1  234.9    0.0
 2002 352   120  31.90  27.90  13.60  7.376  7.376  3.364  4.012  0.000  371.3  132.4  238.9    0.0
 2002 353   121   9.10  21.20  15.70  1.974  1.974  0.896  1.078  0.000  373.3  133.3  240.0    0.0
 2002 354   122  22.80  25.00  16.20  5.204  5.204  2.351  2.853  0.000  378.5  135.7  242.8    0.0
 2002 355   123  30.80  27.10  14.00  7.087  7.087  3.918  3.169  0.000  385.6  139.6  246.0    0.0
 2002 356   124   9.50  28.90  18.60  2.313  2.313  1.033  1.279  0.000  387.9  140.6  247.3    0.0
 2002 357   125  12.60  18.30  11.60  2.546  2.546  1.131  1.415  0.000  390.5  141.8  248.7    0.0
 2002 358   126  26.70  23.20  11.60  5.753  5.753  2.543  3.210  0.000  396.2  144.3  251.9    0.0
 2002 359   127  31.60  27.20  12.20  7.191  6.563  4.107  2.456  0.000  402.8  148.4  254.4    0.0
 2002 360   128  31.80  30.10  15.60  7.686  6.229  4.368  1.861  0.000  409.0  152.8  256.2    0.0
 2002 361   129  31.40  34.00  17.60  8.041  5.803  4.540  1.262  0.000  414.8  157.3  257.5    0.0
 2002 362   130   9.10  27.20  21.40  2.226  2.226  1.204  1.022  0.000  417.0  158.5  258.5    0.0
 2002 363   131   9.10  28.60  20.90  2.254  2.138  1.256  0.882  0.000  419.2  159.8  259.4    0.0
 2002 364   132  15.10  28.20  18.70  3.665  3.665  1.563  2.102  0.000  422.8  161.4  261.5    0.0
 2002 365   133  10.80  24.70  18.20  2.510  2.262  1.379  0.884  0.000  425.1  162.7  262.4    0.0
 2003 001   134  18.80  26.10  18.40  4.450  3.216  2.427  0.789  0.000  428.3  165.2  263.2    0.0
 2003 002   135  22.70  26.10  17.50  5.339  3.609  2.891  0.719  0.000  431.9  168.1  263.9    0.0
 2003 003   136   9.90  25.10  17.50  2.303  1.902  1.238  0.665  0.000  433.8  169.3  264.5    0.0
 2003 004   137  30.40  29.60  18.40  7.500  4.622  4.001  0.621  0.000  438.4  173.3  265.2    0.0
 2003 005   138  28.70  31.30  16.40  7.114  4.351  3.766  0.586  0.000  442.8  177.1  265.7    0.0
 2003 006   139  30.90  27.20  16.50  7.322  4.403  3.847  0.555  0.000  447.2  180.9  266.3    0.0
 2003 007   140  31.30  29.70  14.70  7.533  4.459  3.930  0.529  0.000  451.7  184.8  266.8    0.0
 2003 008   141  29.90  30.60  14.80  7.279  7.279  2.918  4.361  0.000  458.9  187.8  271.2    0.0
 2003 009   142  25.30  30.00  19.80  6.352  6.352  2.530  3.822  0.000  465.3  190.3  275.0    0.0
 2003 010   143  11.60  27.80  20.80  2.865  2.865  1.134  1.732  0.000  468.2  191.4  276.7    0.0
 2003 011   144  23.60  30.00  17.60  5.837  5.519  2.959  2.560  0.000  473.7  194.4  279.3    0.0
 2003 012   145  31.30  29.90  16.10  7.651  6.175  3.852  2.324  0.000  479.9  198.2  281.6    0.0
 2003 013   146  30.70  29.50  13.30  7.317  5.026  3.660  1.367  0.000  484.9  201.9  283.0    0.0
 2003 014   147  30.50  31.20  16.20  7.577  4.841  3.767  1.074  0.000  489.7  205.7  284.1    0.0
 2003 015   148  27.20  31.70  18.70  6.922  4.335  3.420  0.915  0.000  494.1  209.1  285.0    0.0
 2003 016   149  27.70  31.80  20.20  7.137  4.314  3.504  0.810  0.000  498.4  212.6  285.8    0.0
 2003 017   150  27.30  33.70  19.90  7.165  4.231  3.496  0.735  0.000  502.6  216.1  286.5    0.0
 2003 018   151  28.50  27.70  17.10  6.940  3.541  2.863  0.678  0.000  506.1  218.9  287.2    0.0
 2003 019   152  25.60  31.90  14.90  6.494  6.494  1.688  4.806  0.000  512.6  220.6  292.0    0.0
 2003 020   153  20.40  27.80  19.70  5.169  4.415  1.478  2.937  0.000  517.1  222.1  294.9    0.0
 2003 021   154  28.40  30.00  17.50  7.310  3.886  1.719  2.167  0.000  520.9  223.8  297.1    0.0
 2003 022   155  15.60  30.50  20.00  4.138  3.676  0.796  2.880  0.000  524.6  224.6  300.0    0.0
 2003 023   156  27.70  26.60  17.60  6.946  2.632  1.087  1.546  0.000  527.2  225.7  301.5    0.0
 2003 024   157  29.20  27.90  11.50  7.120  2.056  0.903  1.153  0.000  529.3  226.6  302.7    0.0
 2003 025   158  26.50  29.70  16.40  6.876  1.666  0.705  0.962  0.000  531.0  227.3  303.7    0.0
 2003 026   159  29.30  30.10  14.90  7.574  1.469  0.627  0.842  0.000  532.4  227.9  304.5    0.0
 2003 027   160  26.80  30.20  14.00  6.905  1.219  0.461  0.759  0.000  533.7  228.4  305.3    0.0
 2003 028   161  29.30  31.80  15.80  7.804  1.115  0.419  0.696  0.000  534.8  228.8  306.0    0.0

*DSSAT Cropping System Model Ver. 4.0.2.000               Aug 23, 2016; 18:27:45

*RUN   5        : UYSB                    
 MODEL          : CRGRO040 - Soybean         
 EXPERIMENT     : UYSB0327 SB    late to create DSS                             
 TREATMENT  1   : UYSB                    

@YEAR DOY   DAS   SRAA   TMXA   TMNA   EOAA   ETAA   EPAA   ESAA   EFAD   ETAC   EPAC   ESAC   EFAC
 2003 232     0  16.40  27.00   6.90  3.882  2.562  0.000  2.562  0.000    2.6    0.0    2.6    0.0
 2003 233     1  14.70  31.20  14.30  3.877  3.041  0.000  3.041  0.000    5.6    0.0    5.6    0.0
 2003 234     2   5.20  13.70   6.40  1.021  1.021  0.000  1.021  0.000    6.6    0.0    6.6    0.0
 2003 235     3   5.10   8.70   6.70  0.929  0.929  0.000  0.929  0.000    7.6    0.0    7.6    0.0
 2003 236     4  14.10  12.10   3.20  2.612  2.612  0.000  2.612  0.000   10.2    0.0   10.2    0.0
 2003 237     5  10.20  10.90   0.70  1.803  1.803  0.000  1.803  0.000   12.0    0.0   12.0    0.0
 2003 238     6  13.60  12.80  -2.40  2.397  1.701  0.000  1.701  0.000   13.7    0.0   13.7    0.0
 2003 239     7  11.90   9.30   4.10  2.127  2.127  0.000  2.127  0.000   15.8    0.0   15.8    0.0
 2003 240     8  13.40  12.40   4.70  2.534  1.731  0.000  1.731  0.000   17.5    0.0   17.5    0.0
 2003 241     9  14.90  12.60   4.00  2.806  1.222  0.000  1.222  0.000   18.7    0.0   18.7    0.0
 2003 242    10  12.80  14.30   5.30  2.508  1.000  0.000  1.000  0.000   19.7    0.0   19.7    0.0
 2003 243    11  14.60  15.90   4.90  2.918  0.868  0.000  0.868  0.000   20.6    0.0   20.6    0.0
 2003 244    12  19.00  19.40   6.40  4.051  0.777  0.000  0.777  0.000   21.4    0.0   21.4    0.0
 2003 245    13  17.20  21.00   1.80  3.592  0.710  0.000  0.710  0.000   22.1    0.0   22.1    0.0
 2003 246    14  18.60  25.00   6.40  4.274  0.658  0.000  0.658  0.000   22.8    0.0   22.8    0.0
 2003 247    15   8.30  22.50  14.50  1.978  1.978  0.000  1.978  0.000   24.7    0.0   24.7    0.0
 2003 248    16  11.30  26.70  14.70  2.838  1.177  0.000  1.177  0.000   25.9    0.0   25.9    0.0
 2003 249    17  18.60  32.50  18.70  5.138  0.975  0.000  0.975  0.000   26.9    0.0   26.9    0.0
 2003 250    18   5.80  22.50  14.00  1.376  1.376  0.003  1.372  0.000   28.3    0.0   28.3    0.0
 2003 251    19   5.80  15.20   8.90  1.192  1.192  0.003  1.189  0.000   29.5    0.0   29.5    0.0
 2003 252    20  18.20  13.60   4.70  3.504  3.504  0.010  3.494  0.000   33.0    0.0   32.9    0.0
 2003 253    21  20.40  14.40   2.60  3.891  2.873  0.019  2.855  0.000   35.8    0.0   35.8    0.0
 2003 254    22  20.20  18.10   1.40  4.026  2.305  0.020  2.285  0.000   38.1    0.1   38.1    0.0
 2003 255    23  21.00  21.60   3.10  4.474  1.383  0.023  1.360  0.000   39.5    0.1   39.4    0.0
 2003 256    24  21.20  14.10   6.10  4.171  1.093  0.022  1.071  0.000   40.6    0.1   40.5    0.0
 2003 257    25  20.60  13.90   1.20  3.842  0.934  0.021  0.913  0.000   41.6    0.1   41.4    0.0
 2003 258    26  20.70  15.70   3.30  4.056  0.832  0.023  0.809  0.000   42.4    0.1   42.2    0.0
 2003 259    27  18.70  15.40   5.00  3.710  0.755  0.021  0.734  0.000   43.1    0.2   43.0    0.0
 2003 260    28  17.70  16.90   4.20  3.562  0.698  0.021  0.677  0.000   43.8    0.2   43.7    0.0
 2003 261    29  19.80  21.90   5.00  4.309  0.657  0.026  0.631  0.000   44.5    0.2   44.3    0.0
 2003 262    30   7.30  25.70  10.60  1.751  1.751  0.007  1.745  0.000   46.2    0.2   46.0    0.0
 2003 263    31  21.20  19.10   4.80  4.429  0.703  0.030  0.673  0.000   46.9    0.2   46.7    0.0
 2003 264    32  13.90  22.00   8.90  3.136  3.136  0.014  3.122  0.000   50.1    0.3   49.8    0.0
 2003 265    33  11.50  24.10  15.80  2.822  2.822  0.013  2.809  0.000   52.9    0.3   52.6    0.0
 2003 266    34   9.00  20.10  14.20  2.074  2.074  0.010  2.063  0.000   55.0    0.3   54.7    0.0
 2003 267    35  15.50  19.80  11.00  3.459  2.496  0.029  2.467  0.000   57.5    0.3   57.2    0.0
 2003 268    36  16.20  19.20   7.90  3.488  2.362  0.030  2.331  0.000   59.8    0.3   59.5    0.0
 2003 269    37  11.00  19.00   9.80  2.403  1.390  0.022  1.368  0.000   61.2    0.4   60.9    0.0
 2003 270    38  15.30  23.50  12.30  3.621  2.530  0.036  2.495  0.000   63.8    0.4   63.4    0.0
 2003 271    39  15.00  16.30   6.30  3.052  2.251  0.035  2.216  0.000   66.0    0.4   65.6    0.0
 2003 272    40  23.30  18.00   2.10  4.665  1.403  0.056  1.347  0.000   67.4    0.5   66.9    0.0
 2003 273    41  23.90  22.00   8.20  5.354  1.132  0.067  1.065  0.000   68.5    0.6   68.0    0.0
 2003 274    42  17.70  27.00  10.30  4.299  0.967  0.059  0.909  0.000   69.5    0.6   68.9    0.0
 2003 275    43  12.90  23.00  12.60  3.039  0.853  0.046  0.806  0.000   70.4    0.7   69.7    0.0
 2003 276    44   7.00  21.20  11.90  1.602  1.602  0.017  1.585  0.000   72.0    0.7   71.3    0.0
 2003 277    45   7.00  19.40  16.20  1.623  1.623  0.018  1.605  0.000   73.6    0.7   72.9    0.0
 2003 278    46  11.00  23.80  15.50  2.678  2.678  0.034  2.644  0.000   76.3    0.7   75.5    0.0
 2003 279    47  20.30  20.60  12.20  4.617  3.537  0.106  3.431  0.000   79.8    0.8   79.0    0.0
 2003 280    48  21.60  24.20  11.20  5.098  2.330  0.128  2.202  0.000   82.1    1.0   81.2    0.0
 2003 281    49   9.70  27.00  15.60  2.452  2.452  0.042  2.410  0.000   84.6    1.0   83.6    0.0
 2003 282    50  22.40  23.40  13.20  5.317  4.728  0.163  4.565  0.000   89.3    1.2   88.1    0.0
 2003 283    51  13.80  13.60   7.40  2.719  2.719  0.061  2.658  0.000   92.0    1.2   90.8    0.0
 2003 284    52  25.30  15.20   3.90  4.929  1.580  0.169  1.412  0.000   93.6    1.4   92.2    0.0
 2003 285    53  25.50  16.30   3.20  5.015  1.272  0.177  1.095  0.000   94.9    1.6   93.3    0.0
 2003 286    54  25.40  20.10   4.30  5.334  1.123  0.195  0.927  0.000   96.0    1.8   94.2    0.0
 2003 287    55  25.40  24.80   8.00  5.868  1.045  0.226  0.819  0.000   97.1    2.0   95.1    0.0
 2003 288    56  25.80  26.40  11.80  6.271  1.005  0.263  0.742  0.000   98.1    2.3   95.8    0.0
 2003 289    57  26.40  30.80  12.70  6.801  0.998  0.315  0.683  0.000   99.1    2.6   96.5    0.0
 2003 290    58  21.90  30.30  16.30  5.760  0.932  0.296  0.636  0.000  100.0    2.9   97.1    0.0
 2003 291    59  17.90  32.90  19.00  4.935  3.242  0.282  2.960  0.000  103.2    3.2  100.1    0.0
 2003 292    60  22.40  23.90  14.40  5.376  0.994  0.351  0.643  0.000  104.2    3.5  100.7    0.0
 2003 293    61  10.90  21.20  11.10  2.457  0.778  0.175  0.603  0.000  105.0    3.7  101.3    0.0
 2003 294    62  25.50  23.50  12.00  5.961  1.019  0.449  0.570  0.000  106.0    4.1  101.9    0.0
 2003 295    63  26.90  24.20   9.10  6.187  1.039  0.497  0.542  0.000  107.1    4.6  102.4    0.0
 2003 296    64  27.30  27.20  11.00  6.616  1.079  0.561  0.518  0.000  108.1    5.2  103.0    0.0
 2003 297    65  22.90  32.00  14.80  6.030  1.078  0.582  0.497  0.000  109.2    5.8  103.4    0.0
 2003 298    66  11.40  24.90  19.20  2.857  2.857  0.209  2.648  0.000  112.1    6.0  106.1    0.0
 2003 299    67  21.10  25.90  14.70  5.150  4.838  0.672  4.166  0.000  116.9    6.7  110.3    0.0
 2003 300    68  27.30  20.80   8.40  5.910  3.662  0.882  2.780  0.000  120.6    7.5  113.0    0.0
 2003 301    69  27.40  23.80   9.00  6.192  2.408  0.986  1.423  0.000  123.0    8.5  114.5    0.0
 2003 302    70  27.50  26.40  10.80  6.503  2.228  1.128  1.100  0.000  125.2    9.6  115.6    0.0
 2003 303    71  27.90  31.30  15.90  7.245  2.329  1.399  0.931  0.000  127.5   11.0  116.5    0.0
 2003 304    72  10.40  19.90  11.50  2.262  2.262  0.347  1.916  0.000  129.8   11.4  118.4    0.0
 2003 305    73  27.90  18.60   8.10  5.773  5.702  1.350  4.352  0.000  135.5   12.7  122.8    0.0
 2003 306    74  27.80  20.00   4.50  5.664  4.241  1.383  2.857  0.000  139.7   14.1  125.6    0.0
 2003 307    75  27.80  21.20   5.00  5.776  2.903  1.474  1.429  0.000  142.6   15.6  127.0    0.0
 2003 308    76  25.00  22.40   9.50  5.483  2.576  1.473  1.103  0.000  145.2   17.1  128.2    0.0
 2003 309    77  28.00  24.60  11.10  6.383  2.769  1.836  0.932  0.000  148.0   18.9  129.1    0.0
 2003 310    78  25.10  26.60  13.50  5.956  2.687  1.865  0.822  0.000  150.7   20.8  129.9    0.0
 2003 311    79  25.30  27.80  14.80  6.120  2.864  2.120  0.744  0.000  153.5   22.9  130.7    0.0
 2003 312    80  21.00  29.70  14.90  5.168  2.663  1.978  0.685  0.000  156.2   24.9  131.3    0.0
 2003 313    81  16.70  29.60  18.00  4.178  2.394  1.757  0.638  0.000  158.6   26.6  132.0    0.0
 2003 314    82  27.50  30.40  14.90  6.745  3.692  3.093  0.599  0.000  162.3   29.7  132.6    0.0
 2003 315    83  24.40  33.80  16.50  6.254  6.254  2.603  3.651  0.000  168.5   32.3  136.2    0.0
 2003 316    84  12.00  20.20  13.90  2.556  2.556  1.039  1.517  0.000  171.1   33.4  137.7    0.0
 2003 317    85  24.50  19.50  11.30  5.043  5.043  2.115  2.928  0.000  176.1   35.5  140.7    0.0
 2003 318    86  28.50  22.70   8.20  5.942  5.942  3.286  2.656  0.000  182.1   38.8  143.3    0.0
 2003 319    87  27.30  29.30  11.70  6.341  6.341  2.799  3.542  0.000  188.4   41.6  146.9    0.0
 2003 320    88   8.60  21.90  17.70  1.911  1.911  0.878  1.033  0.000  190.3   42.4  147.9    0.0
 2003 321    89  15.00  26.60  16.30  3.476  3.476  1.651  1.825  0.000  193.8   44.1  149.7    0.0
 2003 322    90  11.50  18.10  13.20  2.329  2.329  1.150  1.179  0.000  196.1   45.2  150.9    0.0
 2003 323    91  26.20  25.50  13.80  5.847  5.847  2.930  2.917  0.000  202.0   48.2  153.8    0.0
 2003 324    92  29.80  20.20  11.20  6.069  6.069  3.550  2.520  0.000  208.1   51.7  156.3    0.0
 2003 325    93  30.50  25.70   9.80  6.576  6.576  3.637  2.939  0.000  214.6   55.4  159.3    0.0
 2003 326    94  29.70  33.10  15.60  7.283  6.486  5.052  1.434  0.000  221.1   60.4  160.7    0.0
 2003 327    95  27.30  34.10  19.20  6.924  6.924  3.829  3.095  0.000  228.0   64.2  163.8    0.0
 2003 328    96   8.80  19.40  15.40  1.824  1.824  1.036  0.788  0.000  229.9   65.3  164.6    0.0
 2003 329    97  27.90  27.60  13.40  6.285  6.285  3.828  2.457  0.000  236.2   69.1  167.1    0.0
 2003 330    98  17.00  29.50  18.00  4.047  4.047  2.362  1.685  0.000  240.2   71.5  168.7    0.0
 2003 331    99  30.00  29.20  17.40  7.074  7.074  4.203  2.871  0.000  247.3   75.7  171.6    0.0
 2003 332   100  15.70  27.50  14.70  3.553  3.553  2.139  1.414  0.000  250.8   77.8  173.0    0.0
 2003 333   101  31.00  29.10  14.00  7.099  7.099  5.424  1.675  0.000  257.9   83.2  174.7    0.0
 2003 334   102  11.50  22.20  16.50  2.472  2.472  1.524  0.948  0.000  260.4   84.8  175.6    0.0
 2003 335   103  28.70  26.10  16.20  6.446  6.446  4.000  2.446  0.000  266.8   88.8  178.1    0.0
 2003 336   104  22.60  25.70  13.20  4.933  4.933  3.062  1.870  0.000  271.8   91.8  180.0    0.0
 2003 337   105  24.60  29.00  14.50  5.640  5.640  4.158  1.481  0.000  277.4   96.0  181.4    0.0
 2003 338   106  14.90  27.80  16.90  3.431  3.431  2.134  1.297  0.000  280.9   98.1  182.7    0.0
 2003 339   107  31.10  24.80  13.30  6.719  6.719  4.177  2.542  0.000  287.6  102.3  185.3    0.0
 2003 340   108  31.10  25.40   9.20  6.545  6.545  4.190  2.355  0.000  294.1  106.5  187.6    0.0
 2003 341   109  19.60  27.10  13.30  4.353  4.353  2.704  1.650  0.000  298.5  109.2  189.3    0.0
 2003 342   110  13.60  24.00  12.80  2.898  2.898  1.800  1.098  0.000  301.4  111.0  190.4    0.0
 2003 343   111  30.90  22.10  11.20  6.342  6.342  3.941  2.401  0.000  307.7  114.9  192.8    0.0
 2003 344   112  29.80  27.70   9.90  6.488  6.488  4.029  2.459  0.000  314.2  118.9  195.2    0.0
 2003 345   113  19.30  26.80  11.80  4.221  4.221  2.621  1.600  0.000  318.4  121.6  196.8    0.0
 2003 346   114  28.20  23.90   9.70  5.847  5.847  3.743  2.104  0.000  324.3  125.3  199.0    0.0
 2003 347   115  20.80  24.60  13.90  4.505  4.505  2.799  1.706  0.000  328.8  128.1  200.7    0.0
 2003 348   116  26.60  27.50  15.70  6.049  6.049  3.950  2.098  0.000  334.8  132.1  202.8    0.0
 2003 349   117  10.10  24.00  14.80  2.188  2.188  1.358  0.829  0.000  337.0  133.4  203.6    0.0
 2003 350   118  29.90  21.20  10.80  6.047  6.047  3.744  2.303  0.000  343.1  137.2  205.9    0.0
 2003 351   119  31.30  24.10  10.10  6.532  6.532  4.039  2.493  0.000  349.6  141.2  208.4    0.0
 2003 352   120  31.90  26.80  11.10  6.941  6.941  5.198  1.743  0.000  356.5  146.4  210.1    0.0
 2003 353   121  20.60  29.20  16.30  4.801  4.801  2.959  1.842  0.000  361.3  149.4  212.0    0.0
 2003 354   122  11.20  25.20  17.60  2.519  2.519  1.549  0.970  0.000  363.8  150.9  212.9    0.0
 2003 355   123  27.80  29.90  17.90  6.613  6.613  4.051  2.561  0.000  370.5  155.0  215.5    0.0
 2003 356   124  16.00  23.70  12.60  3.396  3.396  2.076  1.320  0.000  373.9  157.0  216.8    0.0
 2003 357   125  30.10  24.00  10.70  6.314  6.314  3.985  2.328  0.000  380.2  161.0  219.1    0.0
 2003 358   126  22.90  25.80  12.90  5.002  5.002  3.036  1.966  0.000  385.2  164.1  221.1    0.0
 2003 359   127  31.40  29.50  17.10  7.401  7.401  5.455  1.945  0.000  392.6  169.5  223.1    0.0
 2003 360   128  26.80  29.60  16.00  6.274  6.086  4.800  1.286  0.000  398.7  174.3  224.3    0.0
 2003 361   129   9.10  26.70  18.10  2.095  2.095  1.258  0.837  0.000  400.8  175.6  225.2    0.0
 2003 362   130  18.20  22.70  15.50  3.916  3.916  2.341  1.574  0.000  404.7  177.9  226.8    0.0
 2003 363   131  29.60  24.00   9.80  6.175  6.175  3.677  2.498  0.000  410.8  181.6  229.3    0.0
 2003 364   132  27.90  28.40  11.30  6.221  6.221  4.266  1.955  0.000  417.1  185.9  231.2    0.0
 2003 365   133  28.90  22.90  13.80  6.153  6.153  3.634  2.519  0.000  423.2  189.5  233.7    0.0
 2004 001   134  30.10  27.40   8.70  6.499  6.357  4.873  1.484  0.000  429.6  194.4  235.2    0.0
 2004 002   135  31.60  27.40  10.40  6.920  6.298  5.170  1.128  0.000  435.9  199.5  236.3    0.0
 2004 003   136  31.60  29.80  13.70  7.308  6.387  5.441  0.947  0.000  442.3  205.0  237.3    0.0
 2004 004   137  23.10  30.90  16.90  5.543  4.942  4.110  0.832  0.000  447.2  209.1  238.1    0.0
 2004 005   138  25.00  32.50  20.20  6.253  5.369  4.618  0.751  0.000  452.6  213.7  238.9    0.0
 2004 006   139  27.90  33.70  18.40  6.982  6.982  4.011  2.971  0.000  459.6  217.7  241.8    0.0
 2004 007   140  19.80  32.80  18.80  4.924  4.924  2.814  2.111  0.000  464.5  220.5  244.0    0.0
 2004 008   141  29.20  30.90  19.90  7.175  7.175  4.077  3.098  0.000  471.7  224.6  247.0    0.0
 2004 009   142  26.60  31.10  20.40  6.578  6.578  4.545  2.033  0.000  478.2  229.1  249.1    0.0
 2004 010   143  23.40  30.90  20.30  5.773  5.773  3.301  2.472  0.000  484.0  232.4  251.6    0.0
 2004 011   144  28.50  26.90  20.10  6.721  6.212  4.822  1.389  0.000  490.2  237.3  252.9    0.0
 2004 012   145  19.50  27.30  18.20  4.556  4.337  3.252  1.085  0.000  494.5  240.5  254.0    0.0
 2004 013   146  23.90  27.70  17.00  5.562  4.871  3.950  0.921  0.000  499.4  244.5  254.9    0.0
 2004 014   147  29.50  29.20  17.30  7.003  7.003  3.843  3.160  0.000  506.4  248.3  258.1    0.0
 2004 015   148  22.60  26.70  15.90  5.161  5.161  2.815  2.346  0.000  511.6  251.1  260.5    0.0
 2004 016   149  28.70  27.00  13.40  6.453  6.453  4.483  1.970  0.000  518.0  255.6  262.4    0.0
 2004 017   150  13.50  28.50  15.90  3.151  3.151  1.698  1.453  0.000  521.2  257.3  263.9    0.0
 2004 018   151  12.80  27.30  18.60  3.010  3.010  1.612  1.398  0.000  524.2  258.9  265.3    0.0
 2004 019   152  14.30  23.60  18.40  3.218  3.218  1.712  1.506  0.000  527.4  260.6  266.8    0.0
 2004 020   153  17.30  28.50  17.90  4.107  4.107  2.438  1.670  0.000  531.5  263.1  268.5    0.0
 2004 021   154  26.70  29.10  18.70  6.424  5.559  4.358  1.200  0.000  537.1  267.4  269.7    0.0
 2004 022   155  26.10  30.00  19.30  6.375  6.375  3.320  3.055  0.000  543.5  270.7  272.7    0.0
 2004 023   156  24.20  29.10  19.10  5.848  5.848  3.023  2.825  0.000  549.3  273.8  275.5    0.0
 2004 024   157  26.70  30.50  18.40  6.523  6.289  4.336  1.954  0.000  555.6  278.1  277.5    0.0
 2004 025   158  28.30  29.80  15.70  6.729  6.559  4.442  2.117  0.000  562.2  282.5  279.6    0.0
 2004 026   159  29.30  32.00  13.90  7.050  5.951  4.624  1.327  0.000  568.1  287.2  280.9    0.0
 2004 027   160  29.80  30.60  14.60  7.100  6.182  4.627  1.555  0.000  574.3  291.8  282.5    0.0
 2004 028   161  16.10  29.70  17.60  3.886  3.886  1.939  1.947  0.000  578.2  293.7  284.4    0.0
 2004 029   162  29.70  33.20  19.20  7.538  7.538  3.736  3.802  0.000  585.7  297.5  288.2    0.0
 2004 030   163  29.20  36.00  18.60  7.950  7.604  5.081  2.523  0.000  593.3  302.6  290.8    0.0
 2004 031   164  17.00  34.60  20.70  4.484  4.484  1.916  2.567  0.000  597.8  304.5  293.3    0.0
 2004 032   165  25.40  30.20  20.90  6.482  6.482  2.753  3.728  0.000  604.3  307.2  297.1    0.0
 2004 033   166  23.70  29.00  18.20  5.917  5.917  1.855  4.062  0.000  610.2  309.1  301.1    0.0
 2004 034   167   8.50  22.90  19.90  2.024  2.024  0.504  1.520  0.000  612.2  309.6  302.6    0.0
 2004 035   168  22.10  30.30  19.40  5.752  5.752  1.194  4.558  0.000  618.0  310.8  307.2    0.0
 2004 036   169  28.70  27.20  19.20  7.260  5.069  1.646  3.423  0.000  623.0  312.4  310.6    0.0
 2004 037   170  29.30  27.10  15.50  7.241  2.790  1.340  1.449  0.000  625.8  313.8  312.1    0.0
 2004 038   171  25.90  27.70  14.90  6.448  2.082  0.970  1.112  0.000  627.9  314.7  313.2    0.0
 2004 039   172  29.30  28.30  16.10  7.445  1.846  0.908  0.938  0.000  629.8  315.6  314.1    0.0
 2004 040   173  26.30  29.30  15.70  6.762  1.494  0.668  0.826  0.000  631.3  316.3  314.9    0.0
 2004 041   174  27.90  30.10  17.20  7.340  1.333  0.586  0.747  0.000  632.6  316.9  315.7    0.0
